MODEL 1
REMARK VINA RESULT:      -7.4      0.000      0.000
REMARK  Name = 192187
REMARK  3 active torsions:
REMARK  status: ('A' for Active; 'I' for Inactive)
REMARK    1  A    between atoms: C_6  and  C_16
REMARK    2  A    between atoms: C_11  and  N_24
REMARK    3  A    between atoms: C_19  and  N_22
REMARK                            x       y       z     vdW  Elec       q    Type
REMARK                         _______ _______ _______ _____ _____    ______ ____
ROOT
ATOM      1  S   UNL     1     -37.969  23.165   2.127  0.00  0.00    +0.063 S 
ATOM      2  O   UNL     1     -38.086  21.790   2.570  0.00  0.00    -0.153 OA
ATOM      3  O   UNL     1     -37.474  23.502   0.807  0.00  0.00    -0.153 OA
ATOM      4  N   UNL     1     -39.464  23.946   2.398  0.00  0.00    -0.156 NA
ATOM      5  N   UNL     1     -38.497  25.926   3.439  0.00  0.00    -0.314 N 
ATOM      6  C   UNL     1     -39.405  25.431   2.414  0.00  0.00    +0.206 C 
ATOM      7  C   UNL     1     -36.939  24.020   3.277  0.00  0.00    +0.135 C 
ATOM      8  C   UNL     1     -37.319  25.275   3.776  0.00  0.00    +0.066 C 
ATOM      9  C   UNL     1     -36.461  25.873   4.714  0.00  0.00    +0.030 C 
ATOM     10  C   UNL     1     -35.757  23.387   3.674  0.00  0.00    +0.022 C 
ATOM     11  C   UNL     1     -35.275  25.253   5.117  0.00  0.00    +0.052 C 
ATOM     12  C   UNL     1     -34.923  24.012   4.595  0.00  0.00    +0.016 C 
ATOM     13  H   UNL     1     -39.826  23.634   3.300  0.00  0.00    +0.151 HD
ATOM     14  H   UNL     1     -38.730  26.756   3.914  0.00  0.00    +0.148 HD
ENDROOT
BRANCH   6  16
ATOM     15  O   UNL     1     -41.030  26.902   3.471  0.00  0.00    -0.434 OA
ATOM     16  C   UNL     1     -40.826  25.948   2.532  0.00  0.00    +0.160 C 
ATOM     17  C   UNL     1     -41.984  25.646   1.870  0.00  0.00    +0.041 C 
ATOM     18  C   UNL     1     -42.980  26.474   2.441  0.00  0.00    +0.066 C 
ATOM     19  C   UNL     1     -42.350  27.219   3.411  0.00  0.00    +0.289 C 
BRANCH  19  22
ATOM     20  O   UNL     1     -44.007  28.313   4.580  0.00  0.00    -0.123 OA
ATOM     21  O   UNL     1     -41.929  28.967   4.854  0.00  0.00    -0.123 OA
ATOM     22  N   UNL     1     -42.775  28.198   4.310  0.00  0.00    +0.093 N 
ENDBRANCH  19  22
ENDBRANCH   6  16
BRANCH  11  24
ATOM     23  O   UNL     1     -32.854  26.996   4.715  0.00  0.00    -0.275 OA
ATOM     24  N   UNL     1     -34.444  25.878   6.048  0.00  0.00    -0.284 N 
ATOM     25  C   UNL     1     -33.322  26.682   5.803  0.00  0.00    +0.227 C 
ATOM     26  C   UNL     1     -32.694  27.170   7.085  0.00  0.00    +0.095 C 
ATOM     27  H   UNL     1     -34.674  25.737   6.995  0.00  0.00    +0.155 HD
ENDBRANCH  11  24
TORSDOF 3
ENDMDL
MODEL 2
REMARK VINA RESULT:      -7.0      2.378      7.441
REMARK  Name = 192187
REMARK  3 active torsions:
REMARK  status: ('A' for Active; 'I' for Inactive)
REMARK    1  A    between atoms: C_6  and  C_16
REMARK    2  A    between atoms: C_11  and  N_24
REMARK    3  A    between atoms: C_19  and  N_22
REMARK                            x       y       z     vdW  Elec       q    Type
REMARK                         _______ _______ _______ _____ _____    ______ ____
ROOT
ATOM      1  S   UNL     1     -39.163  25.693   0.672  0.00  0.00    +0.063 S 
ATOM      2  O   UNL     1     -38.696  26.763  -0.187  0.00  0.00    -0.153 OA
ATOM      3  O   UNL     1     -39.617  24.426   0.134  0.00  0.00    -0.153 OA
ATOM      4  N   UNL     1     -37.984  25.418   1.878  0.00  0.00    -0.156 NA
ATOM      5  N   UNL     1     -39.566  25.378   3.732  0.00  0.00    -0.314 N 
ATOM      6  C   UNL     1     -38.468  24.682   3.075  0.00  0.00    +0.206 C 
ATOM      7  C   UNL     1     -40.491  26.322   1.649  0.00  0.00    +0.135 C 
ATOM      8  C   UNL     1     -40.532  26.085   3.031  0.00  0.00    +0.066 C 
ATOM      9  C   UNL     1     -41.604  26.650   3.742  0.00  0.00    +0.030 C 
ATOM     10  C   UNL     1     -41.471  27.072   0.992  0.00  0.00    +0.022 C 
ATOM     11  C   UNL     1     -42.593  27.399   3.098  0.00  0.00    +0.052 C 
ATOM     12  C   UNL     1     -42.527  27.608   1.723  0.00  0.00    +0.016 C 
ATOM     13  H   UNL     1     -37.629  26.323   2.186  0.00  0.00    +0.151 HD
ATOM     14  H   UNL     1     -39.623  25.347   4.714  0.00  0.00    +0.148 HD
ENDROOT
BRANCH   6  16
ATOM     15  O   UNL     1     -36.899  23.118   4.081  0.00  0.00    -0.434 OA
ATOM     16  C   UNL     1     -37.271  24.415   3.968  0.00  0.00    +0.160 C 
ATOM     17  C   UNL     1     -36.461  25.232   4.707  0.00  0.00    +0.041 C 
ATOM     18  C   UNL     1     -35.516  24.379   5.326  0.00  0.00    +0.066 C 
ATOM     19  C   UNL     1     -35.825  23.103   4.914  0.00  0.00    +0.289 C 
BRANCH  19  22
ATOM     20  O   UNL     1     -35.254  20.971   4.251  0.00  0.00    -0.123 OA
ATOM     21  O   UNL     1     -34.809  21.578   6.313  0.00  0.00    -0.123 OA
ATOM     22  N   UNL     1     -35.279  21.844   5.168  0.00  0.00    +0.093 N 
ENDBRANCH  19  22
ENDBRANCH   6  16
BRANCH  11  24
ATOM     23  O   UNL     1     -42.597  29.537   5.218  0.00  0.00    -0.275 OA
ATOM     24  N   UNL     1     -43.646  27.942   3.835  0.00  0.00    -0.284 N 
ATOM     25  C   UNL     1     -43.590  28.941   4.817  0.00  0.00    +0.227 C 
ATOM     26  C   UNL     1     -44.956  29.248   5.379  0.00  0.00    +0.095 C 
ATOM     27  H   UNL     1     -44.540  27.577   3.642  0.00  0.00    +0.155 HD
ENDBRANCH  11  24
TORSDOF 3
ENDMDL
MODEL 3
REMARK VINA RESULT:      -6.7      4.860      8.026
REMARK  Name = 192187
REMARK  3 active torsions:
REMARK  status: ('A' for Active; 'I' for Inactive)
REMARK    1  A    between atoms: C_6  and  C_16
REMARK    2  A    between atoms: C_11  and  N_24
REMARK    3  A    between atoms: C_19  and  N_22
REMARK                            x       y       z     vdW  Elec       q    Type
REMARK                         _______ _______ _______ _____ _____    ______ ____
ROOT
ATOM      1  S   UNL     1     -38.823  21.685   1.220  0.00  0.00    +0.063 S 
ATOM      2  O   UNL     1     -40.114  21.132   1.576  0.00  0.00    -0.153 OA
ATOM      3  O   UNL     1     -38.694  22.777   0.275  0.00  0.00    -0.153 OA
ATOM      4  N   UNL     1     -37.986  22.067   2.659  0.00  0.00    -0.156 NA
ATOM      5  N   UNL     1     -35.889  21.025   1.983  0.00  0.00    -0.314 N 
ATOM      6  C   UNL     1     -36.516  22.229   2.509  0.00  0.00    +0.206 C 
ATOM      7  C   UNL     1     -37.823  20.370   0.598  0.00  0.00    +0.135 C 
ATOM      8  C   UNL     1     -36.502  20.210   1.042  0.00  0.00    +0.066 C 
ATOM      9  C   UNL     1     -35.785  19.117   0.526  0.00  0.00    +0.030 C 
ATOM     10  C   UNL     1     -38.409  19.500  -0.326  0.00  0.00    +0.022 C 
ATOM     11  C   UNL     1     -36.358  18.242  -0.401  0.00  0.00    +0.052 C 
ATOM     12  C   UNL     1     -37.668  18.435  -0.828  0.00  0.00    +0.016 C 
ATOM     13  H   UNL     1     -38.154  21.319   3.332  0.00  0.00    +0.151 HD
ATOM     14  H   UNL     1     -34.994  20.778   2.310  0.00  0.00    +0.148 HD
ENDROOT
BRANCH   6  16
ATOM     15  O   UNL     1     -35.867  24.032   4.009  0.00  0.00    -0.434 OA
ATOM     16  C   UNL     1     -35.964  22.691   3.844  0.00  0.00    +0.160 C 
ATOM     17  C   UNL     1     -35.529  22.021   4.954  0.00  0.00    +0.041 C 
ATOM     18  C   UNL     1     -35.132  23.019   5.875  0.00  0.00    +0.066 C 
ATOM     19  C   UNL     1     -35.357  24.225   5.253  0.00  0.00    +0.289 C 
BRANCH  19  22
ATOM     20  O   UNL     1     -36.137  26.376   5.537  0.00  0.00    -0.123 OA
ATOM     21  O   UNL     1     -34.049  25.945   6.059  0.00  0.00    -0.123 OA
ATOM     22  N   UNL     1     -35.175  25.558   5.628  0.00  0.00    +0.093 N 
ENDBRANCH  19  22
ENDBRANCH   6  16
BRANCH  11  24
ATOM     23  O   UNL     1     -36.501  15.303   0.236  0.00  0.00    -0.275 OA
ATOM     24  N   UNL     1     -35.614  17.170  -0.897  0.00  0.00    -0.284 N 
ATOM     25  C   UNL     1     -35.723  15.813  -0.562  0.00  0.00    +0.227 C 
ATOM     26  C   UNL     1     -34.732  14.969  -1.324  0.00  0.00    +0.095 C 
ATOM     27  H   UNL     1     -34.927  17.395  -1.567  0.00  0.00    +0.155 HD
ENDBRANCH  11  24
TORSDOF 3
ENDMDL
MODEL 4
REMARK VINA RESULT:      -6.7      2.523      2.809
REMARK  Name = 192187
REMARK  3 active torsions:
REMARK  status: ('A' for Active; 'I' for Inactive)
REMARK    1  A    between atoms: C_6  and  C_16
REMARK    2  A    between atoms: C_11  and  N_24
REMARK    3  A    between atoms: C_19  and  N_22
REMARK                            x       y       z     vdW  Elec       q    Type
REMARK                         _______ _______ _______ _____ _____    ______ ____
ROOT
ATOM      1  S   UNL     1     -36.323  24.292   4.249  0.00  0.00    +0.063 S 
ATOM      2  O   UNL     1     -36.201  24.068   5.676  0.00  0.00    -0.153 OA
ATOM      3  O   UNL     1     -35.946  23.280   3.283  0.00  0.00    -0.153 OA
ATOM      4  N   UNL     1     -37.909  24.837   3.925  0.00  0.00    -0.156 NA
ATOM      5  N   UNL     1     -37.222  26.686   2.493  0.00  0.00    -0.314 N 
ATOM      6  C   UNL     1     -38.085  25.520   2.616  0.00  0.00    +0.206 C 
ATOM      7  C   UNL     1     -35.391  25.735   3.846  0.00  0.00    +0.135 C 
ATOM      8  C   UNL     1     -35.942  26.732   3.026  0.00  0.00    +0.066 C 
ATOM      9  C   UNL     1     -35.148  27.865   2.782  0.00  0.00    +0.030 C 
ATOM     10  C   UNL     1     -34.107  25.843   4.390  0.00  0.00    +0.022 C 
ATOM     11  C   UNL     1     -33.862  27.984   3.316  0.00  0.00    +0.052 C 
ATOM     12  C   UNL     1     -33.342  26.972   4.118  0.00  0.00    +0.016 C 
ATOM     13  H   UNL     1     -38.176  25.491   4.660  0.00  0.00    +0.151 HD
ATOM     14  H   UNL     1     -37.561  27.475   2.013  0.00  0.00    +0.148 HD
ENDROOT
BRANCH   6  16
ATOM     15  O   UNL     1     -40.135  26.553   3.421  0.00  0.00    -0.434 OA
ATOM     16  C   UNL     1     -39.563  25.812   2.443  0.00  0.00    +0.160 C 
ATOM     17  C   UNL     1     -40.471  25.476   1.478  0.00  0.00    +0.041 C 
ATOM     18  C   UNL     1     -41.698  26.050   1.887  0.00  0.00    +0.066 C 
ATOM     19  C   UNL     1     -41.442  26.694   3.075  0.00  0.00    +0.289 C 
BRANCH  19  22
ATOM     20  O   UNL     1     -43.401  27.060   4.233  0.00  0.00    -0.123 OA
ATOM     21  O   UNL     1     -41.750  28.482   4.498  0.00  0.00    -0.123 OA
ATOM     22  N   UNL     1     -42.222  27.436   3.963  0.00  0.00    +0.093 N 
ENDBRANCH  19  22
ENDBRANCH   6  16
BRANCH  11  24
ATOM     23  O   UNL     1     -32.884  30.159   5.154  0.00  0.00    -0.275 OA
ATOM     24  N   UNL     1     -33.100  29.122   3.048  0.00  0.00    -0.284 N 
ATOM     25  C   UNL     1     -32.672  30.108   3.948  0.00  0.00    +0.227 C 
ATOM     26  C   UNL     1     -31.864  31.180   3.259  0.00  0.00    +0.095 C 
ATOM     27  H   UNL     1     -32.829  29.248   2.110  0.00  0.00    +0.155 HD
ENDBRANCH  11  24
TORSDOF 3
ENDMDL
MODEL 5
REMARK VINA RESULT:      -6.7      5.040      6.959
REMARK  Name = 192187
REMARK  3 active torsions:
REMARK  status: ('A' for Active; 'I' for Inactive)
REMARK    1  A    between atoms: C_6  and  C_16
REMARK    2  A    between atoms: C_11  and  N_24
REMARK    3  A    between atoms: C_19  and  N_22
REMARK                            x       y       z     vdW  Elec       q    Type
REMARK                         _______ _______ _______ _____ _____    ______ ____
ROOT
ATOM      1  S   UNL     1     -34.106  27.604   2.925  0.00  0.00    +0.063 S 
ATOM      2  O   UNL     1     -33.382  27.636   1.670  0.00  0.00    -0.153 OA
ATOM      3  O   UNL     1     -35.318  28.372   3.127  0.00  0.00    -0.153 OA
ATOM      4  N   UNL     1     -34.383  25.971   3.344  0.00  0.00    -0.156 NA
ATOM      5  N   UNL     1     -33.658  26.209   5.659  0.00  0.00    -0.314 N 
ATOM      6  C   UNL     1     -34.713  25.735   4.774  0.00  0.00    +0.206 C 
ATOM      7  C   UNL     1     -32.992  28.087   4.206  0.00  0.00    +0.135 C 
ATOM      8  C   UNL     1     -32.913  27.349   5.396  0.00  0.00    +0.066 C 
ATOM      9  C   UNL     1     -31.976  27.779   6.351  0.00  0.00    +0.030 C 
ATOM     10  C   UNL     1     -32.194  29.211   3.971  0.00  0.00    +0.022 C 
ATOM     11  C   UNL     1     -31.174  28.902   6.130  0.00  0.00    +0.052 C 
ATOM     12  C   UNL     1     -31.285  29.618   4.942  0.00  0.00    +0.016 C 
ATOM     13  H   UNL     1     -33.540  25.440   3.123  0.00  0.00    +0.151 HD
ATOM     14  H   UNL     1     -33.465  25.697   6.478  0.00  0.00    +0.148 HD
ENDROOT
BRANCH   6  16
ATOM     15  O   UNL     1     -35.282  23.587   3.785  0.00  0.00    -0.434 OA
ATOM     16  C   UNL     1     -35.054  24.266   4.933  0.00  0.00    +0.160 C 
ATOM     17  C   UNL     1     -35.184  23.454   6.026  0.00  0.00    +0.041 C 
ATOM     18  C   UNL     1     -35.518  22.176   5.518  0.00  0.00    +0.066 C 
ATOM     19  C   UNL     1     -35.566  22.309   4.149  0.00  0.00    +0.289 C 
BRANCH  19  22
ATOM     20  O   UNL     1     -36.722  21.723   2.243  0.00  0.00    -0.123 OA
ATOM     21  O   UNL     1     -35.195  20.343   3.004  0.00  0.00    -0.123 OA
ATOM     22  N   UNL     1     -35.836  21.430   3.099  0.00  0.00    +0.093 N 
ENDBRANCH  19  22
ENDBRANCH   6  16
BRANCH  11  24
ATOM     23  O   UNL     1     -28.200  28.468   6.312  0.00  0.00    -0.275 OA
ATOM     24  N   UNL     1     -30.257  29.304   7.103  0.00  0.00    -0.284 N 
ATOM     25  C   UNL     1     -28.876  29.071   7.138  0.00  0.00    +0.227 C 
ATOM     26  C   UNL     1     -28.239  29.673   8.366  0.00  0.00    +0.095 C 
ATOM     27  H   UNL     1     -30.628  29.815   7.860  0.00  0.00    +0.155 HD
ENDBRANCH  11  24
TORSDOF 3
ENDMDL
MODEL 6
REMARK VINA RESULT:      -6.7      1.656      7.064
REMARK  Name = 192187
REMARK  3 active torsions:
REMARK  status: ('A' for Active; 'I' for Inactive)
REMARK    1  A    between atoms: C_6  and  C_16
REMARK    2  A    between atoms: C_11  and  N_24
REMARK    3  A    between atoms: C_19  and  N_22
REMARK                            x       y       z     vdW  Elec       q    Type
REMARK                         _______ _______ _______ _____ _____    ______ ____
ROOT
ATOM      1  S   UNL     1     -38.411  24.668   0.624  0.00  0.00    +0.063 S 
ATOM      2  O   UNL     1     -38.002  25.600  -0.407  0.00  0.00    -0.153 OA
ATOM      3  O   UNL     1     -38.800  23.307   0.313  0.00  0.00    -0.153 OA
ATOM      4  N   UNL     1     -37.218  24.661   1.847  0.00  0.00    -0.156 NA
ATOM      5  N   UNL     1     -38.792  24.856   3.697  0.00  0.00    -0.314 N 
ATOM      6  C   UNL     1     -37.661  24.115   3.156  0.00  0.00    +0.206 C 
ATOM      7  C   UNL     1     -39.769  25.386   1.495  0.00  0.00    +0.135 C 
ATOM      8  C   UNL     1     -39.795  25.384   2.898  0.00  0.00    +0.066 C 
ATOM      9  C   UNL     1     -40.893  26.006   3.515  0.00  0.00    +0.030 C 
ATOM     10  C   UNL     1     -40.787  25.963   0.731  0.00  0.00    +0.022 C 
ATOM     11  C   UNL     1     -41.920  26.584   2.763  0.00  0.00    +0.052 C 
ATOM     12  C   UNL     1     -41.868  26.560   1.373  0.00  0.00    +0.016 C 
ATOM     13  H   UNL     1     -36.909  25.622   1.994  0.00  0.00    +0.151 HD
ATOM     14  H   UNL     1     -38.846  24.988   4.671  0.00  0.00    +0.148 HD
ENDROOT
BRANCH   6  16
ATOM     15  O   UNL     1     -35.706  25.194   4.124  0.00  0.00    -0.434 OA
ATOM     16  C   UNL     1     -36.450  24.064   4.069  0.00  0.00    +0.160 C 
ATOM     17  C   UNL     1     -35.932  23.087   4.873  0.00  0.00    +0.041 C 
ATOM     18  C   UNL     1     -34.782  23.652   5.472  0.00  0.00    +0.066 C 
ATOM     19  C   UNL     1     -34.686  24.935   4.984  0.00  0.00    +0.289 C 
BRANCH  19  22
ATOM     20  O   UNL     1     -32.966  26.296   4.276  0.00  0.00    -0.123 OA
ATOM     21  O   UNL     1     -33.802  26.625   6.278  0.00  0.00    -0.123 OA
ATOM     22  N   UNL     1     -33.790  25.985   5.186  0.00  0.00    +0.093 N 
ENDBRANCH  19  22
ENDBRANCH   6  16
BRANCH  11  24
ATOM     23  O   UNL     1     -42.002  28.922   4.658  0.00  0.00    -0.275 OA
ATOM     24  N   UNL     1     -42.999  27.189   3.409  0.00  0.00    -0.284 N 
ATOM     25  C   UNL     1     -42.979  28.281   4.288  0.00  0.00    +0.227 C 
ATOM     26  C   UNL     1     -44.364  28.632   4.774  0.00  0.00    +0.095 C 
ATOM     27  H   UNL     1     -43.885  26.800   3.225  0.00  0.00    +0.155 HD
ENDBRANCH  11  24
TORSDOF 3
ENDMDL
MODEL 7
REMARK VINA RESULT:      -6.6      2.928      5.008
REMARK  Name = 192187
REMARK  3 active torsions:
REMARK  status: ('A' for Active; 'I' for Inactive)
REMARK    1  A    between atoms: C_6  and  C_16
REMARK    2  A    between atoms: C_11  and  N_24
REMARK    3  A    between atoms: C_19  and  N_22
REMARK                            x       y       z     vdW  Elec       q    Type
REMARK                         _______ _______ _______ _____ _____    ______ ____
ROOT
ATOM      1  S   UNL     1     -36.579  24.788   3.739  0.00  0.00    +0.063 S 
ATOM      2  O   UNL     1     -35.455  25.456   3.112  0.00  0.00    -0.153 OA
ATOM      3  O   UNL     1     -36.659  24.615   5.175  0.00  0.00    -0.153 OA
ATOM      4  N   UNL     1     -38.019  25.504   3.163  0.00  0.00    -0.156 NA
ATOM      5  N   UNL     1     -39.142  23.394   2.687  0.00  0.00    -0.314 N 
ATOM      6  C   UNL     1     -39.246  24.687   3.349  0.00  0.00    +0.206 C 
ATOM      7  C   UNL     1     -36.711  23.174   3.036  0.00  0.00    +0.135 C 
ATOM      8  C   UNL     1     -37.954  22.683   2.612  0.00  0.00    +0.066 C 
ATOM      9  C   UNL     1     -37.968  21.403   2.031  0.00  0.00    +0.030 C 
ATOM     10  C   UNL     1     -35.532  22.433   2.907  0.00  0.00    +0.022 C 
ATOM     11  C   UNL     1     -36.798  20.650   1.899  0.00  0.00    +0.052 C 
ATOM     12  C   UNL     1     -35.582  21.164   2.339  0.00  0.00    +0.016 C 
ATOM     13  H   UNL     1     -37.907  25.682   2.165  0.00  0.00    +0.151 HD
ATOM     14  H   UNL     1     -39.949  23.010   2.274  0.00  0.00    +0.148 HD
ENDROOT
BRANCH   6  16
ATOM     15  O   UNL     1     -40.929  26.375   3.836  0.00  0.00    -0.434 OA
ATOM     16  C   UNL     1     -40.431  25.525   2.907  0.00  0.00    +0.160 C 
ATOM     17  C   UNL     1     -41.125  25.608   1.732  0.00  0.00    +0.041 C 
ATOM     18  C   UNL     1     -42.130  26.581   1.947  0.00  0.00    +0.066 C 
ATOM     19  C   UNL     1     -41.969  27.017   3.242  0.00  0.00    +0.289 C 
BRANCH  19  22
ATOM     20  O   UNL     1     -41.970  28.841   4.651  0.00  0.00    -0.123 OA
ATOM     21  O   UNL     1     -43.893  27.911   4.146  0.00  0.00    -0.123 OA
ATOM     22  N   UNL     1     -42.632  27.952   4.039  0.00  0.00    +0.093 N 
ENDBRANCH  19  22
ENDBRANCH   6  16
BRANCH  11  24
ATOM     23  O   UNL     1     -36.757  19.814  -0.993  0.00  0.00    -0.275 OA
ATOM     24  N   UNL     1     -36.850  19.380   1.322  0.00  0.00    -0.284 N 
ATOM     25  C   UNL     1     -36.829  19.048  -0.040  0.00  0.00    +0.227 C 
ATOM     26  C   UNL     1     -36.903  17.556  -0.251  0.00  0.00    +0.095 C 
ATOM     27  H   UNL     1     -36.909  18.623   1.949  0.00  0.00    +0.155 HD
ENDBRANCH  11  24
TORSDOF 3
ENDMDL
MODEL 8
REMARK VINA RESULT:      -6.6      3.965      7.535
REMARK  Name = 192187
REMARK  3 active torsions:
REMARK  status: ('A' for Active; 'I' for Inactive)
REMARK    1  A    between atoms: C_6  and  C_16
REMARK    2  A    between atoms: C_11  and  N_24
REMARK    3  A    between atoms: C_19  and  N_22
REMARK                            x       y       z     vdW  Elec       q    Type
REMARK                         _______ _______ _______ _____ _____    ______ ____
ROOT
ATOM      1  S   UNL     1     -37.974  23.013   1.928  0.00  0.00    +0.063 S 
ATOM      2  O   UNL     1     -38.272  24.034   0.943  0.00  0.00    -0.153 OA
ATOM      3  O   UNL     1     -39.022  22.325   2.655  0.00  0.00    -0.153 OA
ATOM      4  N   UNL     1     -36.920  21.872   1.218  0.00  0.00    -0.156 NA
ATOM      5  N   UNL     1     -35.363  21.810   3.092  0.00  0.00    -0.314 N 
ATOM      6  C   UNL     1     -36.176  21.018   2.181  0.00  0.00    +0.206 C 
ATOM      7  C   UNL     1     -36.913  23.727   3.145  0.00  0.00    +0.135 C 
ATOM      8  C   UNL     1     -35.764  23.047   3.575  0.00  0.00    +0.066 C 
ATOM      9  C   UNL     1     -34.954  23.699   4.519  0.00  0.00    +0.030 C 
ATOM     10  C   UNL     1     -37.259  24.991   3.635  0.00  0.00    +0.022 C 
ATOM     11  C   UNL     1     -35.289  24.961   5.020  0.00  0.00    +0.052 C 
ATOM     12  C   UNL     1     -36.442  25.604   4.579  0.00  0.00    +0.016 C 
ATOM     13  H   UNL     1     -36.237  22.378   0.654  0.00  0.00    +0.151 HD
ATOM     14  H   UNL     1     -34.490  21.453   3.377  0.00  0.00    +0.148 HD
ENDROOT
BRANCH   6  16
ATOM     15  O   UNL     1     -34.089  19.865   1.694  0.00  0.00    -0.434 OA
ATOM     16  C   UNL     1     -35.401  19.988   1.382  0.00  0.00    +0.160 C 
ATOM     17  C   UNL     1     -35.756  19.129   0.379  0.00  0.00    +0.041 C 
ATOM     18  C   UNL     1     -34.577  18.421   0.044  0.00  0.00    +0.066 C 
ATOM     19  C   UNL     1     -33.591  18.905   0.871  0.00  0.00    +0.289 C 
BRANCH  19  22
ATOM     20  O   UNL     1     -31.368  19.305   0.411  0.00  0.00    -0.123 OA
ATOM     21  O   UNL     1     -31.872  17.680   1.799  0.00  0.00    -0.123 OA
ATOM     22  N   UNL     1     -32.234  18.620   1.032  0.00  0.00    +0.093 N 
ENDBRANCH  19  22
ENDBRANCH   6  16
BRANCH  11  24
ATOM     23  O   UNL     1     -33.413  27.299   4.742  0.00  0.00    -0.275 OA
ATOM     24  N   UNL     1     -34.464  25.577   5.961  0.00  0.00    -0.284 N 
ATOM     25  C   UNL     1     -33.604  26.668   5.775  0.00  0.00    +0.227 C 
ATOM     26  C   UNL     1     -32.882  27.034   7.048  0.00  0.00    +0.095 C 
ATOM     27  H   UNL     1     -34.489  25.198   6.870  0.00  0.00    +0.155 HD
ENDBRANCH  11  24
TORSDOF 3
ENDMDL
MODEL 9
REMARK VINA RESULT:      -6.4      2.612      7.471
REMARK  Name = 192187
REMARK  3 active torsions:
REMARK  status: ('A' for Active; 'I' for Inactive)
REMARK    1  A    between atoms: C_6  and  C_16
REMARK    2  A    between atoms: C_11  and  N_24
REMARK    3  A    between atoms: C_19  and  N_22
REMARK                            x       y       z     vdW  Elec       q    Type
REMARK                         _______ _______ _______ _____ _____    ______ ____
ROOT
ATOM      1  S   UNL     1     -41.551  25.520   0.903  0.00  0.00    +0.063 S 
ATOM      2  O   UNL     1     -41.685  26.276  -0.326  0.00  0.00    -0.153 OA
ATOM      3  O   UNL     1     -41.985  24.141   1.002  0.00  0.00    -0.153 OA
ATOM      4  N   UNL     1     -39.936  25.655   1.445  0.00  0.00    -0.156 NA
ATOM      5  N   UNL     1     -40.517  26.170   3.755  0.00  0.00    -0.314 N 
ATOM      6  C   UNL     1     -39.722  25.323   2.877  0.00  0.00    +0.206 C 
ATOM      7  C   UNL     1     -42.398  26.400   2.177  0.00  0.00    +0.135 C 
ATOM      8  C   UNL     1     -41.792  26.606   3.424  0.00  0.00    +0.066 C 
ATOM      9  C   UNL     1     -42.519  27.347   4.371  0.00  0.00    +0.030 C 
ATOM     10  C   UNL     1     -43.673  26.891   1.878  0.00  0.00    +0.022 C 
ATOM     11  C   UNL     1     -43.796  27.840   4.087  0.00  0.00    +0.052 C 
ATOM     12  C   UNL     1     -44.372  27.610   2.842  0.00  0.00    +0.016 C 
ATOM     13  H   UNL     1     -39.631  26.617   1.295  0.00  0.00    +0.151 HD
ATOM     14  H   UNL     1     -40.133  26.446   4.618  0.00  0.00    +0.148 HD
ENDROOT
BRANCH   6  16
ATOM     15  O   UNL     1     -37.781  24.546   4.122  0.00  0.00    -0.434 OA
ATOM     16  C   UNL     1     -38.230  25.368   3.144  0.00  0.00    +0.160 C 
ATOM     17  C   UNL     1     -37.207  26.086   2.589  0.00  0.00    +0.041 C 
ATOM     18  C   UNL     1     -36.037  25.680   3.274  0.00  0.00    +0.066 C 
ATOM     19  C   UNL     1     -36.438  24.743   4.197  0.00  0.00    +0.289 C 
BRANCH  19  22
ATOM     20  O   UNL     1     -34.671  24.388   5.634  0.00  0.00    -0.123 OA
ATOM     21  O   UNL     1     -36.268  22.884   5.550  0.00  0.00    -0.123 OA
ATOM     22  N   UNL     1     -35.772  23.980   5.157  0.00  0.00    +0.093 N 
ENDBRANCH  19  22
ENDBRANCH   6  16
BRANCH  11  24
ATOM     23  O   UNL     1     -42.920  30.163   5.791  0.00  0.00    -0.275 OA
ATOM     24  N   UNL     1     -44.491  28.568   5.053  0.00  0.00    -0.284 N 
ATOM     25  C   UNL     1     -44.031  29.646   5.822  0.00  0.00    +0.227 C 
ATOM     26  C   UNL     1     -45.097  30.159   6.759  0.00  0.00    +0.095 C 
ATOM     27  H   UNL     1     -45.422  28.290   5.215  0.00  0.00    +0.155 HD
ENDBRANCH  11  24
TORSDOF 3
ENDMDL
