MODEL 1
REMARK VINA RESULT:      -6.6      0.000      0.000
REMARK  Name = 194533
REMARK  11 active torsions:
REMARK  status: ('A' for Active; 'I' for Inactive)
REMARK    1  A    between atoms: N_3  and  C_23
REMARK    2  A    between atoms: C_13  and  S_20
REMARK    3  A    between atoms: S_20  and  C_22
REMARK    4  A    between atoms: C_23  and  C_24
REMARK    5  A    between atoms: C_24  and  O_25
REMARK    6  A    between atoms: C_24  and  C_27
REMARK    7  A    between atoms: C_27  and  O_28
REMARK    8  A    between atoms: C_27  and  C_30
REMARK    9  A    between atoms: C_30  and  O_31
REMARK   10  A    between atoms: C_30  and  C_33
REMARK   11  A    between atoms: C_33  and  O_34
REMARK                            x       y       z     vdW  Elec       q    Type
REMARK                         _______ _______ _______ _____ _____    ______ ____
ROOT
ATOM      1  O   UNL     1     -40.287  20.258  -0.664  0.00  0.00    -0.266 OA
ATOM      2  O   UNL     1     -40.438  23.546   2.544  0.00  0.00    -0.193 OA
ATOM      3  N   UNL     1     -36.449  21.169   2.130  0.00  0.00    -0.270 N 
ATOM      4  N   UNL     1     -37.743  19.729   0.061  0.00  0.00    -0.395 NA
ATOM      5  N   UNL     1     -38.487  22.389   2.346  0.00  0.00    -0.303 NA
ATOM      6  N   UNL     1     -40.384  21.927   0.955  0.00  0.00    -0.196 N 
ATOM      7  C   UNL     1     -35.753  20.144   1.452  0.00  0.00    +0.150 C 
ATOM      8  C   UNL     1     -37.762  21.468   1.784  0.00  0.00    +0.232 C 
ATOM      9  C   UNL     1     -36.418  19.442   0.425  0.00  0.00    +0.138 C 
ATOM     10  C   UNL     1     -34.425  19.780   1.743  0.00  0.00    -0.004 C 
ATOM     11  C   UNL     1     -38.389  20.666   0.677  0.00  0.00    +0.230 C 
ATOM     12  C   UNL     1     -33.779  18.758   1.042  0.00  0.00    -0.027 C 
ATOM     13  C   UNL     1     -35.761  18.418  -0.273  0.00  0.00    +0.062 C 
ATOM     14  C   UNL     1     -34.447  18.077   0.033  0.00  0.00    -0.017 C 
ATOM     15  C   UNL     1     -39.794  20.916   0.236  0.00  0.00    +0.293 C 
ATOM     16  C   UNL     1     -32.368  18.421   1.401  0.00  0.00    +0.030 C 
ATOM     17  C   UNL     1     -33.727  16.987  -0.699  0.00  0.00    +0.031 C 
ATOM     18  C   UNL     1     -39.787  22.663   1.980  0.00  0.00    +0.273 C 
ATOM     19  H   UNL     1     -41.315  22.155   0.725  0.00  0.00    +0.169 HD
ENDROOT
BRANCH  13  20
ATOM     20  S   UNL     1     -36.618  17.523  -1.585  0.00  0.00    -0.007 S 
BRANCH  20  22
ATOM     21  N   UNL     1     -37.795  15.554   0.107  0.00  0.00    -0.183 NA
ATOM     22  C   UNL     1     -37.323  16.362  -0.580  0.00  0.00    +0.138 C 
ENDBRANCH  20  22
ENDBRANCH  13  20
BRANCH   3  23
ATOM     23  C   UNL     1     -35.751  21.889   3.194  0.00  0.00    +0.126 C 
BRANCH  23  24
ATOM     24  C   UNL     1     -35.715  23.389   2.876  0.00  0.00    +0.159 C 
BRANCH  24  25
ATOM     25  O   UNL     1     -34.580  23.651   2.048  0.00  0.00    -0.380 OA
ATOM     26  H   UNL     1     -34.070  22.834   1.931  0.00  0.00    +0.211 HD
ENDBRANCH  24  25
BRANCH  24  27
ATOM     27  C   UNL     1     -35.633  24.263   4.143  0.00  0.00    +0.168 C 
BRANCH  27  28
ATOM     28  O   UNL     1     -36.300  23.608   5.221  0.00  0.00    -0.379 OA
ATOM     29  H   UNL     1     -35.887  23.863   6.061  0.00  0.00    +0.211 HD
ENDBRANCH  27  28
BRANCH  27  30
ATOM     30  C   UNL     1     -36.255  25.659   3.953  0.00  0.00    +0.169 C 
BRANCH  30  31
ATOM     31  O   UNL     1     -36.459  26.258   5.235  0.00  0.00    -0.379 OA
ATOM     32  H   UNL     1     -36.772  25.585   5.860  0.00  0.00    +0.211 HD
ENDBRANCH  30  31
BRANCH  30  33
ATOM     33  C   UNL     1     -37.597  25.604   3.226  0.00  0.00    +0.169 C 
BRANCH  33  34
ATOM     34  O   UNL     1     -38.569  25.036   4.098  0.00  0.00    -0.379 OA
ATOM     35  H   UNL     1     -39.398  25.535   4.028  0.00  0.00    +0.211 HD
ENDBRANCH  33  34
ENDBRANCH  30  33
ENDBRANCH  27  30
ENDBRANCH  24  27
ENDBRANCH  23  24
ENDBRANCH   3  23
TORSDOF 11
ENDMDL
MODEL 2
REMARK VINA RESULT:      -6.3      1.663      1.782
REMARK  Name = 194533
REMARK  11 active torsions:
REMARK  status: ('A' for Active; 'I' for Inactive)
REMARK    1  A    between atoms: N_3  and  C_23
REMARK    2  A    between atoms: C_13  and  S_20
REMARK    3  A    between atoms: S_20  and  C_22
REMARK    4  A    between atoms: C_23  and  C_24
REMARK    5  A    between atoms: C_24  and  O_25
REMARK    6  A    between atoms: C_24  and  C_27
REMARK    7  A    between atoms: C_27  and  O_28
REMARK    8  A    between atoms: C_27  and  C_30
REMARK    9  A    between atoms: C_30  and  O_31
REMARK   10  A    between atoms: C_30  and  C_33
REMARK   11  A    between atoms: C_33  and  O_34
REMARK                            x       y       z     vdW  Elec       q    Type
REMARK                         _______ _______ _______ _____ _____    ______ ____
ROOT
ATOM      1  O   UNL     1     -40.694  21.000   0.609  0.00  0.00    -0.266 OA
ATOM      2  O   UNL     1     -39.874  24.815   3.038  0.00  0.00    -0.193 OA
ATOM      3  N   UNL     1     -36.223  22.073   2.097  0.00  0.00    -0.270 N 
ATOM      4  N   UNL     1     -38.069  20.398   0.751  0.00  0.00    -0.395 NA
ATOM      5  N   UNL     1     -38.087  23.480   2.581  0.00  0.00    -0.303 NA
ATOM      6  N   UNL     1     -40.300  22.936   1.837  0.00  0.00    -0.196 N 
ATOM      7  C   UNL     1     -35.767  20.887   1.479  0.00  0.00    +0.150 C 
ATOM      8  C   UNL     1     -37.569  22.414   2.046  0.00  0.00    +0.232 C 
ATOM      9  C   UNL     1     -36.706  20.070   0.815  0.00  0.00    +0.138 C 
ATOM     10  C   UNL     1     -34.423  20.471   1.488  0.00  0.00    -0.004 C 
ATOM     11  C   UNL     1     -38.495  21.481   1.315  0.00  0.00    +0.230 C 
ATOM     12  C   UNL     1     -34.023  19.288   0.861  0.00  0.00    -0.027 C 
ATOM     13  C   UNL     1     -36.293  18.884   0.188  0.00  0.00    +0.062 C 
ATOM     14  C   UNL     1     -34.958  18.494   0.210  0.00  0.00    -0.017 C 
ATOM     15  C   UNL     1     -39.957  21.766   1.205  0.00  0.00    +0.293 C 
ATOM     16  C   UNL     1     -32.579  18.904   0.908  0.00  0.00    +0.030 C 
ATOM     17  C   UNL     1     -34.496  17.233  -0.452  0.00  0.00    +0.031 C 
ATOM     18  C   UNL     1     -39.427  23.792   2.512  0.00  0.00    +0.273 C 
ATOM     19  H   UNL     1     -41.250  23.196   1.812  0.00  0.00    +0.169 HD
ENDROOT
BRANCH  13  20
ATOM     20  S   UNL     1     -37.498  17.842  -0.660  0.00  0.00    -0.007 S 
BRANCH  20  22
ATOM     21  N   UNL     1     -37.248  19.095  -3.208  0.00  0.00    -0.183 NA
ATOM     22  C   UNL     1     -37.356  18.593  -2.168  0.00  0.00    +0.138 C 
ENDBRANCH  20  22
ENDBRANCH  13  20
BRANCH   3  23
ATOM     23  C   UNL     1     -35.242  22.912   2.784  0.00  0.00    +0.126 C 
BRANCH  23  24
ATOM     24  C   UNL     1     -35.161  22.521   4.265  0.00  0.00    +0.159 C 
BRANCH  24  25
ATOM     25  O   UNL     1     -36.473  22.180   4.716  0.00  0.00    -0.380 OA
ATOM     26  H   UNL     1     -36.592  21.218   4.670  0.00  0.00    +0.211 HD
ENDBRANCH  24  25
BRANCH  24  27
ATOM     27  C   UNL     1     -34.597  23.651   5.149  0.00  0.00    +0.168 C 
BRANCH  27  28
ATOM     28  O   UNL     1     -35.208  23.602   6.436  0.00  0.00    -0.379 OA
ATOM     29  H   UNL     1     -35.901  22.923   6.441  0.00  0.00    +0.211 HD
ENDBRANCH  27  28
BRANCH  27  30
ATOM     30  C   UNL     1     -34.820  25.052   4.549  0.00  0.00    +0.169 C 
BRANCH  30  31
ATOM     31  O   UNL     1     -33.634  25.830   4.729  0.00  0.00    -0.379 OA
ATOM     32  H   UNL     1     -33.214  25.983   3.868  0.00  0.00    +0.211 HD
ENDBRANCH  30  31
BRANCH  30  33
ATOM     33  C   UNL     1     -35.986  25.788   5.207  0.00  0.00    +0.169 C 
BRANCH  33  34
ATOM     34  O   UNL     1     -37.202  25.157   4.822  0.00  0.00    -0.379 OA
ATOM     35  H   UNL     1     -37.098  24.193   4.874  0.00  0.00    +0.211 HD
ENDBRANCH  33  34
ENDBRANCH  30  33
ENDBRANCH  27  30
ENDBRANCH  24  27
ENDBRANCH  23  24
ENDBRANCH   3  23
TORSDOF 11
ENDMDL
MODEL 3
REMARK VINA RESULT:      -6.0      4.282      8.276
REMARK  Name = 194533
REMARK  11 active torsions:
REMARK  status: ('A' for Active; 'I' for Inactive)
REMARK    1  A    between atoms: N_3  and  C_23
REMARK    2  A    between atoms: C_13  and  S_20
REMARK    3  A    between atoms: S_20  and  C_22
REMARK    4  A    between atoms: C_23  and  C_24
REMARK    5  A    between atoms: C_24  and  O_25
REMARK    6  A    between atoms: C_24  and  C_27
REMARK    7  A    between atoms: C_27  and  O_28
REMARK    8  A    between atoms: C_27  and  C_30
REMARK    9  A    between atoms: C_30  and  O_31
REMARK   10  A    between atoms: C_30  and  C_33
REMARK   11  A    between atoms: C_33  and  O_34
REMARK                            x       y       z     vdW  Elec       q    Type
REMARK                         _______ _______ _______ _____ _____    ______ ____
ROOT
ATOM      1  O   UNL     1     -34.016  26.484   5.929  0.00  0.00    -0.266 OA
ATOM      2  O   UNL     1     -35.919  22.302   6.071  0.00  0.00    -0.193 OA
ATOM      3  N   UNL     1     -37.056  25.029   2.465  0.00  0.00    -0.270 N 
ATOM      4  N   UNL     1     -35.345  26.962   3.632  0.00  0.00    -0.395 NA
ATOM      5  N   UNL     1     -36.477  23.629   4.307  0.00  0.00    -0.303 NA
ATOM      6  N   UNL     1     -34.969  24.363   6.020  0.00  0.00    -0.196 N 
ATOM      7  C   UNL     1     -36.886  26.282   1.834  0.00  0.00    +0.150 C 
ATOM      8  C   UNL     1     -36.388  24.748   3.651  0.00  0.00    +0.232 C 
ATOM      9  C   UNL     1     -36.029  27.227   2.435  0.00  0.00    +0.138 C 
ATOM     10  C   UNL     1     -37.527  26.643   0.636  0.00  0.00    -0.004 C 
ATOM     11  C   UNL     1     -35.495  25.818   4.216  0.00  0.00    +0.230 C 
ATOM     12  C   UNL     1     -37.325  27.897   0.051  0.00  0.00    -0.027 C 
ATOM     13  C   UNL     1     -35.833  28.483   1.840  0.00  0.00    +0.062 C 
ATOM     14  C   UNL     1     -36.478  28.817   0.653  0.00  0.00    -0.017 C 
ATOM     15  C   UNL     1     -34.736  25.607   5.485  0.00  0.00    +0.293 C 
ATOM     16  C   UNL     1     -38.037  28.218  -1.224  0.00  0.00    +0.030 C 
ATOM     17  C   UNL     1     -36.283  30.151   0.001  0.00  0.00    +0.031 C 
ATOM     18  C   UNL     1     -35.801  23.380   5.482  0.00  0.00    +0.273 C 
ATOM     19  H   UNL     1     -34.504  24.144   6.861  0.00  0.00    +0.169 HD
ENDROOT
BRANCH  13  20
ATOM     20  S   UNL     1     -34.735  29.689   2.613  0.00  0.00    -0.007 S 
BRANCH  20  22
ATOM     21  N   UNL     1     -32.339  28.775   1.369  0.00  0.00    -0.183 NA
ATOM     22  C   UNL     1     -33.319  29.147   1.866  0.00  0.00    +0.138 C 
ENDBRANCH  20  22
ENDBRANCH  13  20
BRANCH   3  23
ATOM     23  C   UNL     1     -37.948  24.056   1.835  0.00  0.00    +0.126 C 
BRANCH  23  24
ATOM     24  C   UNL     1     -37.130  23.025   1.049  0.00  0.00    +0.159 C 
BRANCH  24  25
ATOM     25  O   UNL     1     -37.300  23.280  -0.347  0.00  0.00    -0.380 OA
ATOM     26  H   UNL     1     -37.787  22.546  -0.753  0.00  0.00    +0.211 HD
ENDBRANCH  24  25
BRANCH  24  27
ATOM     27  C   UNL     1     -37.549  21.574   1.356  0.00  0.00    +0.168 C 
BRANCH  27  28
ATOM     28  O   UNL     1     -38.150  21.513   2.648  0.00  0.00    -0.379 OA
ATOM     29  H   UNL     1     -38.068  22.375   3.085  0.00  0.00    +0.211 HD
ENDBRANCH  27  28
BRANCH  27  30
ATOM     30  C   UNL     1     -36.370  20.584   1.311  0.00  0.00    +0.169 C 
BRANCH  30  31
ATOM     31  O   UNL     1     -36.851  19.272   1.612  0.00  0.00    -0.379 OA
ATOM     32  H   UNL     1     -37.812  19.242   1.483  0.00  0.00    +0.211 HD
ENDBRANCH  30  31
BRANCH  30  33
ATOM     33  C   UNL     1     -35.274  20.940   2.315  0.00  0.00    +0.169 C 
BRANCH  33  34
ATOM     34  O   UNL     1     -35.709  20.570   3.619  0.00  0.00    -0.379 OA
ATOM     35  H   UNL     1     -35.195  21.059   4.282  0.00  0.00    +0.211 HD
ENDBRANCH  33  34
ENDBRANCH  30  33
ENDBRANCH  27  30
ENDBRANCH  24  27
ENDBRANCH  23  24
ENDBRANCH   3  23
TORSDOF 11
ENDMDL
MODEL 4
REMARK VINA RESULT:      -5.7      5.922      9.579
REMARK  Name = 194533
REMARK  11 active torsions:
REMARK  status: ('A' for Active; 'I' for Inactive)
REMARK    1  A    between atoms: N_3  and  C_23
REMARK    2  A    between atoms: C_13  and  S_20
REMARK    3  A    between atoms: S_20  and  C_22
REMARK    4  A    between atoms: C_23  and  C_24
REMARK    5  A    between atoms: C_24  and  O_25
REMARK    6  A    between atoms: C_24  and  C_27
REMARK    7  A    between atoms: C_27  and  O_28
REMARK    8  A    between atoms: C_27  and  C_30
REMARK    9  A    between atoms: C_30  and  O_31
REMARK   10  A    between atoms: C_30  and  C_33
REMARK   11  A    between atoms: C_33  and  O_34
REMARK                            x       y       z     vdW  Elec       q    Type
REMARK                         _______ _______ _______ _____ _____    ______ ____
ROOT
ATOM      1  O   UNL     1     -33.028  31.212   3.673  0.00  0.00    -0.266 OA
ATOM      2  O   UNL     1     -31.916  27.380   5.955  0.00  0.00    -0.193 OA
ATOM      3  N   UNL     1     -35.320  27.049   2.786  0.00  0.00    -0.270 N 
ATOM      4  N   UNL     1     -34.897  29.812   2.322  0.00  0.00    -0.395 NA
ATOM      5  N   UNL     1     -33.578  27.212   4.408  0.00  0.00    -0.303 NA
ATOM      6  N   UNL     1     -32.450  29.283   4.839  0.00  0.00    -0.196 N 
ATOM      7  C   UNL     1     -36.102  27.723   1.822  0.00  0.00    +0.150 C 
ATOM      8  C   UNL     1     -34.348  27.739   3.503  0.00  0.00    +0.232 C 
ATOM      9  C   UNL     1     -35.873  29.098   1.609  0.00  0.00    +0.138 C 
ATOM     10  C   UNL     1     -37.105  27.098   1.058  0.00  0.00    -0.004 C 
ATOM     11  C   UNL     1     -34.175  29.203   3.207  0.00  0.00    +0.230 C 
ATOM     12  C   UNL     1     -37.853  27.809   0.116  0.00  0.00    -0.027 C 
ATOM     13  C   UNL     1     -36.629  29.803   0.660  0.00  0.00    +0.062 C 
ATOM     14  C   UNL     1     -37.614  29.162  -0.084  0.00  0.00    -0.017 C 
ATOM     15  C   UNL     1     -33.157  30.026   3.925  0.00  0.00    +0.293 C 
ATOM     16  C   UNL     1     -38.903  27.084  -0.663  0.00  0.00    +0.030 C 
ATOM     17  C   UNL     1     -38.433  29.895  -1.101  0.00  0.00    +0.031 C 
ATOM     18  C   UNL     1     -32.623  27.923   5.102  0.00  0.00    +0.273 C 
ATOM     19  H   UNL     1     -31.757  29.753   5.357  0.00  0.00    +0.169 HD
ENDROOT
BRANCH  13  20
ATOM     20  S   UNL     1     -36.331  31.563   0.392  0.00  0.00    -0.007 S 
BRANCH  20  22
ATOM     21  N   UNL     1     -38.637  32.486   1.790  0.00  0.00    -0.183 NA
ATOM     22  C   UNL     1     -37.695  32.106   1.230  0.00  0.00    +0.138 C 
ENDBRANCH  20  22
ENDBRANCH  13  20
BRANCH   3  23
ATOM     23  C   UNL     1     -35.566  25.624   3.001  0.00  0.00    +0.126 C 
BRANCH  23  24
ATOM     24  C   UNL     1     -36.495  25.427   4.205  0.00  0.00    +0.159 C 
BRANCH  24  25
ATOM     25  O   UNL     1     -36.520  26.639   4.961  0.00  0.00    -0.380 OA
ATOM     26  H   UNL     1     -37.036  26.505   5.772  0.00  0.00    +0.211 HD
ENDBRANCH  24  25
BRANCH  24  27
ATOM     27  C   UNL     1     -36.048  24.268   5.117  0.00  0.00    +0.168 C 
BRANCH  27  28
ATOM     28  O   UNL     1     -34.843  24.626   5.791  0.00  0.00    -0.379 OA
ATOM     29  H   UNL     1     -34.781  24.136   6.626  0.00  0.00    +0.211 HD
ENDBRANCH  27  28
BRANCH  27  30
ATOM     30  C   UNL     1     -35.813  22.954   4.349  0.00  0.00    +0.169 C 
BRANCH  30  31
ATOM     31  O   UNL     1     -37.037  22.548   3.732  0.00  0.00    -0.379 OA
ATOM     32  H   UNL     1     -37.322  23.229   3.102  0.00  0.00    +0.211 HD
ENDBRANCH  30  31
BRANCH  30  33
ATOM     33  C   UNL     1     -35.334  21.825   5.261  0.00  0.00    +0.169 C 
BRANCH  33  34
ATOM     34  O   UNL     1     -36.045  21.896   6.492  0.00  0.00    -0.379 OA
ATOM     35  H   UNL     1     -36.197  22.826   6.725  0.00  0.00    +0.211 HD
ENDBRANCH  33  34
ENDBRANCH  30  33
ENDBRANCH  27  30
ENDBRANCH  24  27
ENDBRANCH  23  24
ENDBRANCH   3  23
TORSDOF 11
ENDMDL
MODEL 5
REMARK VINA RESULT:      -5.7      5.096      8.885
REMARK  Name = 194533
REMARK  11 active torsions:
REMARK  status: ('A' for Active; 'I' for Inactive)
REMARK    1  A    between atoms: N_3  and  C_23
REMARK    2  A    between atoms: C_13  and  S_20
REMARK    3  A    between atoms: S_20  and  C_22
REMARK    4  A    between atoms: C_23  and  C_24
REMARK    5  A    between atoms: C_24  and  O_25
REMARK    6  A    between atoms: C_24  and  C_27
REMARK    7  A    between atoms: C_27  and  O_28
REMARK    8  A    between atoms: C_27  and  C_30
REMARK    9  A    between atoms: C_30  and  O_31
REMARK   10  A    between atoms: C_30  and  C_33
REMARK   11  A    between atoms: C_33  and  O_34
REMARK                            x       y       z     vdW  Elec       q    Type
REMARK                         _______ _______ _______ _____ _____    ______ ____
ROOT
ATOM      1  O   UNL     1     -33.734  26.714   5.909  0.00  0.00    -0.266 OA
ATOM      2  O   UNL     1     -36.232  22.888   5.409  0.00  0.00    -0.193 OA
ATOM      3  N   UNL     1     -36.817  26.236   2.218  0.00  0.00    -0.270 N 
ATOM      4  N   UNL     1     -34.889  27.706   3.683  0.00  0.00    -0.395 NA
ATOM      5  N   UNL     1     -36.521  24.519   3.848  0.00  0.00    -0.303 NA
ATOM      6  N   UNL     1     -34.989  24.769   5.674  0.00  0.00    -0.196 N 
ATOM      7  C   UNL     1     -36.442  27.525   1.779  0.00  0.00    +0.150 C 
ATOM      8  C   UNL     1     -36.244  25.693   3.362  0.00  0.00    +0.232 C 
ATOM      9  C   UNL     1     -35.480  28.236   2.526  0.00  0.00    +0.138 C 
ATOM     10  C   UNL     1     -36.976  28.144   0.635  0.00  0.00    -0.004 C 
ATOM     11  C   UNL     1     -35.227  26.526   4.092  0.00  0.00    +0.230 C 
ATOM     12  C   UNL     1     -36.571  29.423   0.242  0.00  0.00    -0.027 C 
ATOM     13  C   UNL     1     -35.080  29.520   2.122  0.00  0.00    +0.062 C 
ATOM     14  C   UNL     1     -35.622  30.111   0.986  0.00  0.00    -0.017 C 
ATOM     15  C   UNL     1     -34.557  26.027   5.330  0.00  0.00    +0.293 C 
ATOM     16  C   UNL     1     -37.178  30.023  -0.985  0.00  0.00    +0.030 C 
ATOM     17  C   UNL     1     -35.209  31.479   0.538  0.00  0.00    +0.031 C 
ATOM     18  C   UNL     1     -35.935  24.008   4.985  0.00  0.00    +0.273 C 
ATOM     19  H   UNL     1     -34.595  24.366   6.482  0.00  0.00    +0.169 HD
ENDROOT
BRANCH  13  20
ATOM     20  S   UNL     1     -33.848  30.426   3.081  0.00  0.00    -0.007 S 
BRANCH  20  22
ATOM     21  N   UNL     1     -31.585  29.394   1.690  0.00  0.00    -0.183 NA
ATOM     22  C   UNL     1     -32.500  29.821   2.260  0.00  0.00    +0.138 C 
ENDBRANCH  20  22
ENDBRANCH  13  20
BRANCH   3  23
ATOM     23  C   UNL     1     -37.817  25.506   1.439  0.00  0.00    +0.126 C 
BRANCH  23  24
ATOM     24  C   UNL     1     -39.214  25.735   2.030  0.00  0.00    +0.159 C 
BRANCH  24  25
ATOM     25  O   UNL     1     -39.081  26.527   3.212  0.00  0.00    -0.380 OA
ATOM     26  H   UNL     1     -39.517  27.383   3.079  0.00  0.00    +0.211 HD
ENDBRANCH  24  25
BRANCH  24  27
ATOM     27  C   UNL     1     -39.934  24.418   2.378  0.00  0.00    +0.168 C 
BRANCH  27  28
ATOM     28  O   UNL     1     -39.461  23.930   3.632  0.00  0.00    -0.379 OA
ATOM     29  H   UNL     1     -40.060  24.218   4.339  0.00  0.00    +0.211 HD
ENDBRANCH  27  28
BRANCH  27  30
ATOM     30  C   UNL     1     -39.734  23.322   1.315  0.00  0.00    +0.169 C 
BRANCH  30  31
ATOM     31  O   UNL     1     -40.999  23.003   0.730  0.00  0.00    -0.379 OA
ATOM     32  H   UNL     1     -41.093  23.474  -0.114  0.00  0.00    +0.211 HD
ENDBRANCH  30  31
BRANCH  30  33
ATOM     33  C   UNL     1     -39.136  22.044   1.901  0.00  0.00    +0.169 C 
BRANCH  33  34
ATOM     34  O   UNL     1     -40.191  21.130   2.180  0.00  0.00    -0.379 OA
ATOM     35  H   UNL     1     -40.631  21.385   3.006  0.00  0.00    +0.211 HD
ENDBRANCH  33  34
ENDBRANCH  30  33
ENDBRANCH  27  30
ENDBRANCH  24  27
ENDBRANCH  23  24
ENDBRANCH   3  23
TORSDOF 11
ENDMDL
MODEL 6
REMARK VINA RESULT:      -5.7      5.132      8.648
REMARK  Name = 194533
REMARK  11 active torsions:
REMARK  status: ('A' for Active; 'I' for Inactive)
REMARK    1  A    between atoms: N_3  and  C_23
REMARK    2  A    between atoms: C_13  and  S_20
REMARK    3  A    between atoms: S_20  and  C_22
REMARK    4  A    between atoms: C_23  and  C_24
REMARK    5  A    between atoms: C_24  and  O_25
REMARK    6  A    between atoms: C_24  and  C_27
REMARK    7  A    between atoms: C_27  and  O_28
REMARK    8  A    between atoms: C_27  and  C_30
REMARK    9  A    between atoms: C_30  and  O_31
REMARK   10  A    between atoms: C_30  and  C_33
REMARK   11  A    between atoms: C_33  and  O_34
REMARK                            x       y       z     vdW  Elec       q    Type
REMARK                         _______ _______ _______ _____ _____    ______ ____
ROOT
ATOM      1  O   UNL     1     -39.375  27.526  -1.054  0.00  0.00    -0.266 OA
ATOM      2  O   UNL     1     -38.895  23.475   1.063  0.00  0.00    -0.193 OA
ATOM      3  N   UNL     1     -36.077  26.929   2.429  0.00  0.00    -0.270 N 
ATOM      4  N   UNL     1     -37.394  28.515   0.486  0.00  0.00    -0.395 NA
ATOM      5  N   UNL     1     -37.517  25.158   1.735  0.00  0.00    -0.303 NA
ATOM      6  N   UNL     1     -39.148  25.467   0.006  0.00  0.00    -0.196 N 
ATOM      7  C   UNL     1     -35.694  28.277   2.254  0.00  0.00    +0.150 C 
ATOM      8  C   UNL     1     -37.093  26.384   1.651  0.00  0.00    +0.232 C 
ATOM      9  C   UNL     1     -36.366  29.046   1.281  0.00  0.00    +0.138 C 
ATOM     10  C   UNL     1     -34.676  28.900   2.998  0.00  0.00    -0.004 C 
ATOM     11  C   UNL     1     -37.750  27.281   0.640  0.00  0.00    +0.230 C 
ATOM     12  C   UNL     1     -34.335  30.239   2.787  0.00  0.00    -0.027 C 
ATOM     13  C   UNL     1     -36.015  30.390   1.077  0.00  0.00    +0.062 C 
ATOM     14  C   UNL     1     -35.006  30.985   1.826  0.00  0.00    -0.017 C 
ATOM     15  C   UNL     1     -38.851  26.786  -0.239  0.00  0.00    +0.293 C 
ATOM     16  C   UNL     1     -33.244  30.841   3.612  0.00  0.00    +0.030 C 
ATOM     17  C   UNL     1     -34.617  32.417   1.625  0.00  0.00    +0.031 C 
ATOM     18  C   UNL     1     -38.528  24.647   0.950  0.00  0.00    +0.273 C 
ATOM     19  H   UNL     1     -39.865  25.062  -0.535  0.00  0.00    +0.169 HD
ENDROOT
BRANCH  13  20
ATOM     20  S   UNL     1     -36.877  31.370  -0.170  0.00  0.00    -0.007 S 
BRANCH  20  22
ATOM     21  N   UNL     1     -38.970  32.256   1.551  0.00  0.00    -0.183 NA
ATOM     22  C   UNL     1     -38.125  31.893   0.843  0.00  0.00    +0.138 C 
ENDBRANCH  20  22
ENDBRANCH  13  20
BRANCH   3  23
ATOM     23  C   UNL     1     -35.374  26.138   3.439  0.00  0.00    +0.126 C 
BRANCH  23  24
ATOM     24  C   UNL     1     -36.361  25.659   4.511  0.00  0.00    +0.159 C 
BRANCH  24  25
ATOM     25  O   UNL     1     -36.520  26.698   5.478  0.00  0.00    -0.380 OA
ATOM     26  H   UNL     1     -37.168  26.423   6.145  0.00  0.00    +0.211 HD
ENDBRANCH  24  25
BRANCH  24  27
ATOM     27  C   UNL     1     -35.890  24.373   5.219  0.00  0.00    +0.168 C 
BRANCH  27  28
ATOM     28  O   UNL     1     -34.567  24.557   5.716  0.00  0.00    -0.379 OA
ATOM     29  H   UNL     1     -33.932  24.139   5.114  0.00  0.00    +0.211 HD
ENDBRANCH  27  28
BRANCH  27  30
ATOM     30  C   UNL     1     -35.905  23.139   4.298  0.00  0.00    +0.169 C 
BRANCH  30  31
ATOM     31  O   UNL     1     -37.228  22.949   3.792  0.00  0.00    -0.379 OA
ATOM     32  H   UNL     1     -37.358  23.506   3.008  0.00  0.00    +0.211 HD
ENDBRANCH  30  31
BRANCH  30  33
ATOM     33  C   UNL     1     -35.477  21.865   5.026  0.00  0.00    +0.169 C 
BRANCH  33  34
ATOM     34  O   UNL     1     -36.018  21.886   6.343  0.00  0.00    -0.379 OA
ATOM     35  H   UNL     1     -35.295  21.909   6.989  0.00  0.00    +0.211 HD
ENDBRANCH  33  34
ENDBRANCH  30  33
ENDBRANCH  27  30
ENDBRANCH  24  27
ENDBRANCH  23  24
ENDBRANCH   3  23
TORSDOF 11
ENDMDL
MODEL 7
REMARK VINA RESULT:      -5.7      4.906      7.673
REMARK  Name = 194533
REMARK  11 active torsions:
REMARK  status: ('A' for Active; 'I' for Inactive)
REMARK    1  A    between atoms: N_3  and  C_23
REMARK    2  A    between atoms: C_13  and  S_20
REMARK    3  A    between atoms: S_20  and  C_22
REMARK    4  A    between atoms: C_23  and  C_24
REMARK    5  A    between atoms: C_24  and  O_25
REMARK    6  A    between atoms: C_24  and  C_27
REMARK    7  A    between atoms: C_27  and  O_28
REMARK    8  A    between atoms: C_27  and  C_30
REMARK    9  A    between atoms: C_30  and  O_31
REMARK   10  A    between atoms: C_30  and  C_33
REMARK   11  A    between atoms: C_33  and  O_34
REMARK                            x       y       z     vdW  Elec       q    Type
REMARK                         _______ _______ _______ _____ _____    ______ ____
ROOT
ATOM      1  O   UNL     1     -40.038  27.839  -0.845  0.00  0.00    -0.266 OA
ATOM      2  O   UNL     1     -41.596  24.024   1.192  0.00  0.00    -0.193 OA
ATOM      3  N   UNL     1     -37.500  25.693   2.665  0.00  0.00    -0.270 N 
ATOM      4  N   UNL     1     -37.858  27.741   0.740  0.00  0.00    -0.395 NA
ATOM      5  N   UNL     1     -39.596  24.835   1.916  0.00  0.00    -0.303 NA
ATOM      6  N   UNL     1     -40.845  25.908   0.173  0.00  0.00    -0.196 N 
ATOM      7  C   UNL     1     -36.517  26.697   2.523  0.00  0.00    +0.150 C 
ATOM      8  C   UNL     1     -38.636  25.710   1.864  0.00  0.00    +0.232 C 
ATOM      9  C   UNL     1     -36.718  27.706   1.558  0.00  0.00    +0.138 C 
ATOM     10  C   UNL     1     -35.341  26.749   3.293  0.00  0.00    -0.004 C 
ATOM     11  C   UNL     1     -38.764  26.826   0.863  0.00  0.00    +0.230 C 
ATOM     12  C   UNL     1     -34.397  27.765   3.115  0.00  0.00    -0.027 C 
ATOM     13  C   UNL     1     -35.765  28.721   1.387  0.00  0.00    +0.062 C 
ATOM     14  C   UNL     1     -34.609  28.752   2.161  0.00  0.00    -0.017 C 
ATOM     15  C   UNL     1     -39.949  26.928  -0.040  0.00  0.00    +0.293 C 
ATOM     16  C   UNL     1     -33.168  27.761   3.966  0.00  0.00    +0.030 C 
ATOM     17  C   UNL     1     -33.579  29.826   1.996  0.00  0.00    +0.031 C 
ATOM     18  C   UNL     1     -40.712  24.880   1.108  0.00  0.00    +0.273 C 
ATOM     19  H   UNL     1     -41.657  25.902  -0.385  0.00  0.00    +0.169 HD
ENDROOT
BRANCH  13  20
ATOM     20  S   UNL     1     -36.027  30.010   0.151  0.00  0.00    -0.007 S 
BRANCH  20  22
ATOM     21  N   UNL     1     -37.349  31.845   1.885  0.00  0.00    -0.183 NA
ATOM     22  C   UNL     1     -36.804  31.097   1.186  0.00  0.00    +0.138 C 
ENDBRANCH  20  22
ENDBRANCH  13  20
BRANCH   3  23
ATOM     23  C   UNL     1     -37.282  24.651   3.667  0.00  0.00    +0.126 C 
BRANCH  23  24
ATOM     24  C   UNL     1     -36.856  23.346   2.983  0.00  0.00    +0.159 C 
BRANCH  24  25
ATOM     25  O   UNL     1     -37.924  22.404   3.099  0.00  0.00    -0.380 OA
ATOM     26  H   UNL     1     -38.108  22.237   4.036  0.00  0.00    +0.211 HD
ENDBRANCH  24  25
BRANCH  24  27
ATOM     27  C   UNL     1     -35.577  22.743   3.597  0.00  0.00    +0.168 C 
BRANCH  27  28
ATOM     28  O   UNL     1     -35.740  21.335   3.757  0.00  0.00    -0.379 OA
ATOM     29  H   UNL     1     -35.742  20.908   2.886  0.00  0.00    +0.211 HD
ENDBRANCH  27  28
BRANCH  27  30
ATOM     30  C   UNL     1     -35.217  23.357   4.963  0.00  0.00    +0.169 C 
BRANCH  30  31
ATOM     31  O   UNL     1     -34.016  24.121   4.829  0.00  0.00    -0.379 OA
ATOM     32  H   UNL     1     -33.597  24.218   5.699  0.00  0.00    +0.211 HD
ENDBRANCH  30  31
BRANCH  30  33
ATOM     33  C   UNL     1     -34.998  22.294   6.038  0.00  0.00    +0.169 C 
BRANCH  33  34
ATOM     34  O   UNL     1     -36.265  21.855   6.514  0.00  0.00    -0.379 OA
ATOM     35  H   UNL     1     -36.559  22.434   7.235  0.00  0.00    +0.211 HD
ENDBRANCH  33  34
ENDBRANCH  30  33
ENDBRANCH  27  30
ENDBRANCH  24  27
ENDBRANCH  23  24
ENDBRANCH   3  23
TORSDOF 11
ENDMDL
MODEL 8
REMARK VINA RESULT:      -5.6      3.933      7.437
REMARK  Name = 194533
REMARK  11 active torsions:
REMARK  status: ('A' for Active; 'I' for Inactive)
REMARK    1  A    between atoms: N_3  and  C_23
REMARK    2  A    between atoms: C_13  and  S_20
REMARK    3  A    between atoms: S_20  and  C_22
REMARK    4  A    between atoms: C_23  and  C_24
REMARK    5  A    between atoms: C_24  and  O_25
REMARK    6  A    between atoms: C_24  and  C_27
REMARK    7  A    between atoms: C_27  and  O_28
REMARK    8  A    between atoms: C_27  and  C_30
REMARK    9  A    between atoms: C_30  and  O_31
REMARK   10  A    between atoms: C_30  and  C_33
REMARK   11  A    between atoms: C_33  and  O_34
REMARK                            x       y       z     vdW  Elec       q    Type
REMARK                         _______ _______ _______ _____ _____    ______ ____
ROOT
ATOM      1  O   UNL     1     -34.569  26.043  -1.311  0.00  0.00    -0.266 OA
ATOM      2  O   UNL     1     -34.333  21.895  -3.277  0.00  0.00    -0.193 OA
ATOM      3  N   UNL     1     -34.912  22.021   1.347  0.00  0.00    -0.270 N 
ATOM      4  N   UNL     1     -34.870  24.841   1.085  0.00  0.00    -0.395 NA
ATOM      5  N   UNL     1     -34.617  21.950  -1.019  0.00  0.00    -0.303 NA
ATOM      6  N   UNL     1     -34.447  23.953  -2.326  0.00  0.00    -0.196 N 
ATOM      7  C   UNL     1     -35.052  22.830   2.496  0.00  0.00    +0.150 C 
ATOM      8  C   UNL     1     -34.754  22.605   0.096  0.00  0.00    +0.232 C 
ATOM      9  C   UNL     1     -35.028  24.232   2.339  0.00  0.00    +0.138 C 
ATOM     10  C   UNL     1     -35.215  22.316   3.795  0.00  0.00    -0.004 C 
ATOM     11  C   UNL     1     -34.740  24.107   0.027  0.00  0.00    +0.230 C 
ATOM     12  C   UNL     1     -35.350  23.161   4.901  0.00  0.00    -0.027 C 
ATOM     13  C   UNL     1     -35.165  25.070   3.456  0.00  0.00    +0.062 C 
ATOM     14  C   UNL     1     -35.325  24.539   4.732  0.00  0.00    -0.017 C 
ATOM     15  C   UNL     1     -34.577  24.825  -1.272  0.00  0.00    +0.293 C 
ATOM     16  C   UNL     1     -35.519  22.550   6.255  0.00  0.00    +0.030 C 
ATOM     17  C   UNL     1     -35.473  25.415   5.936  0.00  0.00    +0.031 C 
ATOM     18  C   UNL     1     -34.462  22.559  -2.245  0.00  0.00    +0.273 C 
ATOM     19  H   UNL     1     -34.334  24.347  -3.222  0.00  0.00    +0.169 HD
ENDROOT
BRANCH  13  20
ATOM     20  S   UNL     1     -35.133  26.863   3.250  0.00  0.00    -0.007 S 
BRANCH  20  22
ATOM     21  N   UNL     1     -32.337  27.156   3.724  0.00  0.00    -0.183 NA
ATOM     22  C   UNL     1     -33.476  27.047   3.530  0.00  0.00    +0.138 C 
ENDBRANCH  20  22
ENDBRANCH  13  20
BRANCH   3  23
ATOM     23  C   UNL     1     -34.937  20.569   1.520  0.00  0.00    +0.126 C 
BRANCH  23  24
ATOM     24  C   UNL     1     -36.343  20.029   1.231  0.00  0.00    +0.159 C 
BRANCH  24  25
ATOM     25  O   UNL     1     -36.902  19.543   2.453  0.00  0.00    -0.380 OA
ATOM     26  H   UNL     1     -37.582  20.161   2.766  0.00  0.00    +0.211 HD
ENDBRANCH  24  25
BRANCH  24  27
ATOM     27  C   UNL     1     -36.342  18.896   0.186  0.00  0.00    +0.168 C 
BRANCH  27  28
ATOM     28  O   UNL     1     -35.361  19.167  -0.813  0.00  0.00    -0.379 OA
ATOM     29  H   UNL     1     -35.755  19.059  -1.693  0.00  0.00    +0.211 HD
ENDBRANCH  27  28
BRANCH  27  30
ATOM     30  C   UNL     1     -37.708  18.708  -0.500  0.00  0.00    +0.169 C 
BRANCH  30  31
ATOM     31  O   UNL     1     -38.683  19.506   0.175  0.00  0.00    -0.379 OA
ATOM     32  H   UNL     1     -38.849  20.314  -0.336  0.00  0.00    +0.211 HD
ENDBRANCH  30  31
BRANCH  30  33
ATOM     33  C   UNL     1     -38.174  17.253  -0.480  0.00  0.00    +0.169 C 
BRANCH  33  34
ATOM     34  O   UNL     1     -37.446  16.553   0.524  0.00  0.00    -0.379 OA
ATOM     35  H   UNL     1     -36.842  17.165   0.972  0.00  0.00    +0.211 HD
ENDBRANCH  33  34
ENDBRANCH  30  33
ENDBRANCH  27  30
ENDBRANCH  24  27
ENDBRANCH  23  24
ENDBRANCH   3  23
TORSDOF 11
ENDMDL
MODEL 9
REMARK VINA RESULT:      -5.6      4.888      8.429
REMARK  Name = 194533
REMARK  11 active torsions:
REMARK  status: ('A' for Active; 'I' for Inactive)
REMARK    1  A    between atoms: N_3  and  C_23
REMARK    2  A    between atoms: C_13  and  S_20
REMARK    3  A    between atoms: S_20  and  C_22
REMARK    4  A    between atoms: C_23  and  C_24
REMARK    5  A    between atoms: C_24  and  O_25
REMARK    6  A    between atoms: C_24  and  C_27
REMARK    7  A    between atoms: C_27  and  O_28
REMARK    8  A    between atoms: C_27  and  C_30
REMARK    9  A    between atoms: C_30  and  O_31
REMARK   10  A    between atoms: C_30  and  C_33
REMARK   11  A    between atoms: C_33  and  O_34
REMARK                            x       y       z     vdW  Elec       q    Type
REMARK                         _______ _______ _______ _____ _____    ______ ____
ROOT
ATOM      1  O   UNL     1     -33.179  25.774   4.809  0.00  0.00    -0.266 OA
ATOM      2  O   UNL     1     -35.832  22.329   6.299  0.00  0.00    -0.193 OA
ATOM      3  N   UNL     1     -37.611  25.104   3.002  0.00  0.00    -0.270 N 
ATOM      4  N   UNL     1     -35.156  26.512   3.130  0.00  0.00    -0.395 NA
ATOM      5  N   UNL     1     -36.706  23.680   4.688  0.00  0.00    -0.303 NA
ATOM      6  N   UNL     1     -34.506  24.024   5.577  0.00  0.00    -0.196 N 
ATOM      7  C   UNL     1     -37.405  26.225   2.167  0.00  0.00    +0.150 C 
ATOM      8  C   UNL     1     -36.615  24.695   3.881  0.00  0.00    +0.232 C 
ATOM      9  C   UNL     1     -36.174  26.909   2.250  0.00  0.00    +0.138 C 
ATOM     10  C   UNL     1     -38.363  26.702   1.254  0.00  0.00    -0.004 C 
ATOM     11  C   UNL     1     -35.336  25.487   3.898  0.00  0.00    +0.230 C 
ATOM     12  C   UNL     1     -38.110  27.816   0.449  0.00  0.00    -0.027 C 
ATOM     13  C   UNL     1     -35.931  28.026   1.437  0.00  0.00    +0.062 C 
ATOM     14  C   UNL     1     -36.894  28.479   0.540  0.00  0.00    -0.017 C 
ATOM     15  C   UNL     1     -34.209  25.123   4.808  0.00  0.00    +0.293 C 
ATOM     16  C   UNL     1     -39.171  28.271  -0.501  0.00  0.00    +0.030 C 
ATOM     17  C   UNL     1     -36.654  29.669  -0.336  0.00  0.00    +0.031 C 
ATOM     18  C   UNL     1     -35.699  23.299   5.549  0.00  0.00    +0.273 C 
ATOM     19  H   UNL     1     -33.813  23.718   6.207  0.00  0.00    +0.169 HD
ENDROOT
BRANCH  13  20
ATOM     20  S   UNL     1     -34.354  28.899   1.546  0.00  0.00    -0.007 S 
BRANCH  20  22
ATOM     21  N   UNL     1     -35.176  30.747   3.554  0.00  0.00    -0.183 NA
ATOM     22  C   UNL     1     -34.836  29.990   2.744  0.00  0.00    +0.138 C 
ENDBRANCH  20  22
ENDBRANCH  13  20
BRANCH   3  23
ATOM     23  C   UNL     1     -38.891  24.402   2.910  0.00  0.00    +0.126 C 
BRANCH  23  24
ATOM     24  C   UNL     1     -38.702  23.053   2.205  0.00  0.00    +0.159 C 
BRANCH  24  25
ATOM     25  O   UNL     1     -37.934  23.266   1.019  0.00  0.00    -0.380 OA
ATOM     26  H   UNL     1     -37.988  22.480   0.453  0.00  0.00    +0.211 HD
ENDBRANCH  24  25
BRANCH  24  27
ATOM     27  C   UNL     1     -40.039  22.385   1.832  0.00  0.00    +0.168 C 
BRANCH  27  28
ATOM     28  O   UNL     1     -40.016  21.015   2.229  0.00  0.00    -0.379 OA
ATOM     29  H   UNL     1     -39.202  20.597   1.907  0.00  0.00    +0.211 HD
ENDBRANCH  27  28
BRANCH  27  30
ATOM     30  C   UNL     1     -40.350  22.458   0.326  0.00  0.00    +0.169 C 
BRANCH  30  31
ATOM     31  O   UNL     1     -41.597  23.131   0.138  0.00  0.00    -0.379 OA
ATOM     32  H   UNL     1     -42.199  22.904   0.864  0.00  0.00    +0.211 HD
ENDBRANCH  30  31
BRANCH  30  33
ATOM     33  C   UNL     1     -40.445  21.074  -0.316  0.00  0.00    +0.169 C 
BRANCH  33  34
ATOM     34  O   UNL     1     -41.751  20.553  -0.090  0.00  0.00    -0.379 OA
ATOM     35  H   UNL     1     -41.797  19.642  -0.420  0.00  0.00    +0.211 HD
ENDBRANCH  33  34
ENDBRANCH  30  33
ENDBRANCH  27  30
ENDBRANCH  24  27
ENDBRANCH  23  24
ENDBRANCH   3  23
TORSDOF 11
ENDMDL
