MODEL 1
REMARK VINA RESULT:      -7.4      0.000      0.000
REMARK  Name = 54692988
REMARK  2 active torsions:
REMARK  status: ('A' for Active; 'I' for Inactive)
REMARK    1  A    between atoms: C_8  and  C_21
REMARK    2  A    between atoms: C_9  and  O_29
REMARK                            x       y       z     vdW  Elec       q    Type
REMARK                         _______ _______ _______ _____ _____    ______ ____
ROOT
ATOM      1  S   UNL     1     -34.981  23.271   0.913  0.00  0.00    +0.077 S 
ATOM      2  O   UNL     1     -36.261  23.759   0.437  0.00  0.00    -0.150 OA
ATOM      3  O   UNL     1     -33.755  24.015   0.687  0.00  0.00    -0.150 OA
ATOM      4  N   UNL     1     -34.716  21.671   0.338  0.00  0.00    -0.181 N 
ATOM      5  C   UNL     1     -35.137  23.043   2.661  0.00  0.00    +0.128 C 
ATOM      6  C   UNL     1     -35.509  21.763   3.092  0.00  0.00    +0.054 C 
ATOM      7  C   UNL     1     -34.841  24.105   3.567  0.00  0.00    +0.019 C 
ATOM      8  C   UNL     1     -35.599  20.660   0.854  0.00  0.00    +0.156 C 
ATOM      9  C   UNL     1     -35.956  20.712   2.152  0.00  0.00    +0.154 C 
ATOM     10  C   UNL     1     -34.851  23.808   4.951  0.00  0.00    +0.001 C 
ATOM     11  C   UNL     1     -35.510  21.517   4.471  0.00  0.00    +0.004 C 
ATOM     12  C   UNL     1     -35.171  22.516   5.382  0.00  0.00    +0.000 C 
ATOM     13  C   UNL     1     -34.207  21.568  -1.056  0.00  0.00    +0.139 C 
ATOM     14  C   UNL     1     -34.562  25.448   3.204  0.00  0.00    +0.001 C 
ATOM     15  C   UNL     1     -34.550  24.801   5.897  0.00  0.00    +0.000 C 
ATOM     16  C   UNL     1     -34.270  26.429   4.156  0.00  0.00    +0.000 C 
ATOM     17  C   UNL     1     -34.257  26.103   5.503  0.00  0.00    +0.000 C 
ENDROOT
BRANCH   8  21
ATOM     18  O   UNL     1     -36.891  19.733  -0.857  0.00  0.00    -0.268 OA
ATOM     19  N   UNL     1     -35.296  18.391   0.238  0.00  0.00    -0.265 N 
ATOM     20  N   UNL     1     -34.633  16.119  -0.005  0.00  0.00    -0.229 NA
ATOM     21  C   UNL     1     -36.009  19.551  -0.022  0.00  0.00    +0.269 C 
ATOM     22  C   UNL     1     -35.427  17.137  -0.408  0.00  0.00    +0.134 C 
ATOM     23  C   UNL     1     -36.366  17.033  -1.419  0.00  0.00    +0.030 C 
ATOM     24  C   UNL     1     -36.502  15.806  -2.060  0.00  0.00    -0.018 C 
ATOM     25  C   UNL     1     -35.702  14.735  -1.674  0.00  0.00    +0.017 C 
ATOM     26  C   UNL     1     -34.792  14.942  -0.650  0.00  0.00    +0.100 C 
ATOM     27  C   UNL     1     -37.498  15.638  -3.156  0.00  0.00    +0.031 C 
ATOM     28  H   UNL     1     -34.623  18.444   0.955  0.00  0.00    +0.157 HD
ENDBRANCH   8  21
BRANCH   9  29
ATOM     29  O   UNL     1     -36.808  19.794   2.745  0.00  0.00    -0.504 OA
ATOM     30  H   UNL     1     -36.707  18.879   2.567  0.00  0.00    +0.292 HD
ENDBRANCH   9  29
TORSDOF 2
ENDMDL
MODEL 2
REMARK VINA RESULT:      -7.2      1.440      1.986
REMARK  Name = 54692988
REMARK  2 active torsions:
REMARK  status: ('A' for Active; 'I' for Inactive)
REMARK    1  A    between atoms: C_8  and  C_21
REMARK    2  A    between atoms: C_9  and  O_29
REMARK                            x       y       z     vdW  Elec       q    Type
REMARK                         _______ _______ _______ _____ _____    ______ ____
ROOT
ATOM      1  S   UNL     1     -35.021  23.044   0.812  0.00  0.00    +0.077 S 
ATOM      2  O   UNL     1     -36.316  23.480   0.325  0.00  0.00    -0.150 OA
ATOM      3  O   UNL     1     -33.808  23.776   0.498  0.00  0.00    -0.150 OA
ATOM      4  N   UNL     1     -34.753  21.404   0.367  0.00  0.00    -0.181 N 
ATOM      5  C   UNL     1     -35.138  22.961   2.576  0.00  0.00    +0.128 C 
ATOM      6  C   UNL     1     -35.488  21.720   3.121  0.00  0.00    +0.054 C 
ATOM      7  C   UNL     1     -34.833  24.098   3.383  0.00  0.00    +0.019 C 
ATOM      8  C   UNL     1     -35.615  20.432   0.985  0.00  0.00    +0.156 C 
ATOM      9  C   UNL     1     -35.945  20.590   2.282  0.00  0.00    +0.154 C 
ATOM     10  C   UNL     1     -34.812  23.918   4.787  0.00  0.00    +0.001 C 
ATOM     11  C   UNL     1     -35.458  21.590   4.515  0.00  0.00    +0.004 C 
ATOM     12  C   UNL     1     -35.109  22.664   5.332  0.00  0.00    +0.000 C 
ATOM     13  C   UNL     1     -34.272  21.187  -1.023  0.00  0.00    +0.139 C 
ATOM     14  C   UNL     1     -34.575  25.409   2.903  0.00  0.00    +0.001 C 
ATOM     15  C   UNL     1     -34.501  24.990   5.641  0.00  0.00    +0.000 C 
ATOM     16  C   UNL     1     -34.273  26.468   3.763  0.00  0.00    +0.000 C 
ATOM     17  C   UNL     1     -34.229  26.256   5.133  0.00  0.00    +0.000 C 
ENDROOT
BRANCH   8  21
ATOM     18  O   UNL     1     -35.211  18.377  -0.049  0.00  0.00    -0.268 OA
ATOM     19  N   UNL     1     -37.376  19.300  -0.126  0.00  0.00    -0.265 N 
ATOM     20  N   UNL     1     -39.426  18.573  -1.090  0.00  0.00    -0.229 NA
ATOM     21  C   UNL     1     -36.033  19.251   0.214  0.00  0.00    +0.269 C 
ATOM     22  C   UNL     1     -38.114  18.340  -0.862  0.00  0.00    +0.134 C 
ATOM     23  C   UNL     1     -37.438  17.215  -1.303  0.00  0.00    +0.030 C 
ATOM     24  C   UNL     1     -38.154  16.267  -2.027  0.00  0.00    -0.018 C 
ATOM     25  C   UNL     1     -39.506  16.471  -2.282  0.00  0.00    +0.017 C 
ATOM     26  C   UNL     1     -40.089  17.631  -1.796  0.00  0.00    +0.100 C 
ATOM     27  C   UNL     1     -37.477  15.037  -2.527  0.00  0.00    +0.031 C 
ATOM     28  H   UNL     1     -37.874  20.092   0.179  0.00  0.00    +0.157 HD
ENDBRANCH   8  21
BRANCH   9  29
ATOM     29  O   UNL     1     -36.775  19.718   2.968  0.00  0.00    -0.504 OA
ATOM     30  H   UNL     1     -36.436  18.907   3.293  0.00  0.00    +0.292 HD
ENDBRANCH   9  29
TORSDOF 2
ENDMDL
MODEL 3
REMARK VINA RESULT:      -7.0      7.228     10.635
REMARK  Name = 54692988
REMARK  2 active torsions:
REMARK  status: ('A' for Active; 'I' for Inactive)
REMARK    1  A    between atoms: C_8  and  C_21
REMARK    2  A    between atoms: C_9  and  O_29
REMARK                            x       y       z     vdW  Elec       q    Type
REMARK                         _______ _______ _______ _____ _____    ______ ____
ROOT
ATOM      1  S   UNL     1     -34.123  32.458   1.399  0.00  0.00    +0.077 S 
ATOM      2  O   UNL     1     -33.662  32.143   0.060  0.00  0.00    -0.150 OA
ATOM      3  O   UNL     1     -33.390  33.371   2.257  0.00  0.00    -0.150 OA
ATOM      4  N   UNL     1     -34.362  31.006   2.290  0.00  0.00    -0.181 N 
ATOM      5  C   UNL     1     -35.765  33.098   1.238  0.00  0.00    +0.128 C 
ATOM      6  C   UNL     1     -36.810  32.174   1.360  0.00  0.00    +0.054 C 
ATOM      7  C   UNL     1     -35.990  34.495   1.050  0.00  0.00    +0.019 C 
ATOM      8  C   UNL     1     -35.425  30.152   1.834  0.00  0.00    +0.156 C 
ATOM      9  C   UNL     1     -36.571  30.715   1.407  0.00  0.00    +0.154 C 
ATOM     10  C   UNL     1     -37.330  34.952   1.072  0.00  0.00    +0.001 C 
ATOM     11  C   UNL     1     -38.119  32.671   1.371  0.00  0.00    +0.004 C 
ATOM     12  C   UNL     1     -38.373  34.036   1.247  0.00  0.00    +0.000 C 
ATOM     13  C   UNL     1     -33.135  30.409   2.883  0.00  0.00    +0.139 C 
ATOM     14  C   UNL     1     -34.987  35.471   0.814  0.00  0.00    +0.001 C 
ATOM     15  C   UNL     1     -37.623  36.316   0.912  0.00  0.00    +0.000 C 
ATOM     16  C   UNL     1     -35.292  36.825   0.650  0.00  0.00    +0.000 C 
ATOM     17  C   UNL     1     -36.611  37.248   0.707  0.00  0.00    +0.000 C 
ENDROOT
BRANCH   8  21
ATOM     18  O   UNL     1     -35.080  28.032   0.914  0.00  0.00    -0.268 OA
ATOM     19  N   UNL     1     -35.349  28.247   3.243  0.00  0.00    -0.265 N 
ATOM     20  N   UNL     1     -35.354  26.683   5.036  0.00  0.00    -0.229 NA
ATOM     21  C   UNL     1     -35.264  28.692   1.933  0.00  0.00    +0.269 C 
ATOM     22  C   UNL     1     -35.242  26.913   3.708  0.00  0.00    +0.134 C 
ATOM     23  C   UNL     1     -35.027  25.923   2.765  0.00  0.00    +0.030 C 
ATOM     24  C   UNL     1     -34.920  24.609   3.212  0.00  0.00    -0.018 C 
ATOM     25  C   UNL     1     -35.030  24.333   4.571  0.00  0.00    +0.017 C 
ATOM     26  C   UNL     1     -35.245  25.396   5.433  0.00  0.00    +0.100 C 
ATOM     27  C   UNL     1     -34.688  23.503   2.240  0.00  0.00    +0.031 C 
ATOM     28  H   UNL     1     -35.502  28.936   3.929  0.00  0.00    +0.157 HD
ENDBRANCH   8  21
BRANCH   9  29
ATOM     29  O   UNL     1     -37.651  29.983   0.939  0.00  0.00    -0.504 OA
ATOM     30  H   UNL     1     -37.603  29.560   0.104  0.00  0.00    +0.292 HD
ENDBRANCH   9  29
TORSDOF 2
ENDMDL
MODEL 4
REMARK VINA RESULT:      -7.0      5.169     10.246
REMARK  Name = 54692988
REMARK  2 active torsions:
REMARK  status: ('A' for Active; 'I' for Inactive)
REMARK    1  A    between atoms: C_8  and  C_21
REMARK    2  A    between atoms: C_9  and  O_29
REMARK                            x       y       z     vdW  Elec       q    Type
REMARK                         _______ _______ _______ _____ _____    ______ ____
ROOT
ATOM      1  S   UNL     1     -35.769  25.556   1.621  0.00  0.00    +0.077 S 
ATOM      2  O   UNL     1     -34.611  25.390   0.763  0.00  0.00    -0.150 OA
ATOM      3  O   UNL     1     -36.970  24.762   1.434  0.00  0.00    -0.150 OA
ATOM      4  N   UNL     1     -36.251  27.207   1.637  0.00  0.00    -0.181 N 
ATOM      5  C   UNL     1     -35.220  25.288   3.281  0.00  0.00    +0.128 C 
ATOM      6  C   UNL     1     -34.829  26.424   4.001  0.00  0.00    +0.054 C 
ATOM      7  C   UNL     1     -35.234  23.980   3.854  0.00  0.00    +0.019 C 
ATOM      8  C   UNL     1     -35.330  28.128   2.246  0.00  0.00    +0.156 C 
ATOM      9  C   UNL     1     -34.675  27.749   3.360  0.00  0.00    +0.154 C 
ATOM     10  C   UNL     1     -34.915  23.864   5.229  0.00  0.00    +0.001 C 
ATOM     11  C   UNL     1     -34.518  26.260   5.356  0.00  0.00    +0.004 C 
ATOM     12  C   UNL     1     -34.577  25.006   5.963  0.00  0.00    +0.000 C 
ATOM     13  C   UNL     1     -37.079  27.645   0.481  0.00  0.00    +0.139 C 
ATOM     14  C   UNL     1     -35.515  22.776   3.160  0.00  0.00    +0.001 C 
ATOM     15  C   UNL     1     -34.929  22.610   5.862  0.00  0.00    +0.000 C 
ATOM     16  C   UNL     1     -35.519  21.533   3.800  0.00  0.00    +0.000 C 
ATOM     17  C   UNL     1     -35.233  21.452   5.154  0.00  0.00    +0.000 C 
ENDROOT
BRANCH   8  21
ATOM     18  O   UNL     1     -34.181  29.795   1.081  0.00  0.00    -0.268 OA
ATOM     19  N   UNL     1     -36.317  30.264   1.955  0.00  0.00    -0.265 N 
ATOM     20  N   UNL     1     -37.701  32.199   1.931  0.00  0.00    -0.229 NA
ATOM     21  C   UNL     1     -35.201  29.485   1.691  0.00  0.00    +0.269 C 
ATOM     22  C   UNL     1     -36.536  31.611   1.575  0.00  0.00    +0.134 C 
ATOM     23  C   UNL     1     -35.536  32.244   0.856  0.00  0.00    +0.030 C 
ATOM     24  C   UNL     1     -35.743  33.567   0.478  0.00  0.00    -0.018 C 
ATOM     25  C   UNL     1     -36.928  34.206   0.825  0.00  0.00    +0.017 C 
ATOM     26  C   UNL     1     -37.866  33.485   1.546  0.00  0.00    +0.100 C 
ATOM     27  C   UNL     1     -34.699  34.296  -0.297  0.00  0.00    +0.031 C 
ATOM     28  H   UNL     1     -37.040  29.833   2.465  0.00  0.00    +0.157 HD
ENDBRANCH   8  21
BRANCH   9  29
ATOM     29  O   UNL     1     -33.761  28.556   4.019  0.00  0.00    -0.504 OA
ATOM     30  H   UNL     1     -34.013  29.006   4.801  0.00  0.00    +0.292 HD
ENDBRANCH   9  29
TORSDOF 2
ENDMDL
MODEL 5
REMARK VINA RESULT:      -6.9      5.469      9.988
REMARK  Name = 54692988
REMARK  2 active torsions:
REMARK  status: ('A' for Active; 'I' for Inactive)
REMARK    1  A    between atoms: C_8  and  C_21
REMARK    2  A    between atoms: C_9  and  O_29
REMARK                            x       y       z     vdW  Elec       q    Type
REMARK                         _______ _______ _______ _____ _____    ______ ____
ROOT
ATOM      1  S   UNL     1     -34.423  26.363   4.542  0.00  0.00    +0.077 S 
ATOM      2  O   UNL     1     -35.604  26.933   5.162  0.00  0.00    -0.150 OA
ATOM      3  O   UNL     1     -33.293  25.914   5.334  0.00  0.00    -0.150 OA
ATOM      4  N   UNL     1     -33.810  27.443   3.352  0.00  0.00    -0.181 N 
ATOM      5  C   UNL     1     -34.966  24.981   3.580  0.00  0.00    +0.128 C 
ATOM      6  C   UNL     1     -35.253  25.233   2.232  0.00  0.00    +0.054 C 
ATOM      7  C   UNL     1     -35.047  23.677   4.154  0.00  0.00    +0.019 C 
ATOM      8  C   UNL     1     -34.645  27.654   2.200  0.00  0.00    +0.156 C 
ATOM      9  C   UNL     1     -35.310  26.604   1.681  0.00  0.00    +0.154 C 
ATOM     10  C   UNL     1     -35.353  22.598   3.289  0.00  0.00    +0.001 C 
ATOM     11  C   UNL     1     -35.556  24.136   1.416  0.00  0.00    +0.004 C 
ATOM     12  C   UNL     1     -35.588  22.841   1.931  0.00  0.00    +0.000 C 
ATOM     13  C   UNL     1     -32.968  28.555   3.868  0.00  0.00    +0.139 C 
ATOM     14  C   UNL     1     -34.875  23.365   5.527  0.00  0.00    +0.001 C 
ATOM     15  C   UNL     1     -35.430  21.285   3.783  0.00  0.00    +0.000 C 
ATOM     16  C   UNL     1     -34.960  22.055   6.008  0.00  0.00    +0.000 C 
ATOM     17  C   UNL     1     -35.231  21.014   5.133  0.00  0.00    +0.000 C 
ENDROOT
BRANCH   8  21
ATOM     18  O   UNL     1     -33.758  29.322   0.825  0.00  0.00    -0.268 OA
ATOM     19  N   UNL     1     -35.802  29.705   1.929  0.00  0.00    -0.265 N 
ATOM     20  N   UNL     1     -37.307  31.546   1.982  0.00  0.00    -0.229 NA
ATOM     21  C   UNL     1     -34.674  28.983   1.569  0.00  0.00    +0.269 C 
ATOM     22  C   UNL     1     -36.156  31.013   1.515  0.00  0.00    +0.134 C 
ATOM     23  C   UNL     1     -35.293  31.666   0.651  0.00  0.00    +0.030 C 
ATOM     24  C   UNL     1     -35.632  32.950   0.239  0.00  0.00    -0.018 C 
ATOM     25  C   UNL     1     -36.809  33.533   0.697  0.00  0.00    +0.017 C 
ATOM     26  C   UNL     1     -37.604  32.796   1.560  0.00  0.00    +0.100 C 
ATOM     27  C   UNL     1     -34.740  33.699  -0.691  0.00  0.00    +0.031 C 
ATOM     28  H   UNL     1     -36.428  29.258   2.543  0.00  0.00    +0.157 HD
ENDBRANCH   8  21
BRANCH   9  29
ATOM     29  O   UNL     1     -36.147  26.702   0.580  0.00  0.00    -0.504 OA
ATOM     30  H   UNL     1     -35.863  26.379  -0.253  0.00  0.00    +0.292 HD
ENDBRANCH   9  29
TORSDOF 2
ENDMDL
MODEL 6
REMARK VINA RESULT:      -6.9      4.571      7.741
REMARK  Name = 54692988
REMARK  2 active torsions:
REMARK  status: ('A' for Active; 'I' for Inactive)
REMARK    1  A    between atoms: C_8  and  C_21
REMARK    2  A    between atoms: C_9  and  O_29
REMARK                            x       y       z     vdW  Elec       q    Type
REMARK                         _______ _______ _______ _____ _____    ______ ____
ROOT
ATOM      1  S   UNL     1     -35.156  24.024   0.219  0.00  0.00    +0.077 S 
ATOM      2  O   UNL     1     -34.409  24.982   1.012  0.00  0.00    -0.150 OA
ATOM      3  O   UNL     1     -34.917  23.869  -1.205  0.00  0.00    -0.150 OA
ATOM      4  N   UNL     1     -36.844  24.289   0.422  0.00  0.00    -0.181 N 
ATOM      5  C   UNL     1     -34.912  22.438   0.964  0.00  0.00    +0.128 C 
ATOM      6  C   UNL     1     -35.868  22.037   1.905  0.00  0.00    +0.054 C 
ATOM      7  C   UNL     1     -33.820  21.606   0.572  0.00  0.00    +0.019 C 
ATOM      8  C   UNL     1     -37.372  24.023   1.734  0.00  0.00    +0.156 C 
ATOM      9  C   UNL     1     -36.909  22.957   2.415  0.00  0.00    +0.154 C 
ATOM     10  C   UNL     1     -33.769  20.297   1.108  0.00  0.00    +0.001 C 
ATOM     11  C   UNL     1     -35.775  20.735   2.412  0.00  0.00    +0.004 C 
ATOM     12  C   UNL     1     -34.755  19.875   2.007  0.00  0.00    +0.000 C 
ATOM     13  C   UNL     1     -37.425  25.383  -0.401  0.00  0.00    +0.139 C 
ATOM     14  C   UNL     1     -32.759  21.985  -0.291  0.00  0.00    +0.001 C 
ATOM     15  C   UNL     1     -32.734  19.418   0.750  0.00  0.00    +0.000 C 
ATOM     16  C   UNL     1     -31.731  21.103  -0.634  0.00  0.00    +0.000 C 
ATOM     17  C   UNL     1     -31.723  19.816  -0.119  0.00  0.00    +0.000 C 
ENDROOT
BRANCH   8  21
ATOM     18  O   UNL     1     -38.222  25.702   3.117  0.00  0.00    -0.268 OA
ATOM     19  N   UNL     1     -39.677  24.570   1.651  0.00  0.00    -0.265 N 
ATOM     20  N   UNL     1     -42.007  24.746   1.208  0.00  0.00    -0.229 NA
ATOM     21  C   UNL     1     -38.462  24.864   2.252  0.00  0.00    +0.269 C 
ATOM     22  C   UNL     1     -40.931  25.178   1.904  0.00  0.00    +0.134 C 
ATOM     23  C   UNL     1     -40.975  26.183   2.854  0.00  0.00    +0.030 C 
ATOM     24  C   UNL     1     -42.203  26.786   3.109  0.00  0.00    -0.018 C 
ATOM     25  C   UNL     1     -43.333  26.370   2.413  0.00  0.00    +0.017 C 
ATOM     26  C   UNL     1     -43.183  25.355   1.481  0.00  0.00    +0.100 C 
ATOM     27  C   UNL     1     -42.308  27.874   4.122  0.00  0.00    +0.031 C 
ATOM     28  H   UNL     1     -39.666  23.858   0.973  0.00  0.00    +0.157 HD
ENDBRANCH   8  21
BRANCH   9  29
ATOM     29  O   UNL     1     -37.343  22.618   3.686  0.00  0.00    -0.504 OA
ATOM     30  H   UNL     1     -38.000  23.135   4.109  0.00  0.00    +0.292 HD
ENDBRANCH   9  29
TORSDOF 2
ENDMDL
MODEL 7
REMARK VINA RESULT:      -6.8      5.993      7.993
REMARK  Name = 54692988
REMARK  2 active torsions:
REMARK  status: ('A' for Active; 'I' for Inactive)
REMARK    1  A    between atoms: C_8  and  C_21
REMARK    2  A    between atoms: C_9  and  O_29
REMARK                            x       y       z     vdW  Elec       q    Type
REMARK                         _______ _______ _______ _____ _____    ______ ____
ROOT
ATOM      1  S   UNL     1     -33.741  26.520   4.836  0.00  0.00    +0.077 S 
ATOM      2  O   UNL     1     -32.959  25.545   4.099  0.00  0.00    -0.150 OA
ATOM      3  O   UNL     1     -33.619  26.655   6.276  0.00  0.00    -0.150 OA
ATOM      4  N   UNL     1     -35.412  26.313   4.487  0.00  0.00    -0.181 N 
ATOM      5  C   UNL     1     -33.382  28.103   4.132  0.00  0.00    +0.128 C 
ATOM      6  C   UNL     1     -34.241  28.544   3.118  0.00  0.00    +0.054 C 
ATOM      7  C   UNL     1     -32.302  28.895   4.625  0.00  0.00    +0.019 C 
ATOM      8  C   UNL     1     -35.817  26.608   3.139  0.00  0.00    +0.156 C 
ATOM      9  C   UNL     1     -35.264  27.664   2.512  0.00  0.00    +0.154 C 
ATOM     10  C   UNL     1     -32.163  30.207   4.110  0.00  0.00    +0.001 C 
ATOM     11  C   UNL     1     -34.063  29.847   2.636  0.00  0.00    +0.004 C 
ATOM     12  C   UNL     1     -33.054  30.669   3.135  0.00  0.00    +0.000 C 
ATOM     13  C   UNL     1     -36.097  25.232   5.245  0.00  0.00    +0.139 C 
ATOM     14  C   UNL     1     -31.331  28.474   5.570  0.00  0.00    +0.001 C 
ATOM     15  C   UNL     1     -31.134  31.048   4.565  0.00  0.00    +0.000 C 
ATOM     16  C   UNL     1     -30.308  29.319   6.010  0.00  0.00    +0.000 C 
ATOM     17  C   UNL     1     -30.214  30.609   5.512  0.00  0.00    +0.000 C 
ENDROOT
BRANCH   8  21
ATOM     18  O   UNL     1     -36.611  24.735   1.989  0.00  0.00    -0.268 OA
ATOM     19  N   UNL     1     -38.126  26.419   2.633  0.00  0.00    -0.265 N 
ATOM     20  N   UNL     1     -40.474  26.688   2.367  0.00  0.00    -0.229 NA
ATOM     21  C   UNL     1     -36.886  25.807   2.520  0.00  0.00    +0.269 C 
ATOM     22  C   UNL     1     -39.370  25.938   2.155  0.00  0.00    +0.134 C 
ATOM     23  C   UNL     1     -39.374  24.720   1.497  0.00  0.00    +0.030 C 
ATOM     24  C   UNL     1     -40.591  24.239   1.025  0.00  0.00    -0.018 C 
ATOM     25  C   UNL     1     -41.750  24.982   1.224  0.00  0.00    +0.017 C 
ATOM     26  C   UNL     1     -41.638  26.190   1.894  0.00  0.00    +0.100 C 
ATOM     27  C   UNL     1     -40.655  22.933   0.309  0.00  0.00    +0.031 C 
ATOM     28  H   UNL     1     -38.143  27.286   3.098  0.00  0.00    +0.157 HD
ENDBRANCH   8  21
BRANCH   9  29
ATOM     29  O   UNL     1     -35.577  28.027   1.212  0.00  0.00    -0.504 OA
ATOM     30  H   UNL     1     -36.441  27.882   0.880  0.00  0.00    +0.292 HD
ENDBRANCH   9  29
TORSDOF 2
ENDMDL
MODEL 8
REMARK VINA RESULT:      -6.8      6.849      9.654
REMARK  Name = 54692988
REMARK  2 active torsions:
REMARK  status: ('A' for Active; 'I' for Inactive)
REMARK    1  A    between atoms: C_8  and  C_21
REMARK    2  A    between atoms: C_9  and  O_29
REMARK                            x       y       z     vdW  Elec       q    Type
REMARK                         _______ _______ _______ _____ _____    ______ ____
ROOT
ATOM      1  S   UNL     1     -41.216  24.265   0.394  0.00  0.00    +0.077 S 
ATOM      2  O   UNL     1     -40.969  23.047   1.142  0.00  0.00    -0.150 OA
ATOM      3  O   UNL     1     -41.524  24.233  -1.024  0.00  0.00    -0.150 OA
ATOM      4  N   UNL     1     -39.901  25.354   0.602  0.00  0.00    -0.181 N 
ATOM      5  C   UNL     1     -42.553  25.099   1.199  0.00  0.00    +0.128 C 
ATOM      6  C   UNL     1     -42.203  26.053   2.163  0.00  0.00    +0.054 C 
ATOM      7  C   UNL     1     -43.906  24.838   0.831  0.00  0.00    +0.019 C 
ATOM      8  C   UNL     1     -39.723  25.884   1.927  0.00  0.00    +0.156 C 
ATOM      9  C   UNL     1     -40.813  26.214   2.646  0.00  0.00    +0.154 C 
ATOM     10  C   UNL     1     -44.912  25.644   1.417  0.00  0.00    +0.001 C 
ATOM     11  C   UNL     1     -43.232  26.823   2.720  0.00  0.00    +0.004 C 
ATOM     12  C   UNL     1     -44.560  26.633   2.341  0.00  0.00    +0.000 C 
ATOM     13  C   UNL     1     -38.715  25.099  -0.258  0.00  0.00    +0.139 C 
ATOM     14  C   UNL     1     -44.340  23.819  -0.056  0.00  0.00    +0.001 C 
ATOM     15  C   UNL     1     -46.264  25.454   1.085  0.00  0.00    +0.000 C 
ATOM     16  C   UNL     1     -45.689  23.636  -0.374  0.00  0.00    +0.000 C 
ATOM     17  C   UNL     1     -46.651  24.460   0.192  0.00  0.00    +0.000 C 
ENDROOT
BRANCH   8  21
ATOM     18  O   UNL     1     -37.731  27.102   2.003  0.00  0.00    -0.268 OA
ATOM     19  N   UNL     1     -37.958  25.181   3.346  0.00  0.00    -0.265 N 
ATOM     20  N   UNL     1     -36.516  24.093   4.894  0.00  0.00    -0.229 NA
ATOM     21  C   UNL     1     -38.359  26.134   2.422  0.00  0.00    +0.269 C 
ATOM     22  C   UNL     1     -36.716  25.108   4.024  0.00  0.00    +0.134 C 
ATOM     23  C   UNL     1     -35.780  26.090   3.750  0.00  0.00    +0.030 C 
ATOM     24  C   UNL     1     -34.557  26.027   4.411  0.00  0.00    -0.018 C 
ATOM     25  C   UNL     1     -34.314  24.998   5.313  0.00  0.00    +0.017 C 
ATOM     26  C   UNL     1     -35.317  24.064   5.517  0.00  0.00    +0.100 C 
ATOM     27  C   UNL     1     -33.512  27.059   4.153  0.00  0.00    +0.031 C 
ATOM     28  H   UNL     1     -38.610  24.474   3.554  0.00  0.00    +0.157 HD
ENDBRANCH   8  21
BRANCH   9  29
ATOM     29  O   UNL     1     -40.752  26.722   3.933  0.00  0.00    -0.504 OA
ATOM     30  H   UNL     1     -41.329  26.393   4.594  0.00  0.00    +0.292 HD
ENDBRANCH   9  29
TORSDOF 2
ENDMDL
MODEL 9
REMARK VINA RESULT:      -6.7      5.031     10.436
REMARK  Name = 54692988
REMARK  2 active torsions:
REMARK  status: ('A' for Active; 'I' for Inactive)
REMARK    1  A    between atoms: C_8  and  C_21
REMARK    2  A    between atoms: C_9  and  O_29
REMARK                            x       y       z     vdW  Elec       q    Type
REMARK                         _______ _______ _______ _____ _____    ______ ____
ROOT
ATOM      1  S   UNL     1     -35.348  26.153   1.520  0.00  0.00    +0.077 S 
ATOM      2  O   UNL     1     -34.118  26.116   0.752  0.00  0.00    -0.150 OA
ATOM      3  O   UNL     1     -36.580  25.584   1.005  0.00  0.00    -0.150 OA
ATOM      4  N   UNL     1     -35.695  27.772   1.988  0.00  0.00    -0.181 N 
ATOM      5  C   UNL     1     -35.012  25.358   3.064  0.00  0.00    +0.128 C 
ATOM      6  C   UNL     1     -34.615  26.188   4.120  0.00  0.00    +0.054 C 
ATOM      7  C   UNL     1     -35.195  23.951   3.218  0.00  0.00    +0.019 C 
ATOM      8  C   UNL     1     -34.778  28.371   2.919  0.00  0.00    +0.156 C 
ATOM      9  C   UNL     1     -34.284  27.616   3.920  0.00  0.00    +0.154 C 
ATOM     10  C   UNL     1     -35.043  23.408   4.517  0.00  0.00    +0.001 C 
ATOM     11  C   UNL     1     -34.471  25.606   5.386  0.00  0.00    +0.004 C 
ATOM     12  C   UNL     1     -34.698  24.245   5.584  0.00  0.00    +0.000 C 
ATOM     13  C   UNL     1     -36.350  28.612   0.951  0.00  0.00    +0.139 C 
ATOM     14  C   UNL     1     -35.491  23.036   2.174  0.00  0.00    +0.001 C 
ATOM     15  C   UNL     1     -35.228  22.034   4.743  0.00  0.00    +0.000 C 
ATOM     16  C   UNL     1     -35.667  21.670   2.412  0.00  0.00    +0.000 C 
ATOM     17  C   UNL     1     -35.542  21.170   3.699  0.00  0.00    +0.000 C 
ENDROOT
BRANCH   8  21
ATOM     18  O   UNL     1     -35.263  30.628   3.273  0.00  0.00    -0.268 OA
ATOM     19  N   UNL     1     -33.279  30.039   2.151  0.00  0.00    -0.265 N 
ATOM     20  N   UNL     1     -31.498  31.306   1.211  0.00  0.00    -0.229 NA
ATOM     21  C   UNL     1     -34.478  29.807   2.807  0.00  0.00    +0.269 C 
ATOM     22  C   UNL     1     -32.681  31.291   1.866  0.00  0.00    +0.134 C 
ATOM     23  C   UNL     1     -33.352  32.429   2.281  0.00  0.00    +0.030 C 
ATOM     24  C   UNL     1     -32.773  33.664   2.006  0.00  0.00    -0.018 C 
ATOM     25  C   UNL     1     -31.556  33.720   1.334  0.00  0.00    +0.017 C 
ATOM     26  C   UNL     1     -30.966  32.523   0.961  0.00  0.00    +0.100 C 
ATOM     27  C   UNL     1     -33.452  34.921   2.429  0.00  0.00    +0.031 C 
ATOM     28  H   UNL     1     -32.787  29.242   1.848  0.00  0.00    +0.157 HD
ENDBRANCH   8  21
BRANCH   9  29
ATOM     29  O   UNL     1     -33.388  28.093   4.863  0.00  0.00    -0.504 OA
ATOM     30  H   UNL     1     -32.951  27.495   5.437  0.00  0.00    +0.292 HD
ENDBRANCH   9  29
TORSDOF 2
ENDMDL
