MODEL 1
REMARK VINA RESULT:      -4.9      0.000      0.000
REMARK  Name = 192130
REMARK  6 active torsions:
REMARK  status: ('A' for Active; 'I' for Inactive)
REMARK    1  A    between atoms: N_1  and  C_12
REMARK    2  A    between atoms: C_2  and  N_8
REMARK    3  A    between atoms: C_3  and  N_11
REMARK    4  A    between atoms: C_12  and  C_15
REMARK    5  A    between atoms: N_14  and  C_16
REMARK    6  A    between atoms: N_14  and  C_18
REMARK                            x       y       z     vdW  Elec       q    Type
REMARK                         _______ _______ _______ _____ _____    ______ ____
ROOT
ATOM      1  N   UNL     1     -35.191  23.091   3.959  0.00  0.00    -0.241 N 
ATOM      2  C   UNL     1     -35.007  23.675   5.177  0.00  0.00    +0.199 C 
ATOM      3  C   UNL     1     -35.409  21.754   4.099  0.00  0.00    +0.199 C 
ATOM      4  C   UNL     1     -35.108  22.682   6.127  0.00  0.00    +0.043 C 
ATOM      5  C   UNL     1     -35.362  21.467   5.445  0.00  0.00    +0.043 C 
ENDROOT
BRANCH   2   8
ATOM      6  O   UNL     1     -33.600  25.497   5.145  0.00  0.00    -0.125 OA
ATOM      7  O   UNL     1     -35.711  25.809   5.676  0.00  0.00    -0.125 OA
ATOM      8  N   UNL     1     -34.763  25.046   5.339  0.00  0.00    +0.072 N 
ENDBRANCH   2   8
BRANCH   3  11
ATOM      9  O   UNL     1     -34.723  20.095   2.655  0.00  0.00    -0.125 OA
ATOM     10  O   UNL     1     -36.736  20.944   2.401  0.00  0.00    -0.125 OA
ATOM     11  N   UNL     1     -35.631  20.898   3.009  0.00  0.00    +0.072 N 
ENDBRANCH   3  11
BRANCH   1  12
ATOM     12  C   UNL     1     -35.160  23.802   2.681  0.00  0.00    +0.184 C 
BRANCH  12  15
ATOM     13  O   UNL     1     -37.533  24.071   2.494  0.00  0.00    -0.273 OA
ATOM     14  N   UNL     1     -36.238  25.955   2.109  0.00  0.00    -0.278 N 
ATOM     15  C   UNL     1     -36.424  24.604   2.423  0.00  0.00    +0.246 C 
BRANCH  14  16
ATOM     16  C   UNL     1     -37.398  26.798   1.848  0.00  0.00    +0.094 C 
ATOM     17  C   UNL     1     -37.627  26.943   0.380  0.00  0.00    +0.023 C 
ENDBRANCH  14  16
BRANCH  14  18
ATOM     18  C   UNL     1     -34.945  26.629   2.019  0.00  0.00    +0.094 C 
ATOM     19  C   UNL     1     -34.935  27.870   2.849  0.00  0.00    +0.023 C 
ENDBRANCH  14  18
ENDBRANCH  12  15
ENDBRANCH   1  12
TORSDOF 6
ENDMDL
MODEL 2
REMARK VINA RESULT:      -4.9      0.008      3.354
REMARK  Name = 192130
REMARK  6 active torsions:
REMARK  status: ('A' for Active; 'I' for Inactive)
REMARK    1  A    between atoms: N_1  and  C_12
REMARK    2  A    between atoms: C_2  and  N_8
REMARK    3  A    between atoms: C_3  and  N_11
REMARK    4  A    between atoms: C_12  and  C_15
REMARK    5  A    between atoms: N_14  and  C_16
REMARK    6  A    between atoms: N_14  and  C_18
REMARK                            x       y       z     vdW  Elec       q    Type
REMARK                         _______ _______ _______ _____ _____    ______ ____
ROOT
ATOM      1  N   UNL     1     -35.190  23.094   3.957  0.00  0.00    -0.241 N 
ATOM      2  C   UNL     1     -35.408  21.757   4.098  0.00  0.00    +0.199 C 
ATOM      3  C   UNL     1     -35.002  23.679   5.172  0.00  0.00    +0.199 C 
ATOM      4  C   UNL     1     -35.359  21.474   5.446  0.00  0.00    +0.043 C 
ATOM      5  C   UNL     1     -35.103  22.690   6.125  0.00  0.00    +0.043 C 
ENDROOT
BRANCH   2   8
ATOM      6  O   UNL     1     -36.738  20.944   2.404  0.00  0.00    -0.125 OA
ATOM      7  O   UNL     1     -34.726  20.095   2.659  0.00  0.00    -0.125 OA
ATOM      8  N   UNL     1     -35.633  20.899   3.012  0.00  0.00    +0.072 N 
ENDBRANCH   2   8
BRANCH   3  11
ATOM      9  O   UNL     1     -33.593  25.501   5.132  0.00  0.00    -0.125 OA
ATOM     10  O   UNL     1     -35.703  25.815   5.670  0.00  0.00    -0.125 OA
ATOM     11  N   UNL     1     -34.756  25.051   5.331  0.00  0.00    +0.072 N 
ENDBRANCH   3  11
BRANCH   1  12
ATOM     12  C   UNL     1     -35.162  23.803   2.677  0.00  0.00    +0.184 C 
BRANCH  12  15
ATOM     13  O   UNL     1     -37.536  24.070   2.493  0.00  0.00    -0.273 OA
ATOM     14  N   UNL     1     -36.243  25.955   2.106  0.00  0.00    -0.278 N 
ATOM     15  C   UNL     1     -36.427  24.604   2.421  0.00  0.00    +0.246 C 
BRANCH  14  16
ATOM     16  C   UNL     1     -37.404  26.797   1.846  0.00  0.00    +0.094 C 
ATOM     17  C   UNL     1     -37.638  26.938   0.379  0.00  0.00    +0.023 C 
ENDBRANCH  14  16
BRANCH  14  18
ATOM     18  C   UNL     1     -34.951  26.631   2.014  0.00  0.00    +0.094 C 
ATOM     19  C   UNL     1     -34.943  27.874   2.840  0.00  0.00    +0.023 C 
ENDBRANCH  14  18
ENDBRANCH  12  15
ENDBRANCH   1  12
TORSDOF 6
ENDMDL
MODEL 3
REMARK VINA RESULT:      -4.6      2.694      4.744
REMARK  Name = 192130
REMARK  6 active torsions:
REMARK  status: ('A' for Active; 'I' for Inactive)
REMARK    1  A    between atoms: N_1  and  C_12
REMARK    2  A    between atoms: C_2  and  N_8
REMARK    3  A    between atoms: C_3  and  N_11
REMARK    4  A    between atoms: C_12  and  C_15
REMARK    5  A    between atoms: N_14  and  C_16
REMARK    6  A    between atoms: N_14  and  C_18
REMARK                            x       y       z     vdW  Elec       q    Type
REMARK                         _______ _______ _______ _____ _____    ______ ____
ROOT
ATOM      1  N   UNL     1     -37.395  22.804   1.653  0.00  0.00    -0.241 N 
ATOM      2  C   UNL     1     -36.393  23.095   0.776  0.00  0.00    +0.199 C 
ATOM      3  C   UNL     1     -38.588  22.713   1.003  0.00  0.00    +0.199 C 
ATOM      4  C   UNL     1     -36.960  23.196  -0.476  0.00  0.00    +0.043 C 
ATOM      5  C   UNL     1     -38.348  22.955  -0.332  0.00  0.00    +0.043 C 
ENDROOT
BRANCH   2   8
ATOM      6  O   UNL     1     -34.634  24.387   1.508  0.00  0.00    -0.125 OA
ATOM      7  O   UNL     1     -34.292  22.241   1.169  0.00  0.00    -0.125 OA
ATOM      8  N   UNL     1     -35.055  23.247   1.166  0.00  0.00    +0.072 N 
ENDBRANCH   2   8
BRANCH   3  11
ATOM      9  O   UNL     1     -40.132  21.219   1.834  0.00  0.00    -0.125 OA
ATOM     10  O   UNL     1     -40.525  23.372   2.057  0.00  0.00    -0.125 OA
ATOM     11  N   UNL     1     -39.795  22.423   1.657  0.00  0.00    +0.072 N 
ENDBRANCH   3  11
BRANCH   1  12
ATOM     12  C   UNL     1     -37.213  22.615   3.093  0.00  0.00    +0.184 C 
BRANCH  12  15
ATOM     13  O   UNL     1     -38.049  24.778   3.693  0.00  0.00    -0.273 OA
ATOM     14  N   UNL     1     -36.098  24.088   4.739  0.00  0.00    -0.278 N 
ATOM     15  C   UNL     1     -37.173  23.926   3.858  0.00  0.00    +0.246 C 
BRANCH  14  16
ATOM     16  C   UNL     1     -35.983  25.316   5.514  0.00  0.00    +0.094 C 
ATOM     17  C   UNL     1     -34.588  25.844   5.467  0.00  0.00    +0.023 C 
ENDBRANCH  14  16
BRANCH  14  18
ATOM     18  C   UNL     1     -35.042  23.105   4.970  0.00  0.00    +0.094 C 
ATOM     19  C   UNL     1     -35.326  22.299   6.193  0.00  0.00    +0.023 C 
ENDBRANCH  14  18
ENDBRANCH  12  15
ENDBRANCH   1  12
TORSDOF 6
ENDMDL
MODEL 4
REMARK VINA RESULT:      -4.4      1.457      3.865
REMARK  Name = 192130
REMARK  6 active torsions:
REMARK  status: ('A' for Active; 'I' for Inactive)
REMARK    1  A    between atoms: N_1  and  C_12
REMARK    2  A    between atoms: C_2  and  N_8
REMARK    3  A    between atoms: C_3  and  N_11
REMARK    4  A    between atoms: C_12  and  C_15
REMARK    5  A    between atoms: N_14  and  C_16
REMARK    6  A    between atoms: N_14  and  C_18
REMARK                            x       y       z     vdW  Elec       q    Type
REMARK                         _______ _______ _______ _____ _____    ______ ____
ROOT
ATOM      1  N   UNL     1     -35.480  23.328   3.974  0.00  0.00    -0.241 N 
ATOM      2  C   UNL     1     -35.549  21.968   3.935  0.00  0.00    +0.199 C 
ATOM      3  C   UNL     1     -35.111  23.753   5.214  0.00  0.00    +0.199 C 
ATOM      4  C   UNL     1     -35.215  21.505   5.190  0.00  0.00    +0.043 C 
ATOM      5  C   UNL     1     -34.939  22.634   5.998  0.00  0.00    +0.043 C 
ENDROOT
BRANCH   2   8
ATOM      6  O   UNL     1     -34.998  20.789   2.036  0.00  0.00    -0.125 OA
ATOM      7  O   UNL     1     -37.126  21.082   2.511  0.00  0.00    -0.125 OA
ATOM      8  N   UNL     1     -35.904  21.252   2.783  0.00  0.00    +0.072 N 
ENDBRANCH   2   8
BRANCH   3  11
ATOM      9  O   UNL     1     -35.972  25.780   5.889  0.00  0.00    -0.125 OA
ATOM     10  O   UNL     1     -33.814  25.634   5.493  0.00  0.00    -0.125 OA
ATOM     11  N   UNL     1     -34.960  25.108   5.545  0.00  0.00    +0.072 N 
ENDBRANCH   3  11
BRANCH   1  12
ATOM     12  C   UNL     1     -35.763  24.210   2.841  0.00  0.00    +0.184 C 
BRANCH  12  15
ATOM     13  O   UNL     1     -38.002  24.578   3.608  0.00  0.00    -0.273 OA
ATOM     14  N   UNL     1     -37.685  24.520   1.312  0.00  0.00    -0.278 N 
ATOM     15  C   UNL     1     -37.249  24.452   2.641  0.00  0.00    +0.246 C 
BRANCH  14  16
ATOM     16  C   UNL     1     -39.095  24.751   1.030  0.00  0.00    +0.094 C 
ATOM     17  C   UNL     1     -39.343  26.187   0.710  0.00  0.00    +0.023 C 
ENDBRANCH  14  16
BRANCH  14  18
ATOM     18  C   UNL     1     -36.829  24.381   0.137  0.00  0.00    +0.094 C 
ATOM     19  C   UNL     1     -37.006  23.040  -0.493  0.00  0.00    +0.023 C 
ENDBRANCH  14  18
ENDBRANCH  12  15
ENDBRANCH   1  12
TORSDOF 6
ENDMDL
MODEL 5
REMARK VINA RESULT:      -4.4      1.511      2.264
REMARK  Name = 192130
REMARK  6 active torsions:
REMARK  status: ('A' for Active; 'I' for Inactive)
REMARK    1  A    between atoms: N_1  and  C_12
REMARK    2  A    between atoms: C_2  and  N_8
REMARK    3  A    between atoms: C_3  and  N_11
REMARK    4  A    between atoms: C_12  and  C_15
REMARK    5  A    between atoms: N_14  and  C_16
REMARK    6  A    between atoms: N_14  and  C_18
REMARK                            x       y       z     vdW  Elec       q    Type
REMARK                         _______ _______ _______ _____ _____    ______ ____
ROOT
ATOM      1  N   UNL     1     -35.652  23.845   3.940  0.00  0.00    -0.241 N 
ATOM      2  C   UNL     1     -35.146  24.167   5.163  0.00  0.00    +0.199 C 
ATOM      3  C   UNL     1     -35.868  22.504   3.849  0.00  0.00    +0.199 C 
ATOM      4  C   UNL     1     -35.031  22.996   5.880  0.00  0.00    +0.043 C 
ATOM      5  C   UNL     1     -35.487  21.944   5.049  0.00  0.00    +0.043 C 
ENDROOT
BRANCH   2   8
ATOM      6  O   UNL     1     -33.627  25.866   5.486  0.00  0.00    -0.125 OA
ATOM      7  O   UNL     1     -35.747  26.255   5.923  0.00  0.00    -0.125 OA
ATOM      8  N   UNL     1     -34.827  25.480   5.539  0.00  0.00    +0.072 N 
ENDBRANCH   2   8
BRANCH   3  11
ATOM      9  O   UNL     1     -37.633  21.896   2.500  0.00  0.00    -0.125 OA
ATOM     10  O   UNL     1     -35.597  21.336   1.884  0.00  0.00    -0.125 OA
ATOM     11  N   UNL     1     -36.386  21.888   2.700  0.00  0.00    +0.072 N 
ENDBRANCH   3  11
BRANCH   1  12
ATOM     12  C   UNL     1     -35.927  24.808   2.873  0.00  0.00    +0.184 C 
BRANCH  12  15
ATOM     13  O   UNL     1     -34.020  24.307   1.511  0.00  0.00    -0.273 OA
ATOM     14  N   UNL     1     -34.365  26.538   2.042  0.00  0.00    -0.278 N 
ATOM     15  C   UNL     1     -34.686  25.176   2.079  0.00  0.00    +0.246 C 
BRANCH  14  16
ATOM     16  C   UNL     1     -33.190  26.979   1.302  0.00  0.00    +0.094 C 
ATOM     17  C   UNL     1     -32.024  27.158   2.216  0.00  0.00    +0.023 C 
ENDBRANCH  14  16
BRANCH  14  18
ATOM     18  C   UNL     1     -35.125  27.601   2.694  0.00  0.00    +0.094 C 
ATOM     19  C   UNL     1     -35.876  28.410   1.689  0.00  0.00    +0.023 C 
ENDBRANCH  14  18
ENDBRANCH  12  15
ENDBRANCH   1  12
TORSDOF 6
ENDMDL
MODEL 6
REMARK VINA RESULT:      -4.4      1.490      3.891
REMARK  Name = 192130
REMARK  6 active torsions:
REMARK  status: ('A' for Active; 'I' for Inactive)
REMARK    1  A    between atoms: N_1  and  C_12
REMARK    2  A    between atoms: C_2  and  N_8
REMARK    3  A    between atoms: C_3  and  N_11
REMARK    4  A    between atoms: C_12  and  C_15
REMARK    5  A    between atoms: N_14  and  C_16
REMARK    6  A    between atoms: N_14  and  C_18
REMARK                            x       y       z     vdW  Elec       q    Type
REMARK                         _______ _______ _______ _____ _____    ______ ____
ROOT
ATOM      1  N   UNL     1     -35.729  23.846   4.013  0.00  0.00    -0.241 N 
ATOM      2  C   UNL     1     -35.913  22.500   3.914  0.00  0.00    +0.199 C 
ATOM      3  C   UNL     1     -35.270  24.176   5.252  0.00  0.00    +0.199 C 
ATOM      4  C   UNL     1     -35.563  21.948   5.127  0.00  0.00    +0.043 C 
ATOM      5  C   UNL     1     -35.156  23.008   5.973  0.00  0.00    +0.043 C 
ENDROOT
BRANCH   2   8
ATOM      6  O   UNL     1     -35.556  21.323   1.968  0.00  0.00    -0.125 OA
ATOM      7  O   UNL     1     -37.618  21.874   2.499  0.00  0.00    -0.125 OA
ATOM      8  N   UNL     1     -36.380  21.875   2.748  0.00  0.00    +0.072 N 
ENDBRANCH   2   8
BRANCH   3  11
ATOM      9  O   UNL     1     -33.798  25.909   5.618  0.00  0.00    -0.125 OA
ATOM     10  O   UNL     1     -35.937  26.248   5.999  0.00  0.00    -0.125 OA
ATOM     11  N   UNL     1     -34.990  25.496   5.638  0.00  0.00    +0.072 N 
ENDBRANCH   3  11
BRANCH   1  12
ATOM     12  C   UNL     1     -35.989  24.804   2.938  0.00  0.00    +0.184 C 
BRANCH  12  15
ATOM     13  O   UNL     1     -34.062  24.318   1.599  0.00  0.00    -0.273 OA
ATOM     14  N   UNL     1     -34.407  26.542   2.159  0.00  0.00    -0.278 N 
ATOM     15  C   UNL     1     -34.734  25.181   2.170  0.00  0.00    +0.246 C 
BRANCH  14  16
ATOM     16  C   UNL     1     -33.219  26.990   1.445  0.00  0.00    +0.094 C 
ATOM     17  C   UNL     1     -32.076  27.182   2.385  0.00  0.00    +0.023 C 
ENDBRANCH  14  16
BRANCH  14  18
ATOM     18  C   UNL     1     -35.174  27.597   2.816  0.00  0.00    +0.094 C 
ATOM     19  C   UNL     1     -35.587  28.643   1.834  0.00  0.00    +0.023 C 
ENDBRANCH  14  18
ENDBRANCH  12  15
ENDBRANCH   1  12
TORSDOF 6
ENDMDL
MODEL 7
REMARK VINA RESULT:      -4.3      2.638      3.935
REMARK  Name = 192130
REMARK  6 active torsions:
REMARK  status: ('A' for Active; 'I' for Inactive)
REMARK    1  A    between atoms: N_1  and  C_12
REMARK    2  A    between atoms: C_2  and  N_8
REMARK    3  A    between atoms: C_3  and  N_11
REMARK    4  A    between atoms: C_12  and  C_15
REMARK    5  A    between atoms: N_14  and  C_16
REMARK    6  A    between atoms: N_14  and  C_18
REMARK                            x       y       z     vdW  Elec       q    Type
REMARK                         _______ _______ _______ _____ _____    ______ ____
ROOT
ATOM      1  N   UNL     1     -35.399  24.323   3.990  0.00  0.00    -0.241 N 
ATOM      2  C   UNL     1     -35.285  25.663   3.772  0.00  0.00    +0.199 C 
ATOM      3  C   UNL     1     -35.116  24.025   5.288  0.00  0.00    +0.199 C 
ATOM      4  C   UNL     1     -34.915  26.243   4.966  0.00  0.00    +0.043 C 
ATOM      5  C   UNL     1     -34.808  25.207   5.925  0.00  0.00    +0.043 C 
ENDROOT
BRANCH   2   8
ATOM      6  O   UNL     1     -34.567  26.373   1.703  0.00  0.00    -0.125 OA
ATOM      7  O   UNL     1     -36.679  26.670   2.242  0.00  0.00    -0.125 OA
ATOM      8  N   UNL     1     -35.519  26.258   2.524  0.00  0.00    +0.072 N 
ENDBRANCH   2   8
BRANCH   3  11
ATOM      9  O   UNL     1     -34.139  21.976   5.681  0.00  0.00    -0.125 OA
ATOM     10  O   UNL     1     -36.203  22.306   6.367  0.00  0.00    -0.125 OA
ATOM     11  N   UNL     1     -35.154  22.718   5.798  0.00  0.00    +0.072 N 
ENDBRANCH   3  11
BRANCH   1  12
ATOM     12  C   UNL     1     -35.774  23.342   2.972  0.00  0.00    +0.184 C 
BRANCH  12  15
ATOM     13  O   UNL     1     -38.040  23.706   3.661  0.00  0.00    -0.273 OA
ATOM     14  N   UNL     1     -37.691  22.082   2.043  0.00  0.00    -0.278 N 
ATOM     15  C   UNL     1     -37.268  23.073   2.936  0.00  0.00    +0.246 C 
BRANCH  14  16
ATOM     16  C   UNL     1     -39.109  21.761   1.945  0.00  0.00    +0.094 C 
ATOM     17  C   UNL     1     -39.759  22.562   0.866  0.00  0.00    +0.023 C 
ENDBRANCH  14  16
BRANCH  14  18
ATOM     18  C   UNL     1     -36.816  21.311   1.164  0.00  0.00    +0.094 C 
ATOM     19  C   UNL     1     -36.390  20.040   1.821  0.00  0.00    +0.023 C 
ENDBRANCH  14  18
ENDBRANCH  12  15
ENDBRANCH   1  12
TORSDOF 6
ENDMDL
MODEL 8
REMARK VINA RESULT:      -4.3      1.848      4.325
REMARK  Name = 192130
REMARK  6 active torsions:
REMARK  status: ('A' for Active; 'I' for Inactive)
REMARK    1  A    between atoms: N_1  and  C_12
REMARK    2  A    between atoms: C_2  and  N_8
REMARK    3  A    between atoms: C_3  and  N_11
REMARK    4  A    between atoms: C_12  and  C_15
REMARK    5  A    between atoms: N_14  and  C_16
REMARK    6  A    between atoms: N_14  and  C_18
REMARK                            x       y       z     vdW  Elec       q    Type
REMARK                         _______ _______ _______ _____ _____    ______ ____
ROOT
ATOM      1  N   UNL     1     -35.544  23.497   4.064  0.00  0.00    -0.241 N 
ATOM      2  C   UNL     1     -35.571  22.135   4.076  0.00  0.00    +0.199 C 
ATOM      3  C   UNL     1     -35.312  23.981   5.316  0.00  0.00    +0.199 C 
ATOM      4  C   UNL     1     -35.351  21.732   5.375  0.00  0.00    +0.043 C 
ATOM      5  C   UNL     1     -35.188  22.900   6.159  0.00  0.00    +0.043 C 
ENDROOT
BRANCH   2   8
ATOM      6  O   UNL     1     -34.812  20.808   2.355  0.00  0.00    -0.125 OA
ATOM      7  O   UNL     1     -36.965  21.237   2.479  0.00  0.00    -0.125 OA
ATOM      8  N   UNL     1     -35.791  21.364   2.926  0.00  0.00    +0.072 N 
ENDBRANCH   2   8
BRANCH   3  11
ATOM      9  O   UNL     1     -36.287  26.045   5.625  0.00  0.00    -0.125 OA
ATOM     10  O   UNL     1     -34.104  25.871   5.833  0.00  0.00    -0.125 OA
ATOM     11  N   UNL     1     -35.232  25.353   5.602  0.00  0.00    +0.072 N 
ENDBRANCH   3  11
BRANCH   1  12
ATOM     12  C   UNL     1     -35.737  24.324   2.873  0.00  0.00    +0.184 C 
BRANCH  12  15
ATOM     13  O   UNL     1     -33.489  25.126   2.662  0.00  0.00    -0.273 OA
ATOM     14  N   UNL     1     -34.423  24.139   0.784  0.00  0.00    -0.278 N 
ATOM     15  C   UNL     1     -34.445  24.573   2.114  0.00  0.00    +0.246 C 
BRANCH  14  16
ATOM     16  C   UNL     1     -33.222  24.337  -0.017  0.00  0.00    +0.094 C 
ATOM     17  C   UNL     1     -32.602  23.028  -0.375  0.00  0.00    +0.023 C 
ENDBRANCH  14  16
BRANCH  14  18
ATOM     18  C   UNL     1     -35.528  23.476   0.095  0.00  0.00    +0.094 C 
ATOM     19  C   UNL     1     -36.202  24.414  -0.850  0.00  0.00    +0.023 C 
ENDBRANCH  14  18
ENDBRANCH  12  15
ENDBRANCH   1  12
TORSDOF 6
ENDMDL
MODEL 9
REMARK VINA RESULT:      -4.2      2.068      3.999
REMARK  Name = 192130
REMARK  6 active torsions:
REMARK  status: ('A' for Active; 'I' for Inactive)
REMARK    1  A    between atoms: N_1  and  C_12
REMARK    2  A    between atoms: C_2  and  N_8
REMARK    3  A    between atoms: C_3  and  N_11
REMARK    4  A    between atoms: C_12  and  C_15
REMARK    5  A    between atoms: N_14  and  C_16
REMARK    6  A    between atoms: N_14  and  C_18
REMARK                            x       y       z     vdW  Elec       q    Type
REMARK                         _______ _______ _______ _____ _____    ______ ____
ROOT
ATOM      1  N   UNL     1     -35.436  25.121   3.454  0.00  0.00    -0.241 N 
ATOM      2  C   UNL     1     -36.192  24.162   4.059  0.00  0.00    +0.199 C 
ATOM      3  C   UNL     1     -34.533  25.641   4.330  0.00  0.00    +0.199 C 
ATOM      4  C   UNL     1     -35.761  24.063   5.365  0.00  0.00    +0.043 C 
ATOM      5  C   UNL     1     -34.712  25.000   5.536  0.00  0.00    +0.043 C 
ENDROOT
BRANCH   2   8
ATOM      6  O   UNL     1     -38.379  23.915   3.384  0.00  0.00    -0.125 OA
ATOM      7  O   UNL     1     -36.924  22.365   2.821  0.00  0.00    -0.125 OA
ATOM      8  N   UNL     1     -37.204  23.453   3.396  0.00  0.00    +0.072 N 
ENDBRANCH   2   8
BRANCH   3  11
ATOM      9  O   UNL     1     -32.517  26.334   3.456  0.00  0.00    -0.125 OA
ATOM     10  O   UNL     1     -33.921  27.856   4.197  0.00  0.00    -0.125 OA
ATOM     11  N   UNL     1     -33.622  26.649   3.980  0.00  0.00    +0.072 N 
ENDBRANCH   3  11
BRANCH   1  12
ATOM     12  C   UNL     1     -35.577  25.534   2.057  0.00  0.00    +0.184 C 
BRANCH  12  15
ATOM     13  O   UNL     1     -37.537  26.881   2.348  0.00  0.00    -0.273 OA
ATOM     14  N   UNL     1     -35.759  27.858   1.226  0.00  0.00    -0.278 N 
ATOM     15  C   UNL     1     -36.391  26.807   1.900  0.00  0.00    +0.246 C 
BRANCH  14  16
ATOM     16  C   UNL     1     -36.468  29.116   1.032  0.00  0.00    +0.094 C 
ATOM     17  C   UNL     1     -35.862  30.199   1.861  0.00  0.00    +0.023 C 
ENDBRANCH  14  16
BRANCH  14  18
ATOM     18  C   UNL     1     -34.403  27.817   0.683  0.00  0.00    +0.094 C 
ATOM     19  C   UNL     1     -34.431  27.696  -0.804  0.00  0.00    +0.023 C 
ENDBRANCH  14  18
ENDBRANCH  12  15
ENDBRANCH   1  12
TORSDOF 6
ENDMDL
