MODEL 1
REMARK VINA RESULT:      -7.0      0.000      0.000
REMARK  Name = 195012
REMARK  10 active torsions:
REMARK  status: ('A' for Active; 'I' for Inactive)
REMARK    1  A    between atoms: C_9  and  C_29
REMARK    2  A    between atoms: C_10  and  O_23
REMARK    3  A    between atoms: C_12  and  O_25
REMARK    4  A    between atoms: C_19  and  O_27
REMARK    5  A    between atoms: C_29  and  O_31
REMARK    6  A    between atoms: C_29  and  C_33
REMARK    7  A    between atoms: C_33  and  C_34
REMARK    8  A    between atoms: C_34  and  C_35
REMARK    9  A    between atoms: C_35  and  C_36
REMARK   10  A    between atoms: C_36  and  O_39
REMARK                            x       y       z     vdW  Elec       q    Type
REMARK                         _______ _______ _______ _____ _____    ______ ____
ROOT
ATOM      1  C   UNL     1     -36.052  22.119   1.342  0.00  0.00    +0.002 C 
ATOM      2  C   UNL     1     -36.761  22.982   2.539  0.00  0.00    +0.002 C 
ATOM      3  C   UNL     1     -34.856  22.920   0.710  0.00  0.00    +0.003 C 
ATOM      4  C   UNL     1     -33.883  22.119  -0.277  0.00  0.00    +0.002 C 
ATOM      5  C   UNL     1     -36.493  24.520   2.430  0.00  0.00    +0.029 C 
ATOM      6  C   UNL     1     -33.390  20.814   0.476  0.00  0.00    +0.029 C 
ATOM      7  C   UNL     1     -35.501  20.776   1.887  0.00  0.00    +0.029 C 
ATOM      8  C   UNL     1     -35.290  24.309   0.168  0.00  0.00    +0.029 C 
ATOM      9  C   UNL     1     -35.252  24.831   3.316  0.00  0.00    +0.027 C 
ATOM     10  C   UNL     1     -36.336  25.048   1.009  0.00  0.00    +0.111 C 
ATOM     11  C   UNL     1     -36.235  22.732   3.983  0.00  0.00    +0.000 C 
ATOM     12  C   UNL     1     -34.614  19.968   0.926  0.00  0.00    +0.111 C 
ATOM     13  C   UNL     1     -32.193  20.040  -0.220  0.00  0.00    +0.027 C 
ATOM     14  C   UNL     1     -34.977  23.564   4.130  0.00  0.00    +0.002 C 
ATOM     15  C   UNL     1     -32.640  23.016  -0.564  0.00  0.00    +0.003 C 
ATOM     16  C   UNL     1     -37.100  21.751   0.253  0.00  0.00    +0.000 C 
ATOM     17  C   UNL     1     -38.289  22.721   2.613  0.00  0.00    +0.000 C 
ATOM     18  C   UNL     1     -34.554  21.809  -1.641  0.00  0.00    +0.000 C 
ATOM     19  C   UNL     1     -31.046  21.057  -0.520  0.00  0.00    +0.110 C 
ATOM     20  C   UNL     1     -31.495  22.302  -1.271  0.00  0.00    +0.029 C 
ATOM     21  C   UNL     1     -32.611  19.277  -1.493  0.00  0.00    +0.002 C 
ATOM     22  C   UNL     1     -31.575  18.976   0.732  0.00  0.00    +0.002 C 
ENDROOT
BRANCH  10  23
ATOM     23  O   UNL     1     -37.607  25.000   0.361  0.00  0.00    -0.384 OA
ATOM     24  H   UNL     1     -37.796  24.090   0.087  0.00  0.00    +0.210 HD
ENDBRANCH  10  23
BRANCH  12  25
ATOM     25  O   UNL     1     -34.210  18.809   1.650  0.00  0.00    -0.384 OA
ATOM     26  H   UNL     1     -34.995  18.312   1.929  0.00  0.00    +0.210 HD
ENDBRANCH  12  25
BRANCH  19  27
ATOM     27  O   UNL     1     -30.004  20.432  -1.271  0.00  0.00    -0.384 OA
ATOM     28  H   UNL     1     -30.004  20.779  -2.177  0.00  0.00    +0.210 HD
ENDBRANCH  19  27
BRANCH   9  29
ATOM     29  C   UNL     1     -35.504  26.039   4.218  0.00  0.00    +0.088 C 
ATOM     30  C   UNL     1     -35.113  27.326   3.482  0.00  0.00    +0.029 C 
BRANCH  29  31
ATOM     31  O   UNL     1     -36.907  26.095   4.483  0.00  0.00    -0.387 OA
ATOM     32  H   UNL     1     -37.243  26.977   4.258  0.00  0.00    +0.210 HD
ENDBRANCH  29  31
BRANCH  29  33
ATOM     33  C   UNL     1     -34.737  25.950   5.556  0.00  0.00    +0.027 C 
BRANCH  33  34
ATOM     34  C   UNL     1     -33.252  26.334   5.464  0.00  0.00    +0.005 C 
BRANCH  34  35
ATOM     35  C   UNL     1     -32.852  27.250   6.626  0.00  0.00    +0.027 C 
BRANCH  35  36
ATOM     36  C   UNL     1     -31.675  28.205   6.343  0.00  0.00    +0.088 C 
ATOM     37  C   UNL     1     -31.760  29.497   7.158  0.00  0.00    +0.029 C 
ATOM     38  C   UNL     1     -31.535  28.527   4.854  0.00  0.00    +0.029 C 
BRANCH  36  39
ATOM     39  O   UNL     1     -30.471  27.527   6.728  0.00  0.00    -0.387 OA
ATOM     40  H   UNL     1     -29.998  27.233   5.935  0.00  0.00    +0.210 HD
ENDBRANCH  36  39
ENDBRANCH  35  36
ENDBRANCH  34  35
ENDBRANCH  33  34
ENDBRANCH  29  33
ENDBRANCH   9  29
TORSDOF 10
ENDMDL
MODEL 2
REMARK VINA RESULT:      -7.0      1.948      3.194
REMARK  Name = 195012
REMARK  10 active torsions:
REMARK  status: ('A' for Active; 'I' for Inactive)
REMARK    1  A    between atoms: C_9  and  C_29
REMARK    2  A    between atoms: C_10  and  O_23
REMARK    3  A    between atoms: C_12  and  O_25
REMARK    4  A    between atoms: C_19  and  O_27
REMARK    5  A    between atoms: C_29  and  O_31
REMARK    6  A    between atoms: C_29  and  C_33
REMARK    7  A    between atoms: C_33  and  C_34
REMARK    8  A    between atoms: C_34  and  C_35
REMARK    9  A    between atoms: C_35  and  C_36
REMARK   10  A    between atoms: C_36  and  O_39
REMARK                            x       y       z     vdW  Elec       q    Type
REMARK                         _______ _______ _______ _____ _____    ______ ____
ROOT
ATOM      1  C   UNL     1     -36.047  24.194   3.267  0.00  0.00    +0.002 C 
ATOM      2  C   UNL     1     -35.451  25.532   3.997  0.00  0.00    +0.002 C 
ATOM      3  C   UNL     1     -35.759  24.227   1.721  0.00  0.00    +0.003 C 
ATOM      4  C   UNL     1     -36.025  22.878   0.901  0.00  0.00    +0.002 C 
ATOM      5  C   UNL     1     -35.242  26.731   3.012  0.00  0.00    +0.029 C 
ATOM      6  C   UNL     1     -35.244  21.705   1.626  0.00  0.00    +0.029 C 
ATOM      7  C   UNL     1     -35.399  22.914   3.854  0.00  0.00    +0.029 C 
ATOM      8  C   UNL     1     -36.331  25.498   1.035  0.00  0.00    +0.029 C 
ATOM      9  C   UNL     1     -33.764  26.671   2.526  0.00  0.00    +0.027 C 
ATOM     10  C   UNL     1     -36.230  26.791   1.852  0.00  0.00    +0.111 C 
ATOM     11  C   UNL     1     -34.009  25.425   4.577  0.00  0.00    +0.000 C 
ATOM     12  C   UNL     1     -35.697  21.603   3.110  0.00  0.00    +0.111 C 
ATOM     13  C   UNL     1     -35.142  20.350   0.806  0.00  0.00    +0.027 C 
ATOM     14  C   UNL     1     -33.062  25.639   3.413  0.00  0.00    +0.002 C 
ATOM     15  C   UNL     1     -35.426  23.055  -0.527  0.00  0.00    +0.003 C 
ATOM     16  C   UNL     1     -37.575  24.073   3.535  0.00  0.00    +0.000 C 
ATOM     17  C   UNL     1     -36.334  25.984   5.190  0.00  0.00    +0.000 C 
ATOM     18  C   UNL     1     -37.538  22.580   0.735  0.00  0.00    +0.000 C 
ATOM     19  C   UNL     1     -34.601  20.670  -0.624  0.00  0.00    +0.110 C 
ATOM     20  C   UNL     1     -35.359  21.772  -1.347  0.00  0.00    +0.029 C 
ATOM     21  C   UNL     1     -36.470  19.569   0.740  0.00  0.00    +0.002 C 
ATOM     22  C   UNL     1     -34.106  19.379   1.442  0.00  0.00    +0.002 C 
ENDROOT
BRANCH  10  23
ATOM     23  O   UNL     1     -37.513  27.147   2.363  0.00  0.00    -0.384 OA
ATOM     24  H   UNL     1     -37.867  27.895   1.857  0.00  0.00    +0.210 HD
ENDBRANCH  10  23
BRANCH  12  25
ATOM     25  O   UNL     1     -34.980  20.587   3.806  0.00  0.00    -0.384 OA
ATOM     26  H   UNL     1     -34.833  19.832   3.215  0.00  0.00    +0.210 HD
ENDBRANCH  12  25
BRANCH  19  27
ATOM     27  O   UNL     1     -34.623  19.499  -1.442  0.00  0.00    -0.384 OA
ATOM     28  H   UNL     1     -34.801  18.721  -0.891  0.00  0.00    +0.210 HD
ENDBRANCH  19  27
BRANCH   9  29
ATOM     29  C   UNL     1     -33.096  28.043   2.618  0.00  0.00    +0.088 C 
ATOM     30  C   UNL     1     -33.280  28.798   1.296  0.00  0.00    +0.029 C 
BRANCH  29  31
ATOM     31  O   UNL     1     -33.766  28.782   3.641  0.00  0.00    -0.387 OA
ATOM     32  H   UNL     1     -34.657  28.422   3.770  0.00  0.00    +0.210 HD
ENDBRANCH  29  31
BRANCH  29  33
ATOM     33  C   UNL     1     -31.593  27.948   2.960  0.00  0.00    +0.027 C 
BRANCH  33  34
ATOM     34  C   UNL     1     -31.037  29.162   3.721  0.00  0.00    +0.005 C 
BRANCH  34  35
ATOM     35  C   UNL     1     -30.385  28.729   5.039  0.00  0.00    +0.027 C 
BRANCH  35  36
ATOM     36  C   UNL     1     -31.200  29.031   6.312  0.00  0.00    +0.088 C 
ATOM     37  C   UNL     1     -32.179  27.907   6.662  0.00  0.00    +0.029 C 
ATOM     38  C   UNL     1     -31.938  30.367   6.226  0.00  0.00    +0.029 C 
BRANCH  36  39
ATOM     39  O   UNL     1     -30.270  29.148   7.398  0.00  0.00    -0.387 OA
ATOM     40  H   UNL     1     -29.364  29.125   7.051  0.00  0.00    +0.210 HD
ENDBRANCH  36  39
ENDBRANCH  35  36
ENDBRANCH  34  35
ENDBRANCH  33  34
ENDBRANCH  29  33
ENDBRANCH   9  29
TORSDOF 10
ENDMDL
MODEL 3
REMARK VINA RESULT:      -7.0      2.288      8.551
REMARK  Name = 195012
REMARK  10 active torsions:
REMARK  status: ('A' for Active; 'I' for Inactive)
REMARK    1  A    between atoms: C_9  and  C_29
REMARK    2  A    between atoms: C_10  and  O_23
REMARK    3  A    between atoms: C_12  and  O_25
REMARK    4  A    between atoms: C_19  and  O_27
REMARK    5  A    between atoms: C_29  and  O_31
REMARK    6  A    between atoms: C_29  and  C_33
REMARK    7  A    between atoms: C_33  and  C_34
REMARK    8  A    between atoms: C_34  and  C_35
REMARK    9  A    between atoms: C_35  and  C_36
REMARK   10  A    between atoms: C_36  and  O_39
REMARK                            x       y       z     vdW  Elec       q    Type
REMARK                         _______ _______ _______ _____ _____    ______ ____
ROOT
ATOM      1  C   UNL     1     -35.624  22.355   0.579  0.00  0.00    +0.002 C 
ATOM      2  C   UNL     1     -34.987  21.180  -0.366  0.00  0.00    +0.002 C 
ATOM      3  C   UNL     1     -35.248  22.122   2.088  0.00  0.00    +0.003 C 
ATOM      4  C   UNL     1     -35.551  23.319   3.108  0.00  0.00    +0.002 C 
ATOM      5  C   UNL     1     -34.648  19.871   0.422  0.00  0.00    +0.029 C 
ATOM      6  C   UNL     1     -34.887  24.635   2.528  0.00  0.00    +0.029 C 
ATOM      7  C   UNL     1     -35.091  23.748   0.156  0.00  0.00    +0.029 C 
ATOM      8  C   UNL     1     -35.699  20.730   2.607  0.00  0.00    +0.029 C 
ATOM      9  C   UNL     1     -33.152  19.965   0.842  0.00  0.00    +0.027 C 
ATOM     10  C   UNL     1     -35.563  19.577   1.606  0.00  0.00    +0.111 C 
ATOM     11  C   UNL     1     -33.590  21.470  -0.990  0.00  0.00    +0.000 C 
ATOM     12  C   UNL     1     -35.429  24.916   1.097  0.00  0.00    +0.111 C 
ATOM     13  C   UNL     1     -34.824  25.862   3.531  0.00  0.00    +0.027 C 
ATOM     14  C   UNL     1     -32.567  21.159   0.085  0.00  0.00    +0.002 C 
ATOM     15  C   UNL     1     -34.863  22.982   4.466  0.00  0.00    +0.003 C 
ATOM     16  C   UNL     1     -37.168  22.405   0.403  0.00  0.00    +0.000 C 
ATOM     17  C   UNL     1     -35.906  20.843  -1.570  0.00  0.00    +0.000 C 
ATOM     18  C   UNL     1     -37.069  23.482   3.387  0.00  0.00    +0.000 C 
ATOM     19  C   UNL     1     -34.185  25.381   4.872  0.00  0.00    +0.110 C 
ATOM     20  C   UNL     1     -34.830  24.136   5.461  0.00  0.00    +0.029 C 
ATOM     21  C   UNL     1     -36.193  26.531   3.772  0.00  0.00    +0.002 C 
ATOM     22  C   UNL     1     -33.889  26.985   2.997  0.00  0.00    +0.002 C 
ENDROOT
BRANCH  10  23
ATOM     23  O   UNL     1     -36.849  19.208   1.109  0.00  0.00    -0.384 OA
ATOM     24  H   UNL     1     -36.794  18.337   0.685  0.00  0.00    +0.210 HD
ENDBRANCH  10  23
BRANCH  12  25
ATOM     25  O   UNL     1     -34.817  26.068   0.524  0.00  0.00    -0.384 OA
ATOM     26  H   UNL     1     -33.956  25.825   0.149  0.00  0.00    +0.210 HD
ENDBRANCH  12  25
BRANCH  19  27
ATOM     27  O   UNL     1     -34.234  26.418   5.853  0.00  0.00    -0.384 OA
ATOM     28  H   UNL     1     -34.344  27.276   5.413  0.00  0.00    +0.210 HD
ENDBRANCH  19  27
BRANCH   9  29
ATOM     29  C   UNL     1     -32.405  18.671   0.520  0.00  0.00    +0.088 C 
ATOM     30  C   UNL     1     -30.925  18.978   0.259  0.00  0.00    +0.029 C 
BRANCH  29  31
ATOM     31  O   UNL     1     -32.480  17.829   1.673  0.00  0.00    -0.387 OA
ATOM     32  H   UNL     1     -33.239  18.093   2.216  0.00  0.00    +0.210 HD
ENDBRANCH  29  31
BRANCH  29  33
ATOM     33  C   UNL     1     -33.005  17.926  -0.693  0.00  0.00    +0.027 C 
BRANCH  33  34
ATOM     34  C   UNL     1     -33.847  16.693  -0.328  0.00  0.00    +0.005 C 
BRANCH  34  35
ATOM     35  C   UNL     1     -35.160  16.675  -1.119  0.00  0.00    +0.027 C 
BRANCH  35  36
ATOM     36  C   UNL     1     -36.199  15.635  -0.655  0.00  0.00    +0.088 C 
ATOM     37  C   UNL     1     -36.320  14.454  -1.621  0.00  0.00    +0.029 C 
ATOM     38  C   UNL     1     -37.573  16.259  -0.408  0.00  0.00    +0.029 C 
BRANCH  36  39
ATOM     39  O   UNL     1     -35.754  15.119   0.607  0.00  0.00    -0.387 OA
ATOM     40  H   UNL     1     -34.921  15.549   0.856  0.00  0.00    +0.210 HD
ENDBRANCH  36  39
ENDBRANCH  35  36
ENDBRANCH  34  35
ENDBRANCH  33  34
ENDBRANCH  29  33
ENDBRANCH   9  29
TORSDOF 10
ENDMDL
MODEL 4
REMARK VINA RESULT:      -6.6      2.156      8.558
REMARK  Name = 195012
REMARK  10 active torsions:
REMARK  status: ('A' for Active; 'I' for Inactive)
REMARK    1  A    between atoms: C_9  and  C_29
REMARK    2  A    between atoms: C_10  and  O_23
REMARK    3  A    between atoms: C_12  and  O_25
REMARK    4  A    between atoms: C_19  and  O_27
REMARK    5  A    between atoms: C_29  and  O_31
REMARK    6  A    between atoms: C_29  and  C_33
REMARK    7  A    between atoms: C_33  and  C_34
REMARK    8  A    between atoms: C_34  and  C_35
REMARK    9  A    between atoms: C_35  and  C_36
REMARK   10  A    between atoms: C_36  and  O_39
REMARK                            x       y       z     vdW  Elec       q    Type
REMARK                         _______ _______ _______ _____ _____    ______ ____
ROOT
ATOM      1  C   UNL     1     -35.605  22.302   0.537  0.00  0.00    +0.002 C 
ATOM      2  C   UNL     1     -34.927  21.168  -0.429  0.00  0.00    +0.002 C 
ATOM      3  C   UNL     1     -35.252  22.033   2.046  0.00  0.00    +0.003 C 
ATOM      4  C   UNL     1     -35.598  23.193   3.093  0.00  0.00    +0.002 C 
ATOM      5  C   UNL     1     -34.577  19.843   0.328  0.00  0.00    +0.029 C 
ATOM      6  C   UNL     1     -34.950  24.539   2.563  0.00  0.00    +0.029 C 
ATOM      7  C   UNL     1     -35.092  23.717   0.164  0.00  0.00    +0.029 C 
ATOM      8  C   UNL     1     -35.685  20.618   2.515  0.00  0.00    +0.029 C 
ATOM      9  C   UNL     1     -33.091  19.953   0.779  0.00  0.00    +0.027 C 
ATOM     10  C   UNL     1     -35.508  19.497   1.485  0.00  0.00    +0.111 C 
ATOM     11  C   UNL     1     -33.524  21.503  -1.018  0.00  0.00    +0.000 C 
ATOM     12  C   UNL     1     -35.470  24.850   1.132  0.00  0.00    +0.111 C 
ATOM     13  C   UNL     1     -34.929  25.737   3.603  0.00  0.00    +0.027 C 
ATOM     14  C   UNL     1     -32.516  21.180   0.067  0.00  0.00    +0.002 C 
ATOM     15  C   UNL     1     -34.928  22.831   4.454  0.00  0.00    +0.003 C 
ATOM     16  C   UNL     1     -37.146  22.328   0.333  0.00  0.00    +0.000 C 
ATOM     17  C   UNL     1     -35.817  20.848  -1.659  0.00  0.00    +0.000 C 
ATOM     18  C   UNL     1     -37.123  23.320   3.347  0.00  0.00    +0.000 C 
ATOM     19  C   UNL     1     -34.305  25.230   4.941  0.00  0.00    +0.110 C 
ATOM     20  C   UNL     1     -34.937  23.956   5.482  0.00  0.00    +0.029 C 
ATOM     21  C   UNL     1     -36.315  26.372   3.837  0.00  0.00    +0.002 C 
ATOM     22  C   UNL     1     -34.007  26.893   3.119  0.00  0.00    +0.002 C 
ENDROOT
BRANCH  10  23
ATOM     23  O   UNL     1     -36.776  19.118   0.953  0.00  0.00    -0.384 OA
ATOM     24  H   UNL     1     -36.983  19.671   0.183  0.00  0.00    +0.210 HD
ENDBRANCH  10  23
BRANCH  12  25
ATOM     25  O   UNL     1     -34.870  26.030   0.604  0.00  0.00    -0.384 OA
ATOM     26  H   UNL     1     -35.361  26.318  -0.183  0.00  0.00    +0.210 HD
ENDBRANCH  12  25
BRANCH  19  27
ATOM     27  O   UNL     1     -34.393  26.237   5.950  0.00  0.00    -0.384 OA
ATOM     28  H   UNL     1     -34.428  27.112   5.533  0.00  0.00    +0.210 HD
ENDBRANCH  19  27
BRANCH   9  29
ATOM     29  C   UNL     1     -32.313  18.684   0.434  0.00  0.00    +0.088 C 
ATOM     30  C   UNL     1     -30.838  19.030   0.191  0.00  0.00    +0.029 C 
BRANCH  29  31
ATOM     31  O   UNL     1     -32.376  17.816   1.568  0.00  0.00    -0.387 OA
ATOM     32  H   UNL     1     -32.950  18.210   2.243  0.00  0.00    +0.210 HD
ENDBRANCH  29  31
BRANCH  29  33
ATOM     33  C   UNL     1     -32.887  17.953  -0.799  0.00  0.00    +0.027 C 
BRANCH  33  34
ATOM     34  C   UNL     1     -31.826  17.337  -1.724  0.00  0.00    +0.005 C 
BRANCH  34  35
ATOM     35  C   UNL     1     -32.037  15.825  -1.868  0.00  0.00    +0.027 C 
BRANCH  35  36
ATOM     36  C   UNL     1     -31.333  14.953  -0.810  0.00  0.00    +0.088 C 
ATOM     37  C   UNL     1     -29.974  15.520  -0.392  0.00  0.00    +0.029 C 
ATOM     38  C   UNL     1     -31.183  13.500  -1.263  0.00  0.00    +0.029 C 
BRANCH  36  39
ATOM     39  O   UNL     1     -32.171  14.933   0.354  0.00  0.00    -0.387 OA
ATOM     40  H   UNL     1     -32.444  15.838   0.571  0.00  0.00    +0.210 HD
ENDBRANCH  36  39
ENDBRANCH  35  36
ENDBRANCH  34  35
ENDBRANCH  33  34
ENDBRANCH  29  33
ENDBRANCH   9  29
TORSDOF 10
ENDMDL
MODEL 5
REMARK VINA RESULT:      -6.5      2.725      4.352
REMARK  Name = 195012
REMARK  10 active torsions:
REMARK  status: ('A' for Active; 'I' for Inactive)
REMARK    1  A    between atoms: C_9  and  C_29
REMARK    2  A    between atoms: C_10  and  O_23
REMARK    3  A    between atoms: C_12  and  O_25
REMARK    4  A    between atoms: C_19  and  O_27
REMARK    5  A    between atoms: C_29  and  O_31
REMARK    6  A    between atoms: C_29  and  C_33
REMARK    7  A    between atoms: C_33  and  C_34
REMARK    8  A    between atoms: C_34  and  C_35
REMARK    9  A    between atoms: C_35  and  C_36
REMARK   10  A    between atoms: C_36  and  O_39
REMARK                            x       y       z     vdW  Elec       q    Type
REMARK                         _______ _______ _______ _____ _____    ______ ____
ROOT
ATOM      1  C   UNL     1     -35.607  21.417  -0.003  0.00  0.00    +0.002 C 
ATOM      2  C   UNL     1     -36.329  22.546   0.937  0.00  0.00    +0.002 C 
ATOM      3  C   UNL     1     -34.072  21.317   0.324  0.00  0.00    +0.003 C 
ATOM      4  C   UNL     1     -33.273  20.078  -0.301  0.00  0.00    +0.002 C 
ATOM      5  C   UNL     1     -35.326  23.601   1.513  0.00  0.00    +0.029 C 
ATOM      6  C   UNL     1     -34.050  18.751   0.085  0.00  0.00    +0.029 C 
ATOM      7  C   UNL     1     -36.244  20.022   0.228  0.00  0.00    +0.029 C 
ATOM      8  C   UNL     1     -33.339  22.676   0.166  0.00  0.00    +0.029 C 
ATOM      9  C   UNL     1     -34.894  23.099   2.922  0.00  0.00    +0.027 C 
ATOM     10  C   UNL     1     -34.131  23.909   0.617  0.00  0.00    +0.111 C 
ATOM     11  C   UNL     1     -36.961  22.043   2.268  0.00  0.00    +0.000 C 
ATOM     12  C   UNL     1     -35.519  18.831  -0.419  0.00  0.00    +0.111 C 
ATOM     13  C   UNL     1     -33.263  17.401  -0.189  0.00  0.00    +0.027 C 
ATOM     14  C   UNL     1     -35.827  21.937   3.268  0.00  0.00    +0.002 C 
ATOM     15  C   UNL     1     -31.863  20.029   0.363  0.00  0.00    +0.003 C 
ATOM     16  C   UNL     1     -35.824  21.753  -1.506  0.00  0.00    +0.000 C 
ATOM     17  C   UNL     1     -37.480  23.271   0.191  0.00  0.00    +0.000 C 
ATOM     18  C   UNL     1     -33.060  20.227  -1.830  0.00  0.00    +0.000 C 
ATOM     19  C   UNL     1     -31.847  17.505   0.460  0.00  0.00    +0.110 C 
ATOM     20  C   UNL     1     -31.074  18.757   0.076  0.00  0.00    +0.029 C 
ATOM     21  C   UNL     1     -33.168  17.037  -1.685  0.00  0.00    +0.002 C 
ATOM     22  C   UNL     1     -33.957  16.191   0.501  0.00  0.00    +0.002 C 
ENDROOT
BRANCH  10  23
ATOM     23  O   UNL     1     -34.589  24.638  -0.520  0.00  0.00    -0.384 OA
ATOM     24  H   UNL     1     -34.085  25.464  -0.600  0.00  0.00    +0.210 HD
ENDBRANCH  10  23
BRANCH  12  25
ATOM     25  O   UNL     1     -36.262  17.674  -0.047  0.00  0.00    -0.384 OA
ATOM     26  H   UNL     1     -36.450  17.701   0.904  0.00  0.00    +0.210 HD
ENDBRANCH  12  25
BRANCH  19  27
ATOM     27  O   UNL     1     -31.054  16.366   0.121  0.00  0.00    -0.384 OA
ATOM     28  H   UNL     1     -30.837  16.392  -0.824  0.00  0.00    +0.210 HD
ENDBRANCH  19  27
BRANCH   9  29
ATOM     29  C   UNL     1     -34.980  24.220   3.958  0.00  0.00    +0.088 C 
ATOM     30  C   UNL     1     -35.696  23.710   5.215  0.00  0.00    +0.029 C 
BRANCH  29  31
ATOM     31  O   UNL     1     -33.644  24.570   4.328  0.00  0.00    -0.387 OA
ATOM     32  H   UNL     1     -33.020  24.158   3.710  0.00  0.00    +0.210 HD
ENDBRANCH  29  31
BRANCH  29  33
ATOM     33  C   UNL     1     -35.702  25.473   3.418  0.00  0.00    +0.027 C 
BRANCH  33  34
ATOM     34  C   UNL     1     -37.193  25.554   3.784  0.00  0.00    +0.005 C 
BRANCH  34  35
ATOM     35  C   UNL     1     -38.003  26.174   2.640  0.00  0.00    +0.027 C 
BRANCH  35  36
ATOM     36  C   UNL     1     -39.485  25.752   2.572  0.00  0.00    +0.088 C 
ATOM     37  C   UNL     1     -39.705  24.309   3.030  0.00  0.00    +0.029 C 
ATOM     38  C   UNL     1     -40.084  25.963   1.181  0.00  0.00    +0.029 C 
BRANCH  36  39
ATOM     39  O   UNL     1     -40.214  26.606   3.464  0.00  0.00    -0.387 OA
ATOM     40  H   UNL     1     -40.296  26.176   4.329  0.00  0.00    +0.210 HD
ENDBRANCH  36  39
ENDBRANCH  35  36
ENDBRANCH  34  35
ENDBRANCH  33  34
ENDBRANCH  29  33
ENDBRANCH   9  29
TORSDOF 10
ENDMDL
MODEL 6
REMARK VINA RESULT:      -6.4      2.159      8.243
REMARK  Name = 195012
REMARK  10 active torsions:
REMARK  status: ('A' for Active; 'I' for Inactive)
REMARK    1  A    between atoms: C_9  and  C_29
REMARK    2  A    between atoms: C_10  and  O_23
REMARK    3  A    between atoms: C_12  and  O_25
REMARK    4  A    between atoms: C_19  and  O_27
REMARK    5  A    between atoms: C_29  and  O_31
REMARK    6  A    between atoms: C_29  and  C_33
REMARK    7  A    between atoms: C_33  and  C_34
REMARK    8  A    between atoms: C_34  and  C_35
REMARK    9  A    between atoms: C_35  and  C_36
REMARK   10  A    between atoms: C_36  and  O_39
REMARK                            x       y       z     vdW  Elec       q    Type
REMARK                         _______ _______ _______ _____ _____    ______ ____
ROOT
ATOM      1  C   UNL     1     -35.604  22.317   0.553  0.00  0.00    +0.002 C 
ATOM      2  C   UNL     1     -34.959  21.135  -0.378  0.00  0.00    +0.002 C 
ATOM      3  C   UNL     1     -35.235  22.099   2.066  0.00  0.00    +0.003 C 
ATOM      4  C   UNL     1     -35.546  23.305   3.073  0.00  0.00    +0.002 C 
ATOM      5  C   UNL     1     -34.621  19.834   0.424  0.00  0.00    +0.029 C 
ATOM      6  C   UNL     1     -34.883  24.617   2.483  0.00  0.00    +0.029 C 
ATOM      7  C   UNL     1     -35.073  23.708   0.119  0.00  0.00    +0.029 C 
ATOM      8  C   UNL     1     -35.685  20.711   2.595  0.00  0.00    +0.029 C 
ATOM      9  C   UNL     1     -33.128  19.935   0.850  0.00  0.00    +0.027 C 
ATOM     10  C   UNL     1     -35.542  19.549   1.606  0.00  0.00    +0.111 C 
ATOM     11  C   UNL     1     -33.560  21.422  -0.998  0.00  0.00    +0.000 C 
ATOM     12  C   UNL     1     -35.417  24.883   1.047  0.00  0.00    +0.111 C 
ATOM     13  C   UNL     1     -34.827  25.854   3.475  0.00  0.00    +0.027 C 
ATOM     14  C   UNL     1     -32.542  21.124   0.084  0.00  0.00    +0.002 C 
ATOM     15  C   UNL     1     -34.864  22.983   4.437  0.00  0.00    +0.003 C 
ATOM     16  C   UNL     1     -37.148  22.362   0.369  0.00  0.00    +0.000 C 
ATOM     17  C   UNL     1     -35.872  20.784  -1.583  0.00  0.00    +0.000 C 
ATOM     18  C   UNL     1     -37.065  23.467   3.342  0.00  0.00    +0.000 C 
ATOM     19  C   UNL     1     -34.193  25.387   4.823  0.00  0.00    +0.110 C 
ATOM     20  C   UNL     1     -34.839  24.146   5.421  0.00  0.00    +0.029 C 
ATOM     21  C   UNL     1     -36.199  26.522   3.703  0.00  0.00    +0.002 C 
ATOM     22  C   UNL     1     -33.892  26.974   2.934  0.00  0.00    +0.002 C 
ENDROOT
BRANCH  10  23
ATOM     23  O   UNL     1     -36.824  19.172   1.106  0.00  0.00    -0.384 OA
ATOM     24  H   UNL     1     -37.236  18.540   1.715  0.00  0.00    +0.210 HD
ENDBRANCH  10  23
BRANCH  12  25
ATOM     25  O   UNL     1     -34.806  26.031   0.466  0.00  0.00    -0.384 OA
ATOM     26  H   UNL     1     -34.625  25.862  -0.472  0.00  0.00    +0.210 HD
ENDBRANCH  12  25
BRANCH  19  27
ATOM     27  O   UNL     1     -34.250  26.433   5.794  0.00  0.00    -0.384 OA
ATOM     28  H   UNL     1     -34.671  27.215   5.404  0.00  0.00    +0.210 HD
ENDBRANCH  19  27
BRANCH   9  29
ATOM     29  C   UNL     1     -32.376  18.640   0.544  0.00  0.00    +0.088 C 
ATOM     30  C   UNL     1     -30.930  18.962   0.147  0.00  0.00    +0.029 C 
BRANCH  29  31
ATOM     31  O   UNL     1     -32.337  17.868   1.747  0.00  0.00    -0.387 OA
ATOM     32  H   UNL     1     -32.463  16.931   1.533  0.00  0.00    +0.210 HD
ENDBRANCH  29  31
BRANCH  29  33
ATOM     33  C   UNL     1     -33.051  17.812  -0.571  0.00  0.00    +0.027 C 
BRANCH  33  34
ATOM     34  C   UNL     1     -32.208  17.655  -1.845  0.00  0.00    +0.005 C 
BRANCH  34  35
ATOM     35  C   UNL     1     -33.064  17.875  -3.098  0.00  0.00    +0.027 C 
BRANCH  35  36
ATOM     36  C   UNL     1     -32.577  18.988  -4.048  0.00  0.00    +0.088 C 
ATOM     37  C   UNL     1     -31.399  19.776  -3.471  0.00  0.00    +0.029 C 
ATOM     38  C   UNL     1     -33.704  19.939  -4.452  0.00  0.00    +0.029 C 
BRANCH  36  39
ATOM     39  O   UNL     1     -32.127  18.354  -5.253  0.00  0.00    -0.387 OA
ATOM     40  H   UNL     1     -31.597  18.982  -5.769  0.00  0.00    +0.210 HD
ENDBRANCH  36  39
ENDBRANCH  35  36
ENDBRANCH  34  35
ENDBRANCH  33  34
ENDBRANCH  29  33
ENDBRANCH   9  29
TORSDOF 10
ENDMDL
MODEL 7
REMARK VINA RESULT:      -6.3      2.698      4.151
REMARK  Name = 195012
REMARK  10 active torsions:
REMARK  status: ('A' for Active; 'I' for Inactive)
REMARK    1  A    between atoms: C_9  and  C_29
REMARK    2  A    between atoms: C_10  and  O_23
REMARK    3  A    between atoms: C_12  and  O_25
REMARK    4  A    between atoms: C_19  and  O_27
REMARK    5  A    between atoms: C_29  and  O_31
REMARK    6  A    between atoms: C_29  and  C_33
REMARK    7  A    between atoms: C_33  and  C_34
REMARK    8  A    between atoms: C_34  and  C_35
REMARK    9  A    between atoms: C_35  and  C_36
REMARK   10  A    between atoms: C_36  and  O_39
REMARK                            x       y       z     vdW  Elec       q    Type
REMARK                         _______ _______ _______ _____ _____    ______ ____
ROOT
ATOM      1  C   UNL     1     -36.006  24.235   3.211  0.00  0.00    +0.002 C 
ATOM      2  C   UNL     1     -35.390  25.574   3.923  0.00  0.00    +0.002 C 
ATOM      3  C   UNL     1     -35.725  24.246   1.664  0.00  0.00    +0.003 C 
ATOM      4  C   UNL     1     -36.011  22.890   0.862  0.00  0.00    +0.002 C 
ATOM      5  C   UNL     1     -35.172  26.758   2.922  0.00  0.00    +0.029 C 
ATOM      6  C   UNL     1     -35.240  21.716   1.597  0.00  0.00    +0.029 C 
ATOM      7  C   UNL     1     -35.370  22.954   3.811  0.00  0.00    +0.029 C 
ATOM      8  C   UNL     1     -36.284  25.515   0.966  0.00  0.00    +0.029 C 
ATOM      9  C   UNL     1     -33.697  26.675   2.431  0.00  0.00    +0.027 C 
ATOM     10  C   UNL     1     -36.164  26.816   1.766  0.00  0.00    +0.111 C 
ATOM     11  C   UNL     1     -33.947  25.457   4.497  0.00  0.00    +0.000 C 
ATOM     12  C   UNL     1     -35.687  21.638   3.084  0.00  0.00    +0.111 C 
ATOM     13  C   UNL     1     -35.158  20.351   0.793  0.00  0.00    +0.027 C 
ATOM     14  C   UNL     1     -33.003  25.646   3.326  0.00  0.00    +0.002 C 
ATOM     15  C   UNL     1     -35.416  23.042  -0.571  0.00  0.00    +0.003 C 
ATOM     16  C   UNL     1     -37.533  24.136   3.488  0.00  0.00    +0.000 C 
ATOM     17  C   UNL     1     -36.262  26.051   5.114  0.00  0.00    +0.000 C 
ATOM     18  C   UNL     1     -37.528  22.609   0.706  0.00  0.00    +0.000 C 
ATOM     19  C   UNL     1     -34.620  20.646  -0.643  0.00  0.00    +0.110 C 
ATOM     20  C   UNL     1     -35.368  21.749  -1.376  0.00  0.00    +0.029 C 
ATOM     21  C   UNL     1     -36.495  19.585   0.743  0.00  0.00    +0.002 C 
ATOM     22  C   UNL     1     -34.131  19.375   1.436  0.00  0.00    +0.002 C 
ENDROOT
BRANCH  10  23
ATOM     23  O   UNL     1     -37.441  27.194   2.279  0.00  0.00    -0.384 OA
ATOM     24  H   UNL     1     -37.836  27.866   1.701  0.00  0.00    +0.210 HD
ENDBRANCH  10  23
BRANCH  12  25
ATOM     25  O   UNL     1     -34.979  20.622   3.789  0.00  0.00    -0.384 OA
ATOM     26  H   UNL     1     -34.709  20.960   4.658  0.00  0.00    +0.210 HD
ENDBRANCH  12  25
BRANCH  19  27
ATOM     27  O   UNL     1     -34.660  19.466  -1.447  0.00  0.00    -0.384 OA
ATOM     28  H   UNL     1     -35.036  19.678  -2.316  0.00  0.00    +0.210 HD
ENDBRANCH  19  27
BRANCH   9  29
ATOM     29  C   UNL     1     -33.012  28.039   2.503  0.00  0.00    +0.088 C 
ATOM     30  C   UNL     1     -31.523  27.855   2.823  0.00  0.00    +0.029 C 
BRANCH  29  31
ATOM     31  O   UNL     1     -33.109  28.641   1.210  0.00  0.00    -0.387 OA
ATOM     32  H   UNL     1     -32.220  28.785   0.852  0.00  0.00    +0.210 HD
ENDBRANCH  29  31
BRANCH  29  33
ATOM     33  C   UNL     1     -33.659  28.974   3.549  0.00  0.00    +0.027 C 
BRANCH  33  34
ATOM     34  C   UNL     1     -33.610  30.466   3.184  0.00  0.00    +0.005 C 
BRANCH  34  35
ATOM     35  C   UNL     1     -35.017  31.072   3.175  0.00  0.00    +0.027 C 
BRANCH  35  36
ATOM     36  C   UNL     1     -35.490  31.632   1.818  0.00  0.00    +0.088 C 
ATOM     37  C   UNL     1     -34.706  32.875   1.391  0.00  0.00    +0.029 C 
ATOM     38  C   UNL     1     -36.992  31.921   1.801  0.00  0.00    +0.029 C 
BRANCH  36  39
ATOM     39  O   UNL     1     -35.260  30.614   0.833  0.00  0.00    -0.387 OA
ATOM     40  H   UNL     1     -34.337  30.654   0.537  0.00  0.00    +0.210 HD
ENDBRANCH  36  39
ENDBRANCH  35  36
ENDBRANCH  34  35
ENDBRANCH  33  34
ENDBRANCH  29  33
ENDBRANCH   9  29
TORSDOF 10
ENDMDL
MODEL 8
REMARK VINA RESULT:      -6.3      2.079      2.733
REMARK  Name = 195012
REMARK  10 active torsions:
REMARK  status: ('A' for Active; 'I' for Inactive)
REMARK    1  A    between atoms: C_9  and  C_29
REMARK    2  A    between atoms: C_10  and  O_23
REMARK    3  A    between atoms: C_12  and  O_25
REMARK    4  A    between atoms: C_19  and  O_27
REMARK    5  A    between atoms: C_29  and  O_31
REMARK    6  A    between atoms: C_29  and  C_33
REMARK    7  A    between atoms: C_33  and  C_34
REMARK    8  A    between atoms: C_34  and  C_35
REMARK    9  A    between atoms: C_35  and  C_36
REMARK   10  A    between atoms: C_36  and  O_39
REMARK                            x       y       z     vdW  Elec       q    Type
REMARK                         _______ _______ _______ _____ _____    ______ ____
ROOT
ATOM      1  C   UNL     1     -35.959  21.264   0.222  0.00  0.00    +0.002 C 
ATOM      2  C   UNL     1     -36.759  22.239   1.266  0.00  0.00    +0.002 C 
ATOM      3  C   UNL     1     -34.408  21.333   0.472  0.00  0.00    +0.003 C 
ATOM      4  C   UNL     1     -33.502  20.240  -0.268  0.00  0.00    +0.002 C 
ATOM      5  C   UNL     1     -35.860  23.372   1.863  0.00  0.00    +0.029 C 
ATOM      6  C   UNL     1     -34.093  18.809   0.065  0.00  0.00    +0.029 C 
ATOM      7  C   UNL     1     -36.412  19.791   0.391  0.00  0.00    +0.029 C 
ATOM      8  C   UNL     1     -33.852  22.779   0.370  0.00  0.00    +0.029 C 
ATOM      9  C   UNL     1     -35.297  22.845   3.215  0.00  0.00    +0.027 C 
ATOM     10  C   UNL     1     -34.759  23.877   0.936  0.00  0.00    +0.111 C 
ATOM     11  C   UNL     1     -37.255  21.584   2.589  0.00  0.00    +0.000 C 
ATOM     12  C   UNL     1     -35.586  18.738  -0.364  0.00  0.00    +0.111 C 
ATOM     13  C   UNL     1     -33.167  17.583  -0.332  0.00  0.00    +0.027 C 
ATOM     14  C   UNL     1     -36.064  21.559   3.527  0.00  0.00    +0.002 C 
ATOM     15  C   UNL     1     -32.062  20.325   0.325  0.00  0.00    +0.003 C 
ATOM     16  C   UNL     1     -36.295  21.659  -1.244  0.00  0.00    +0.000 C 
ATOM     17  C   UNL     1     -38.027  22.861   0.622  0.00  0.00    +0.000 C 
ATOM     18  C   UNL     1     -33.390  20.505  -1.793  0.00  0.00    +0.000 C 
ATOM     19  C   UNL     1     -31.741  17.821   0.257  0.00  0.00    +0.110 C 
ATOM     20  C   UNL     1     -31.144  19.179  -0.080  0.00  0.00    +0.029 C 
ATOM     21  C   UNL     1     -33.109  17.322  -1.851  0.00  0.00    +0.002 C 
ATOM     22  C   UNL     1     -33.673  16.258   0.308  0.00  0.00    +0.002 C 
ENDROOT
BRANCH  10  23
ATOM     23  O   UNL     1     -35.361  24.611  -0.130  0.00  0.00    -0.384 OA
ATOM     24  H   UNL     1     -35.041  24.269  -0.980  0.00  0.00    +0.210 HD
ENDBRANCH  10  23
BRANCH  12  25
ATOM     25  O   UNL     1     -36.165  17.478  -0.036  0.00  0.00    -0.384 OA
ATOM     26  H   UNL     1     -35.549  16.767  -0.273  0.00  0.00    +0.210 HD
ENDBRANCH  12  25
BRANCH  19  27
ATOM     27  O   UNL     1     -30.837  16.810  -0.192  0.00  0.00    -0.384 OA
ATOM     28  H   UNL     1     -30.047  17.226  -0.570  0.00  0.00    +0.210 HD
ENDBRANCH  19  27
BRANCH   9  29
ATOM     29  C   UNL     1     -35.460  23.884   4.325  0.00  0.00    +0.088 C 
ATOM     30  C   UNL     1     -36.529  24.908   3.923  0.00  0.00    +0.029 C 
BRANCH  29  31
ATOM     31  O   UNL     1     -35.926  23.201   5.491  0.00  0.00    -0.387 OA
ATOM     32  H   UNL     1     -36.381  22.386   5.228  0.00  0.00    +0.210 HD
ENDBRANCH  29  31
BRANCH  29  33
ATOM     33  C   UNL     1     -34.138  24.611   4.655  0.00  0.00    +0.027 C 
BRANCH  33  34
ATOM     34  C   UNL     1     -34.314  26.056   5.148  0.00  0.00    +0.005 C 
BRANCH  34  35
ATOM     35  C   UNL     1     -33.314  26.993   4.462  0.00  0.00    +0.027 C 
BRANCH  35  36
ATOM     36  C   UNL     1     -33.906  27.914   3.376  0.00  0.00    +0.088 C 
ATOM     37  C   UNL     1     -33.895  27.268   1.989  0.00  0.00    +0.029 C 
ATOM     38  C   UNL     1     -33.212  29.277   3.331  0.00  0.00    +0.029 C 
BRANCH  36  39
ATOM     39  O   UNL     1     -35.274  28.165   3.727  0.00  0.00    -0.387 OA
ATOM     40  H   UNL     1     -35.334  29.001   4.215  0.00  0.00    +0.210 HD
ENDBRANCH  36  39
ENDBRANCH  35  36
ENDBRANCH  34  35
ENDBRANCH  33  34
ENDBRANCH  29  33
ENDBRANCH   9  29
TORSDOF 10
ENDMDL
MODEL 9
REMARK VINA RESULT:      -6.3      1.558      2.203
REMARK  Name = 195012
REMARK  10 active torsions:
REMARK  status: ('A' for Active; 'I' for Inactive)
REMARK    1  A    between atoms: C_9  and  C_29
REMARK    2  A    between atoms: C_10  and  O_23
REMARK    3  A    between atoms: C_12  and  O_25
REMARK    4  A    between atoms: C_19  and  O_27
REMARK    5  A    between atoms: C_29  and  O_31
REMARK    6  A    between atoms: C_29  and  C_33
REMARK    7  A    between atoms: C_33  and  C_34
REMARK    8  A    between atoms: C_34  and  C_35
REMARK    9  A    between atoms: C_35  and  C_36
REMARK   10  A    between atoms: C_36  and  O_39
REMARK                            x       y       z     vdW  Elec       q    Type
REMARK                         _______ _______ _______ _____ _____    ______ ____
ROOT
ATOM      1  C   UNL     1     -35.704  22.038   1.396  0.00  0.00    +0.002 C 
ATOM      2  C   UNL     1     -36.355  22.900   2.626  0.00  0.00    +0.002 C 
ATOM      3  C   UNL     1     -34.453  22.779   0.797  0.00  0.00    +0.003 C 
ATOM      4  C   UNL     1     -33.535  21.951  -0.222  0.00  0.00    +0.002 C 
ATOM      5  C   UNL     1     -35.979  24.419   2.580  0.00  0.00    +0.029 C 
ATOM      6  C   UNL     1     -33.138  20.586   0.478  0.00  0.00    +0.029 C 
ATOM      7  C   UNL     1     -35.251  20.639   1.886  0.00  0.00    +0.029 C 
ATOM      8  C   UNL     1     -34.787  24.215   0.311  0.00  0.00    +0.029 C 
ATOM      9  C   UNL     1     -34.722  24.605   3.478  0.00  0.00    +0.027 C 
ATOM     10  C   UNL     1     -35.781  24.992   1.181  0.00  0.00    +0.111 C 
ATOM     11  C   UNL     1     -35.853  22.556   4.059  0.00  0.00    +0.000 C 
ATOM     12  C   UNL     1     -34.420  19.810   0.893  0.00  0.00    +0.111 C 
ATOM     13  C   UNL     1     -31.995  19.759  -0.248  0.00  0.00    +0.027 C 
ATOM     14  C   UNL     1     -34.539  23.291   4.240  0.00  0.00    +0.002 C 
ATOM     15  C   UNL     1     -32.231  22.770  -0.471  0.00  0.00    +0.003 C 
ATOM     16  C   UNL     1     -36.772  21.790   0.292  0.00  0.00    +0.000 C 
ATOM     17  C   UNL     1     -37.898  22.745   2.689  0.00  0.00    +0.000 C 
ATOM     18  C   UNL     1     -34.222  21.746  -1.597  0.00  0.00    +0.000 C 
ATOM     19  C   UNL     1     -30.779  20.704  -0.506  0.00  0.00    +0.110 C 
ATOM     20  C   UNL     1     -31.137  22.006  -1.206  0.00  0.00    +0.029 C 
ATOM     21  C   UNL     1     -32.462  19.079  -1.552  0.00  0.00    +0.002 C 
ATOM     22  C   UNL     1     -31.457  18.616   0.660  0.00  0.00    +0.002 C 
ENDROOT
BRANCH  10  23
ATOM     23  O   UNL     1     -37.049  25.060   0.531  0.00  0.00    -0.384 OA
ATOM     24  H   UNL     1     -37.686  24.502   1.005  0.00  0.00    +0.210 HD
ENDBRANCH  10  23
BRANCH  12  25
ATOM     25  O   UNL     1     -34.101  18.597   1.569  0.00  0.00    -0.384 OA
ATOM     26  H   UNL     1     -34.217  17.849   0.963  0.00  0.00    +0.210 HD
ENDBRANCH  12  25
BRANCH  19  27
ATOM     27  O   UNL     1     -29.781  20.038  -1.281  0.00  0.00    -0.384 OA
ATOM     28  H   UNL     1     -29.201  20.695  -1.697  0.00  0.00    +0.210 HD
ENDBRANCH  19  27
BRANCH   9  29
ATOM     29  C   UNL     1     -34.891  25.791   4.429  0.00  0.00    +0.088 C 
ATOM     30  C   UNL     1     -36.382  26.103   4.607  0.00  0.00    +0.029 C 
BRANCH  29  31
ATOM     31  O   UNL     1     -34.371  25.401   5.702  0.00  0.00    -0.387 OA
ATOM     32  H   UNL     1     -33.559  25.899   5.885  0.00  0.00    +0.210 HD
ENDBRANCH  29  31
BRANCH  29  33
ATOM     33  C   UNL     1     -34.148  27.053   3.940  0.00  0.00    +0.027 C 
BRANCH  33  34
ATOM     34  C   UNL     1     -35.009  28.013   3.104  0.00  0.00    +0.005 C 
BRANCH  34  35
ATOM     35  C   UNL     1     -34.136  29.052   2.393  0.00  0.00    +0.027 C 
BRANCH  35  36
ATOM     36  C   UNL     1     -34.229  30.488   2.946  0.00  0.00    +0.088 C 
ATOM     37  C   UNL     1     -34.363  31.536   1.839  0.00  0.00    +0.029 C 
ATOM     38  C   UNL     1     -33.054  30.834   3.863  0.00  0.00    +0.029 C 
BRANCH  36  39
ATOM     39  O   UNL     1     -35.411  30.559   3.755  0.00  0.00    -0.387 OA
ATOM     40  H   UNL     1     -36.097  29.988   3.375  0.00  0.00    +0.210 HD
ENDBRANCH  36  39
ENDBRANCH  35  36
ENDBRANCH  34  35
ENDBRANCH  33  34
ENDBRANCH  29  33
ENDBRANCH   9  29
TORSDOF 10
ENDMDL
