MODEL 1
REMARK VINA RESULT:      -8.5      0.000      0.000
REMARK  Name = 57358950
REMARK  6 active torsions:
REMARK  status: ('A' for Active; 'I' for Inactive)
REMARK    1  A    between atoms: C_3  and  O_21
REMARK    2  A    between atoms: C_4  and  O_23
REMARK    3  A    between atoms: C_4  and  C_27
REMARK    4  A    between atoms: C_20  and  O_25
REMARK    5  A    between atoms: C_27  and  C_31
REMARK    6  A    between atoms: C_27  and  O_38
REMARK                            x       y       z     vdW  Elec       q    Type
REMARK                         _______ _______ _______ _____ _____    ______ ____
ROOT
ATOM      1  O   UNL     1     -34.758  29.328   2.725  0.00  0.00    -0.296 OA
ATOM      2  C   UNL     1     -36.545  24.268   2.992  0.00  0.00    +0.047 C 
ATOM      3  C   UNL     1     -36.027  24.526   4.470  0.00  0.00    +0.091 C 
ATOM      4  C   UNL     1     -36.498  22.701   2.824  0.00  0.00    +0.116 C 
ATOM      5  C   UNL     1     -34.743  25.419   4.549  0.00  0.00    +0.030 C 
ATOM      6  C   UNL     1     -34.837  26.714   3.698  0.00  0.00    +0.013 C 
ATOM      7  C   UNL     1     -35.611  24.976   1.979  0.00  0.00    +0.005 C 
ATOM      8  C   UNL     1     -35.736  23.115   5.034  0.00  0.00    +0.029 C 
ATOM      9  C   UNL     1     -35.422  22.261   3.815  0.00  0.00    +0.032 C 
ATOM     10  C   UNL     1     -35.417  26.456   2.292  0.00  0.00    +0.001 C 
ATOM     11  C   UNL     1     -33.455  27.488   3.674  0.00  0.00    +0.067 C 
ATOM     12  C   UNL     1     -34.379  25.811   6.000  0.00  0.00    +0.028 C 
ATOM     13  C   UNL     1     -37.990  24.782   2.767  0.00  0.00    +0.005 C 
ATOM     14  C   UNL     1     -32.836  27.562   5.072  0.00  0.00    -0.040 C 
ATOM     15  C   UNL     1     -33.276  26.815   6.097  0.00  0.00    -0.034 C 
ATOM     16  C   UNL     1     -33.701  28.953   3.237  0.00  0.00    +0.156 C 
ATOM     17  C   UNL     1     -32.440  26.840   2.708  0.00  0.00    +0.011 C 
ATOM     18  C   UNL     1     -31.693  28.530   5.288  0.00  0.00    +0.052 C 
ATOM     19  C   UNL     1     -32.559  29.934   3.397  0.00  0.00    +0.094 C 
ATOM     20  C   UNL     1     -32.071  29.937   4.836  0.00  0.00    +0.122 C 
ENDROOT
BRANCH   3  21
ATOM     21  O   UNL     1     -37.062  25.125   5.250  0.00  0.00    -0.387 OA
ATOM     22  H   UNL     1     -36.672  25.754   5.877  0.00  0.00    +0.210 HD
ENDBRANCH   3  21
BRANCH   4  23
ATOM     23  O   UNL     1     -37.739  22.125   3.263  0.00  0.00    -0.384 OA
ATOM     24  H   UNL     1     -37.972  21.382   2.685  0.00  0.00    +0.210 HD
ENDBRANCH   4  23
BRANCH  20  25
ATOM     25  O   UNL     1     -30.934  30.788   4.925  0.00  0.00    -0.384 OA
ATOM     26  H   UNL     1     -30.928  31.399   4.171  0.00  0.00    +0.210 HD
ENDBRANCH  20  25
BRANCH   4  27
ATOM     27  C   UNL     1     -36.241  22.174   1.415  0.00  0.00    +0.147 C 
ATOM     28  C   UNL     1     -37.241  21.073   1.063  0.00  0.00    +0.035 C 
BRANCH  27  31
ATOM     29  O   UNL     1     -34.263  22.211   0.067  0.00  0.00    -0.447 OA
ATOM     30  O   UNL     1     -32.453  22.361  -1.268  0.00  0.00    -0.245 OA
ATOM     31  C   UNL     1     -34.811  21.672   1.284  0.00  0.00    +0.200 C 
ATOM     32  C   UNL     1     -34.754  20.155   1.239  0.00  0.00    +0.068 C 
ATOM     33  C   UNL     1     -33.344  19.722   0.943  0.00  0.00    -0.038 C 
ATOM     34  C   UNL     1     -33.061  21.767  -0.383  0.00  0.00    +0.337 C 
ATOM     35  C   UNL     1     -32.524  20.511   0.220  0.00  0.00    +0.046 C 
ATOM     36  C   UNL     1     -32.980  18.375   1.500  0.00  0.00    +0.026 C 
ATOM     37  C   UNL     1     -31.086  20.216  -0.098  0.00  0.00    +0.037 C 
ENDBRANCH  27  31
BRANCH  27  38
ATOM     38  O   UNL     1     -36.426  23.263   0.509  0.00  0.00    -0.381 OA
ATOM     39  H   UNL     1     -37.286  23.174   0.067  0.00  0.00    +0.210 HD
ENDBRANCH  27  38
ENDBRANCH   4  27
TORSDOF 6
ENDMDL
MODEL 2
REMARK VINA RESULT:      -7.9      1.207      1.616
REMARK  Name = 57358950
REMARK  6 active torsions:
REMARK  status: ('A' for Active; 'I' for Inactive)
REMARK    1  A    between atoms: C_3  and  O_21
REMARK    2  A    between atoms: C_4  and  O_23
REMARK    3  A    between atoms: C_4  and  C_27
REMARK    4  A    between atoms: C_20  and  O_25
REMARK    5  A    between atoms: C_27  and  C_31
REMARK    6  A    between atoms: C_27  and  O_38
REMARK                            x       y       z     vdW  Elec       q    Type
REMARK                         _______ _______ _______ _____ _____    ______ ____
ROOT
ATOM      1  O   UNL     1     -34.149  30.040   3.382  0.00  0.00    -0.296 OA
ATOM      2  C   UNL     1     -36.128  25.045   3.374  0.00  0.00    +0.047 C 
ATOM      3  C   UNL     1     -35.520  25.169   4.835  0.00  0.00    +0.091 C 
ATOM      4  C   UNL     1     -36.157  23.494   3.088  0.00  0.00    +0.116 C 
ATOM      5  C   UNL     1     -34.198  26.005   4.907  0.00  0.00    +0.030 C 
ATOM      6  C   UNL     1     -34.284  27.364   4.161  0.00  0.00    +0.013 C 
ATOM      7  C   UNL     1     -35.222  25.792   2.365  0.00  0.00    +0.005 C 
ATOM      8  C   UNL     1     -35.259  23.709   5.276  0.00  0.00    +0.029 C 
ATOM      9  C   UNL     1     -35.047  22.940   3.980  0.00  0.00    +0.032 C 
ATOM     10  C   UNL     1     -34.950  27.235   2.775  0.00  0.00    +0.001 C 
ATOM     11  C   UNL     1     -32.874  28.085   4.115  0.00  0.00    +0.067 C 
ATOM     12  C   UNL     1     -33.739  26.270   6.359  0.00  0.00    +0.028 C 
ATOM     13  C   UNL     1     -37.561  25.628   3.272  0.00  0.00    +0.005 C 
ATOM     14  C   UNL     1     -32.177  28.028   5.477  0.00  0.00    -0.040 C 
ATOM     15  C   UNL     1     -32.592  27.222   6.467  0.00  0.00    -0.034 C 
ATOM     16  C   UNL     1     -33.083  29.587   3.803  0.00  0.00    +0.156 C 
ATOM     17  C   UNL     1     -31.942  27.475   3.047  0.00  0.00    +0.011 C 
ATOM     18  C   UNL     1     -30.985  28.933   5.698  0.00  0.00    +0.052 C 
ATOM     19  C   UNL     1     -31.893  30.510   3.969  0.00  0.00    +0.094 C 
ATOM     20  C   UNL     1     -31.328  30.384   5.375  0.00  0.00    +0.122 C 
ENDROOT
BRANCH   3  21
ATOM     21  O   UNL     1     -36.486  25.745   5.716  0.00  0.00    -0.387 OA
ATOM     22  H   UNL     1     -37.355  25.751   5.284  0.00  0.00    +0.210 HD
ENDBRANCH   3  21
BRANCH   4  23
ATOM     23  O   UNL     1     -37.394  22.933   3.553  0.00  0.00    -0.384 OA
ATOM     24  H   UNL     1     -38.127  23.517   3.304  0.00  0.00    +0.210 HD
ENDBRANCH   4  23
BRANCH  20  25
ATOM     25  O   UNL     1     -30.153  31.183   5.461  0.00  0.00    -0.384 OA
ATOM     26  H   UNL     1     -30.293  32.015   4.982  0.00  0.00    +0.210 HD
ENDBRANCH  20  25
BRANCH   4  27
ATOM     27  C   UNL     1     -35.999  23.067   1.632  0.00  0.00    +0.147 C 
ATOM     28  C   UNL     1     -37.293  23.311   0.857  0.00  0.00    +0.035 C 
BRANCH  27  31
ATOM     29  O   UNL     1     -34.222  21.564   1.069  0.00  0.00    -0.447 OA
ATOM     30  O   UNL     1     -32.459  20.260   0.549  0.00  0.00    -0.245 OA
ATOM     31  C   UNL     1     -35.580  21.607   1.544  0.00  0.00    +0.200 C 
ATOM     32  C   UNL     1     -36.474  20.826   0.597  0.00  0.00    +0.068 C 
ATOM     33  C   UNL     1     -35.917  19.440   0.422  0.00  0.00    -0.038 C 
ATOM     34  C   UNL     1     -33.668  20.373   0.724  0.00  0.00    +0.337 C 
ATOM     35  C   UNL     1     -34.593  19.216   0.535  0.00  0.00    +0.046 C 
ATOM     36  C   UNL     1     -36.948  18.394   0.104  0.00  0.00    +0.026 C 
ATOM     37  C   UNL     1     -33.922  17.876   0.434  0.00  0.00    +0.037 C 
ENDBRANCH  27  31
BRANCH  27  38
ATOM     38  O   UNL     1     -34.968  23.872   1.057  0.00  0.00    -0.381 OA
ATOM     39  H   UNL     1     -35.271  24.791   0.993  0.00  0.00    +0.210 HD
ENDBRANCH  27  38
ENDBRANCH   4  27
TORSDOF 6
ENDMDL
MODEL 3
REMARK VINA RESULT:      -7.8      2.102      3.560
REMARK  Name = 57358950
REMARK  6 active torsions:
REMARK  status: ('A' for Active; 'I' for Inactive)
REMARK    1  A    between atoms: C_3  and  O_21
REMARK    2  A    between atoms: C_4  and  O_23
REMARK    3  A    between atoms: C_4  and  C_27
REMARK    4  A    between atoms: C_20  and  O_25
REMARK    5  A    between atoms: C_27  and  C_31
REMARK    6  A    between atoms: C_27  and  O_38
REMARK                            x       y       z     vdW  Elec       q    Type
REMARK                         _______ _______ _______ _____ _____    ______ ____
ROOT
ATOM      1  O   UNL     1     -34.517  29.791   3.149  0.00  0.00    -0.296 OA
ATOM      2  C   UNL     1     -36.091  24.682   3.687  0.00  0.00    +0.047 C 
ATOM      3  C   UNL     1     -35.410  24.979   5.090  0.00  0.00    +0.091 C 
ATOM      4  C   UNL     1     -36.013  23.114   3.534  0.00  0.00    +0.116 C 
ATOM      5  C   UNL     1     -34.156  25.914   5.005  0.00  0.00    +0.030 C 
ATOM      6  C   UNL     1     -34.393  27.191   4.155  0.00  0.00    +0.013 C 
ATOM      7  C   UNL     1     -35.308  25.402   2.562  0.00  0.00    +0.005 C 
ATOM      8  C   UNL     1     -35.008  23.587   5.633  0.00  0.00    +0.029 C 
ATOM      9  C   UNL     1     -34.813  22.725   4.395  0.00  0.00    +0.032 C 
ATOM     10  C   UNL     1     -35.128  26.892   2.832  0.00  0.00    +0.001 C 
ATOM     11  C   UNL     1     -33.050  28.008   3.957  0.00  0.00    +0.067 C 
ATOM     12  C   UNL     1     -33.635  26.339   6.397  0.00  0.00    +0.028 C 
ATOM     13  C   UNL     1     -37.569  25.147   3.630  0.00  0.00    +0.005 C 
ATOM     14  C   UNL     1     -32.272  28.123   5.271  0.00  0.00    -0.040 C 
ATOM     15  C   UNL     1     -32.563  27.379   6.350  0.00  0.00    -0.034 C 
ATOM     16  C   UNL     1     -33.395  29.457   3.535  0.00  0.00    +0.156 C 
ATOM     17  C   UNL     1     -32.137  27.376   2.884  0.00  0.00    +0.011 C 
ATOM     18  C   UNL     1     -31.145  29.130   5.337  0.00  0.00    +0.052 C 
ATOM     19  C   UNL     1     -32.274  30.476   3.545  0.00  0.00    +0.094 C 
ATOM     20  C   UNL     1     -31.620  30.517   4.916  0.00  0.00    +0.122 C 
ENDROOT
BRANCH   3  21
ATOM     21  O   UNL     1     -36.365  25.558   5.981  0.00  0.00    -0.387 OA
ATOM     22  H   UNL     1     -35.976  25.635   6.866  0.00  0.00    +0.210 HD
ENDBRANCH   3  21
BRANCH   4  23
ATOM     23  O   UNL     1     -37.173  22.507   4.124  0.00  0.00    -0.384 OA
ATOM     24  H   UNL     1     -37.067  22.476   5.088  0.00  0.00    +0.210 HD
ENDBRANCH   4  23
BRANCH  20  25
ATOM     25  O   UNL     1     -30.509  31.405   4.859  0.00  0.00    -0.384 OA
ATOM     26  H   UNL     1     -30.219  31.618   5.759  0.00  0.00    +0.210 HD
ENDBRANCH  20  25
BRANCH   4  27
ATOM     27  C   UNL     1     -35.908  22.574   2.111  0.00  0.00    +0.147 C 
ATOM     28  C   UNL     1     -34.713  23.192   1.388  0.00  0.00    +0.035 C 
BRANCH  27  31
ATOM     29  O   UNL     1     -38.139  21.803   1.708  0.00  0.00    -0.447 OA
ATOM     30  O   UNL     1     -40.230  21.000   1.448  0.00  0.00    -0.245 OA
ATOM     31  C   UNL     1     -37.198  22.829   1.345  0.00  0.00    +0.200 C 
ATOM     32  C   UNL     1     -36.970  22.802  -0.156  0.00  0.00    +0.068 C 
ATOM     33  C   UNL     1     -38.296  22.893  -0.859  0.00  0.00    -0.038 C 
ATOM     34  C   UNL     1     -39.308  21.691   1.024  0.00  0.00    +0.337 C 
ATOM     35  C   UNL     1     -39.414  22.415  -0.276  0.00  0.00    +0.046 C 
ATOM     36  C   UNL     1     -38.234  23.528  -2.220  0.00  0.00    +0.026 C 
ATOM     37  C   UNL     1     -40.800  22.493  -0.851  0.00  0.00    +0.037 C 
ENDBRANCH  27  31
BRANCH  27  38
ATOM     38  O   UNL     1     -35.705  21.163   2.201  0.00  0.00    -0.381 OA
ATOM     39  H   UNL     1     -36.512  20.701   1.924  0.00  0.00    +0.210 HD
ENDBRANCH  27  38
ENDBRANCH   4  27
TORSDOF 6
ENDMDL
MODEL 4
REMARK VINA RESULT:      -7.7      3.695      8.859
REMARK  Name = 57358950
REMARK  6 active torsions:
REMARK  status: ('A' for Active; 'I' for Inactive)
REMARK    1  A    between atoms: C_3  and  O_21
REMARK    2  A    between atoms: C_4  and  O_23
REMARK    3  A    between atoms: C_4  and  C_27
REMARK    4  A    between atoms: C_20  and  O_25
REMARK    5  A    between atoms: C_27  and  C_31
REMARK    6  A    between atoms: C_27  and  O_38
REMARK                            x       y       z     vdW  Elec       q    Type
REMARK                         _______ _______ _______ _____ _____    ______ ____
ROOT
ATOM      1  O   UNL     1     -34.851  23.118   1.875  0.00  0.00    -0.296 OA
ATOM      2  C   UNL     1     -34.457  28.455   1.401  0.00  0.00    +0.047 C 
ATOM      3  C   UNL     1     -33.729  28.181   2.785  0.00  0.00    +0.091 C 
ATOM      4  C   UNL     1     -34.922  29.959   1.491  0.00  0.00    +0.116 C 
ATOM      5  C   UNL     1     -34.376  27.030   3.628  0.00  0.00    +0.030 C 
ATOM      6  C   UNL     1     -34.645  25.739   2.810  0.00  0.00    +0.013 C 
ATOM      7  C   UNL     1     -35.663  27.496   1.245  0.00  0.00    +0.005 C 
ATOM      8  C   UNL     1     -33.819  29.524   3.548  0.00  0.00    +0.029 C 
ATOM      9  C   UNL     1     -35.058  30.209   2.992  0.00  0.00    +0.032 C 
ATOM     10  C   UNL     1     -35.279  26.033   1.435  0.00  0.00    +0.001 C 
ATOM     11  C   UNL     1     -35.455  24.677   3.661  0.00  0.00    +0.067 C 
ATOM     12  C   UNL     1     -33.534  26.658   4.871  0.00  0.00    +0.028 C 
ATOM     13  C   UNL     1     -33.518  28.263   0.183  0.00  0.00    +0.005 C 
ATOM     14  C   UNL     1     -34.889  24.553   5.079  0.00  0.00    -0.040 C 
ATOM     15  C   UNL     1     -34.022  25.441   5.589  0.00  0.00    -0.034 C 
ATOM     16  C   UNL     1     -35.295  23.279   3.013  0.00  0.00    +0.156 C 
ATOM     17  C   UNL     1     -36.957  25.022   3.747  0.00  0.00    +0.011 C 
ATOM     18  C   UNL     1     -35.328  23.370   5.913  0.00  0.00    +0.052 C 
ATOM     19  C   UNL     1     -35.771  22.080   3.807  0.00  0.00    +0.094 C 
ATOM     20  C   UNL     1     -35.101  22.058   5.171  0.00  0.00    +0.122 C 
ENDROOT
BRANCH   3  21
ATOM     21  O   UNL     1     -32.352  27.876   2.557  0.00  0.00    -0.387 OA
ATOM     22  H   UNL     1     -31.966  28.545   1.970  0.00  0.00    +0.210 HD
ENDBRANCH   3  21
BRANCH   4  23
ATOM     23  O   UNL     1     -33.880  30.823   1.011  0.00  0.00    -0.384 OA
ATOM     24  H   UNL     1     -34.012  30.994   0.066  0.00  0.00    +0.210 HD
ENDBRANCH   4  23
BRANCH  20  25
ATOM     25  O   UNL     1     -35.648  20.982   5.924  0.00  0.00    -0.384 OA
ATOM     26  H   UNL     1     -36.265  21.332   6.586  0.00  0.00    +0.210 HD
ENDBRANCH  20  25
BRANCH   4  27
ATOM     27  C   UNL     1     -36.188  30.328   0.723  0.00  0.00    +0.147 C 
ATOM     28  C   UNL     1     -35.889  30.474  -0.768  0.00  0.00    +0.035 C 
BRANCH  27  31
ATOM     29  O   UNL     1     -38.217  31.563   1.026  0.00  0.00    -0.447 OA
ATOM     30  O   UNL     1     -40.200  32.604   1.286  0.00  0.00    -0.245 OA
ATOM     31  C   UNL     1     -36.802  31.603   1.282  0.00  0.00    +0.200 C 
ATOM     32  C   UNL     1     -36.203  32.840   0.635  0.00  0.00    +0.068 C 
ATOM     33  C   UNL     1     -36.958  34.055   1.101  0.00  0.00    -0.038 C 
ATOM     34  C   UNL     1     -38.974  32.666   1.259  0.00  0.00    +0.337 C 
ATOM     35  C   UNL     1     -38.257  33.962   1.448  0.00  0.00    +0.046 C 
ATOM     36  C   UNL     1     -36.147  35.320   1.116  0.00  0.00    +0.026 C 
ATOM     37  C   UNL     1     -39.103  35.086   1.975  0.00  0.00    +0.037 C 
ENDBRANCH  27  31
BRANCH  27  38
ATOM     38  O   UNL     1     -37.122  29.261   0.897  0.00  0.00    -0.381 OA
ATOM     39  H   UNL     1     -37.244  29.087   1.844  0.00  0.00    +0.210 HD
ENDBRANCH  27  38
ENDBRANCH   4  27
TORSDOF 6
ENDMDL
MODEL 5
REMARK VINA RESULT:      -7.3      1.907      7.783
REMARK  Name = 57358950
REMARK  6 active torsions:
REMARK  status: ('A' for Active; 'I' for Inactive)
REMARK    1  A    between atoms: C_3  and  O_21
REMARK    2  A    between atoms: C_4  and  O_23
REMARK    3  A    between atoms: C_4  and  C_27
REMARK    4  A    between atoms: C_20  and  O_25
REMARK    5  A    between atoms: C_27  and  C_31
REMARK    6  A    between atoms: C_27  and  O_38
REMARK                            x       y       z     vdW  Elec       q    Type
REMARK                         _______ _______ _______ _____ _____    ______ ____
ROOT
ATOM      1  O   UNL     1     -33.993  20.263   0.758  0.00  0.00    -0.296 OA
ATOM      2  C   UNL     1     -35.393  24.756   3.350  0.00  0.00    +0.047 C 
ATOM      3  C   UNL     1     -36.729  23.901   3.403  0.00  0.00    +0.091 C 
ATOM      4  C   UNL     1     -35.873  26.249   3.512  0.00  0.00    +0.116 C 
ATOM      5  C   UNL     1     -36.993  23.050   2.115  0.00  0.00    +0.030 C 
ATOM      6  C   UNL     1     -35.759  22.230   1.651  0.00  0.00    +0.013 C 
ATOM      7  C   UNL     1     -34.681  24.533   1.992  0.00  0.00    +0.005 C 
ATOM      8  C   UNL     1     -37.854  24.945   3.598  0.00  0.00    +0.029 C 
ATOM      9  C   UNL     1     -37.309  26.228   2.991  0.00  0.00    +0.032 C 
ATOM     10  C   UNL     1     -34.456  23.057   1.683  0.00  0.00    +0.001 C 
ATOM     11  C   UNL     1     -36.024  21.530   0.256  0.00  0.00    +0.067 C 
ATOM     12  C   UNL     1     -38.191  22.085   2.275  0.00  0.00    +0.028 C 
ATOM     13  C   UNL     1     -34.404  24.391   4.486  0.00  0.00    +0.005 C 
ATOM     14  C   UNL     1     -37.407  20.874   0.218  0.00  0.00    -0.040 C 
ATOM     15  C   UNL     1     -38.351  21.126   1.139  0.00  0.00    -0.034 C 
ATOM     16  C   UNL     1     -35.002  20.384   0.060  0.00  0.00    +0.156 C 
ATOM     17  C   UNL     1     -35.903  22.518  -0.925  0.00  0.00    +0.011 C 
ATOM     18  C   UNL     1     -37.696  19.899  -0.902  0.00  0.00    +0.052 C 
ATOM     19  C   UNL     1     -35.239  19.420  -1.084  0.00  0.00    +0.094 C 
ATOM     20  C   UNL     1     -36.628  18.813  -0.974  0.00  0.00    +0.122 C 
ENDROOT
BRANCH   3  21
ATOM     21  O   UNL     1     -36.707  23.036   4.539  0.00  0.00    -0.387 OA
ATOM     22  H   UNL     1     -37.459  22.425   4.495  0.00  0.00    +0.210 HD
ENDBRANCH   3  21
BRANCH   4  23
ATOM     23  O   UNL     1     -35.932  26.596   4.905  0.00  0.00    -0.384 OA
ATOM     24  H   UNL     1     -36.720  27.136   5.070  0.00  0.00    +0.210 HD
ENDBRANCH   4  23
BRANCH  20  25
ATOM     25  O   UNL     1     -36.854  17.996  -2.118  0.00  0.00    -0.384 OA
ATOM     26  H   UNL     1     -37.047  18.559  -2.884  0.00  0.00    +0.210 HD
ENDBRANCH  20  25
BRANCH   4  27
ATOM     27  C   UNL     1     -35.022  27.316   2.829  0.00  0.00    +0.147 C 
ATOM     28  C   UNL     1     -35.015  27.109   1.315  0.00  0.00    +0.035 C 
BRANCH  27  31
ATOM     29  O   UNL     1     -33.533  28.302   4.424  0.00  0.00    -0.447 OA
ATOM     30  O   UNL     1     -32.247  29.280   5.996  0.00  0.00    -0.245 OA
ATOM     31  C   UNL     1     -33.606  27.309   3.385  0.00  0.00    +0.200 C 
ATOM     32  C   UNL     1     -32.582  27.625   2.309  0.00  0.00    +0.068 C 
ATOM     33  C   UNL     1     -31.226  27.768   2.943  0.00  0.00    -0.038 C 
ATOM     34  C   UNL     1     -32.328  28.628   4.959  0.00  0.00    +0.337 C 
ATOM     35  C   UNL     1     -31.108  28.192   4.217  0.00  0.00    +0.046 C 
ATOM     36  C   UNL     1     -30.078  27.420   2.038  0.00  0.00    +0.026 C 
ATOM     37  C   UNL     1     -29.819  28.326   4.977  0.00  0.00    +0.037 C 
ENDBRANCH  27  31
BRANCH  27  38
ATOM     38  O   UNL     1     -35.615  28.585   3.111  0.00  0.00    -0.381 OA
ATOM     39  H   UNL     1     -36.344  28.747   2.492  0.00  0.00    +0.210 HD
ENDBRANCH  27  38
ENDBRANCH   4  27
TORSDOF 6
ENDMDL
MODEL 6
REMARK VINA RESULT:      -7.2      2.322      3.303
REMARK  Name = 57358950
REMARK  6 active torsions:
REMARK  status: ('A' for Active; 'I' for Inactive)
REMARK    1  A    between atoms: C_3  and  O_21
REMARK    2  A    between atoms: C_4  and  O_23
REMARK    3  A    between atoms: C_4  and  C_27
REMARK    4  A    between atoms: C_20  and  O_25
REMARK    5  A    between atoms: C_27  and  C_31
REMARK    6  A    between atoms: C_27  and  O_38
REMARK                            x       y       z     vdW  Elec       q    Type
REMARK                         _______ _______ _______ _____ _____    ______ ____
ROOT
ATOM      1  O   UNL     1     -35.015  27.983   1.399  0.00  0.00    -0.296 OA
ATOM      2  C   UNL     1     -36.298  22.830   2.215  0.00  0.00    +0.047 C 
ATOM      3  C   UNL     1     -36.146  23.382   3.695  0.00  0.00    +0.091 C 
ATOM      4  C   UNL     1     -36.059  21.277   2.345  0.00  0.00    +0.116 C 
ATOM      5  C   UNL     1     -35.007  24.444   3.865  0.00  0.00    +0.030 C 
ATOM      6  C   UNL     1     -35.041  25.566   2.792  0.00  0.00    +0.013 C 
ATOM      7  C   UNL     1     -35.242  23.493   1.296  0.00  0.00    +0.005 C 
ATOM      8  C   UNL     1     -35.845  22.129   4.551  0.00  0.00    +0.029 C 
ATOM      9  C   UNL     1     -35.187  21.148   3.593  0.00  0.00    +0.032 C 
ATOM     10  C   UNL     1     -35.271  25.016   1.369  0.00  0.00    +0.001 C 
ATOM     11  C   UNL     1     -33.773  26.508   2.904  0.00  0.00    +0.067 C 
ATOM     12  C   UNL     1     -35.011  25.102   5.264  0.00  0.00    +0.028 C 
ATOM     13  C   UNL     1     -37.703  23.101   1.618  0.00  0.00    +0.005 C 
ATOM     14  C   UNL     1     -33.486  26.882   4.361  0.00  0.00    -0.040 C 
ATOM     15  C   UNL     1     -34.063  26.250   5.395  0.00  0.00    -0.034 C 
ATOM     16  C   UNL     1     -34.064  27.840   2.169  0.00  0.00    +0.156 C 
ATOM     17  C   UNL     1     -32.511  25.862   2.292  0.00  0.00    +0.011 C 
ATOM     18  C   UNL     1     -32.522  28.018   4.621  0.00  0.00    +0.052 C 
ATOM     19  C   UNL     1     -33.088  28.980   2.373  0.00  0.00    +0.094 C 
ATOM     20  C   UNL     1     -32.930  29.273   3.857  0.00  0.00    +0.122 C 
ENDROOT
BRANCH   3  21
ATOM     21  O   UNL     1     -37.382  23.949   4.132  0.00  0.00    -0.387 OA
ATOM     22  H   UNL     1     -37.304  24.217   5.061  0.00  0.00    +0.210 HD
ENDBRANCH   3  21
BRANCH   4  23
ATOM     23  O   UNL     1     -37.301  20.613   2.625  0.00  0.00    -0.384 OA
ATOM     24  H   UNL     1     -37.964  20.876   1.968  0.00  0.00    +0.210 HD
ENDBRANCH   4  23
BRANCH  20  25
ATOM     25  O   UNL     1     -31.932  30.275   4.014  0.00  0.00    -0.384 OA
ATOM     26  H   UNL     1     -31.057  29.885   3.863  0.00  0.00    +0.210 HD
ENDBRANCH  20  25
BRANCH   4  27
ATOM     27  C   UNL     1     -35.448  20.578   1.134  0.00  0.00    +0.147 C 
ATOM     28  C   UNL     1     -34.127  21.237   0.743  0.00  0.00    +0.035 C 
BRANCH  27  31
ATOM     29  O   UNL     1     -37.277  19.431   0.100  0.00  0.00    -0.447 OA
ATOM     30  O   UNL     1     -39.021  18.282  -0.750  0.00  0.00    -0.245 OA
ATOM     31  C   UNL     1     -36.423  20.581  -0.034  0.00  0.00    +0.200 C 
ATOM     32  C   UNL     1     -35.698  20.523  -1.367  0.00  0.00    +0.068 C 
ATOM     33  C   UNL     1     -36.705  20.361  -2.471  0.00  0.00    -0.038 C 
ATOM     34  C   UNL     1     -38.117  19.095  -0.914  0.00  0.00    +0.337 C 
ATOM     35  C   UNL     1     -37.876  19.731  -2.243  0.00  0.00    +0.046 C 
ATOM     36  C   UNL     1     -36.275  20.934  -3.792  0.00  0.00    +0.026 C 
ATOM     37  C   UNL     1     -38.980  19.552  -3.245  0.00  0.00    +0.037 C 
ENDBRANCH  27  31
BRANCH  27  38
ATOM     38  O   UNL     1     -35.188  19.223   1.506  0.00  0.00    -0.381 OA
ATOM     39  H   UNL     1     -34.874  18.730   0.732  0.00  0.00    +0.210 HD
ENDBRANCH  27  38
ENDBRANCH   4  27
TORSDOF 6
ENDMDL
MODEL 7
REMARK VINA RESULT:      -7.1      2.495      3.260
REMARK  Name = 57358950
REMARK  6 active torsions:
REMARK  status: ('A' for Active; 'I' for Inactive)
REMARK    1  A    between atoms: C_3  and  O_21
REMARK    2  A    between atoms: C_4  and  O_23
REMARK    3  A    between atoms: C_4  and  C_27
REMARK    4  A    between atoms: C_20  and  O_25
REMARK    5  A    between atoms: C_27  and  C_31
REMARK    6  A    between atoms: C_27  and  O_38
REMARK                            x       y       z     vdW  Elec       q    Type
REMARK                         _______ _______ _______ _____ _____    ______ ____
ROOT
ATOM      1  O   UNL     1     -36.595  27.534   1.769  0.00  0.00    -0.296 OA
ATOM      2  C   UNL     1     -36.660  22.176   2.159  0.00  0.00    +0.047 C 
ATOM      3  C   UNL     1     -35.956  22.608   3.514  0.00  0.00    +0.091 C 
ATOM      4  C   UNL     1     -36.173  20.696   1.915  0.00  0.00    +0.116 C 
ATOM      5  C   UNL     1     -35.018  23.855   3.376  0.00  0.00    +0.030 C 
ATOM      6  C   UNL     1     -35.673  25.042   2.619  0.00  0.00    +0.013 C 
ATOM      7  C   UNL     1     -36.213  23.117   1.013  0.00  0.00    +0.005 C 
ATOM      8  C   UNL     1     -35.141  21.366   3.945  0.00  0.00    +0.029 C 
ATOM      9  C   UNL     1     -34.836  20.628   2.650  0.00  0.00    +0.032 C 
ATOM     10  C   UNL     1     -36.421  24.591   1.347  0.00  0.00    +0.001 C 
ATOM     11  C   UNL     1     -34.628  26.203   2.355  0.00  0.00    +0.067 C 
ATOM     12  C   UNL     1     -34.503  24.367   4.741  0.00  0.00    +0.028 C 
ATOM     13  C   UNL     1     -38.207  22.217   2.250  0.00  0.00    +0.005 C 
ATOM     14  C   UNL     1     -33.790  26.490   3.604  0.00  0.00    -0.040 C 
ATOM     15  C   UNL     1     -33.763  25.663   4.661  0.00  0.00    -0.034 C 
ATOM     16  C   UNL     1     -35.393  27.512   2.042  0.00  0.00    +0.156 C 
ATOM     17  C   UNL     1     -33.683  25.880   1.178  0.00  0.00    +0.011 C 
ATOM     18  C   UNL     1     -32.978  27.766   3.630  0.00  0.00    +0.052 C 
ATOM     19  C   UNL     1     -34.596  28.800   2.015  0.00  0.00    +0.094 C 
ATOM     20  C   UNL     1     -33.850  28.980   3.327  0.00  0.00    +0.122 C 
ENDROOT
BRANCH   3  21
ATOM     21  O   UNL     1     -36.944  22.875   4.511  0.00  0.00    -0.387 OA
ATOM     22  H   UNL     1     -36.635  23.591   5.089  0.00  0.00    +0.210 HD
ENDBRANCH   3  21
BRANCH   4  23
ATOM     23  O   UNL     1     -37.062  19.775   2.565  0.00  0.00    -0.384 OA
ATOM     24  H   UNL     1     -37.198  20.051   3.485  0.00  0.00    +0.210 HD
ENDBRANCH   4  23
BRANCH  20  25
ATOM     25  O   UNL     1     -33.034  30.141   3.226  0.00  0.00    -0.384 OA
ATOM     26  H   UNL     1     -32.177  29.901   2.841  0.00  0.00    +0.210 HD
ENDBRANCH  20  25
BRANCH   4  27
ATOM     27  C   UNL     1     -36.061  20.247   0.461  0.00  0.00    +0.147 C 
ATOM     28  C   UNL     1     -37.254  20.749  -0.351  0.00  0.00    +0.035 C 
BRANCH  27  31
ATOM     29  O   UNL     1     -34.788  18.422  -0.423  0.00  0.00    -0.447 OA
ATOM     30  O   UNL     1     -33.482  16.795  -1.277  0.00  0.00    -0.245 OA
ATOM     31  C   UNL     1     -35.944  18.733   0.375  0.00  0.00    +0.200 C 
ATOM     32  C   UNL     1     -37.179  18.113  -0.255  0.00  0.00    +0.068 C 
ATOM     33  C   UNL     1     -36.941  16.643  -0.465  0.00  0.00    -0.038 C 
ATOM     34  C   UNL     1     -34.564  17.139  -0.810  0.00  0.00    +0.337 C 
ATOM     35  C   UNL     1     -35.695  16.174  -0.675  0.00  0.00    +0.046 C 
ATOM     36  C   UNL     1     -38.187  15.803  -0.435  0.00  0.00    +0.026 C 
ATOM     37  C   UNL     1     -35.323  14.729  -0.846  0.00  0.00    +0.037 C 
ENDBRANCH  27  31
BRANCH  27  38
ATOM     38  O   UNL     1     -34.870  20.826  -0.077  0.00  0.00    -0.381 OA
ATOM     39  H   UNL     1     -34.718  21.692   0.332  0.00  0.00    +0.210 HD
ENDBRANCH  27  38
ENDBRANCH   4  27
TORSDOF 6
ENDMDL
MODEL 8
REMARK VINA RESULT:      -7.0      3.494      6.425
REMARK  Name = 57358950
REMARK  6 active torsions:
REMARK  status: ('A' for Active; 'I' for Inactive)
REMARK    1  A    between atoms: C_3  and  O_21
REMARK    2  A    between atoms: C_4  and  O_23
REMARK    3  A    between atoms: C_4  and  C_27
REMARK    4  A    between atoms: C_20  and  O_25
REMARK    5  A    between atoms: C_27  and  C_31
REMARK    6  A    between atoms: C_27  and  O_38
REMARK                            x       y       z     vdW  Elec       q    Type
REMARK                         _______ _______ _______ _____ _____    ______ ____
ROOT
ATOM      1  O   UNL     1     -41.967  26.745   3.764  0.00  0.00    -0.296 OA
ATOM      2  C   UNL     1     -37.097  24.609   2.996  0.00  0.00    +0.047 C 
ATOM      3  C   UNL     1     -37.139  25.763   1.907  0.00  0.00    +0.091 C 
ATOM      4  C   UNL     1     -36.030  23.586   2.446  0.00  0.00    +0.116 C 
ATOM      5  C   UNL     1     -38.547  25.970   1.252  0.00  0.00    +0.030 C 
ATOM      6  C   UNL     1     -39.703  26.059   2.285  0.00  0.00    +0.013 C 
ATOM      7  C   UNL     1     -38.496  23.957   3.123  0.00  0.00    +0.005 C 
ATOM      8  C   UNL     1     -36.107  25.331   0.839  0.00  0.00    +0.029 C 
ATOM      9  C   UNL     1     -36.052  23.814   0.936  0.00  0.00    +0.032 C 
ATOM     10  C   UNL     1     -39.599  24.978   3.380  0.00  0.00    +0.001 C 
ATOM     11  C   UNL     1     -41.114  26.091   1.567  0.00  0.00    +0.067 C 
ATOM     12  C   UNL     1     -38.602  27.221   0.345  0.00  0.00    +0.028 C 
ATOM     13  C   UNL     1     -36.667  25.122   4.394  0.00  0.00    +0.005 C 
ATOM     14  C   UNL     1     -41.108  27.053   0.374  0.00  0.00    -0.040 C 
ATOM     15  C   UNL     1     -39.976  27.555  -0.142  0.00  0.00    -0.034 C 
ATOM     16  C   UNL     1     -42.173  26.640   2.554  0.00  0.00    +0.156 C 
ATOM     17  C   UNL     1     -41.555  24.693   1.084  0.00  0.00    +0.011 C 
ATOM     18  C   UNL     1     -42.442  27.447  -0.220  0.00  0.00    +0.052 C 
ATOM     19  C   UNL     1     -43.534  26.999   1.994  0.00  0.00    +0.094 C 
ATOM     20  C   UNL     1     -43.383  27.989   0.850  0.00  0.00    +0.122 C 
ENDROOT
BRANCH   3  21
ATOM     21  O   UNL     1     -36.708  26.994   2.488  0.00  0.00    -0.387 OA
ATOM     22  H   UNL     1     -37.195  27.152   3.312  0.00  0.00    +0.210 HD
ENDBRANCH   3  21
BRANCH   4  23
ATOM     23  O   UNL     1     -34.720  23.948   2.911  0.00  0.00    -0.384 OA
ATOM     24  H   UNL     1     -34.791  24.692   3.529  0.00  0.00    +0.210 HD
ENDBRANCH   4  23
BRANCH  20  25
ATOM     25  O   UNL     1     -44.668  28.221   0.284  0.00  0.00    -0.384 OA
ATOM     26  H   UNL     1     -45.338  27.738   0.793  0.00  0.00    +0.210 HD
ENDBRANCH  20  25
BRANCH   4  27
ATOM     27  C   UNL     1     -36.239  22.120   2.816  0.00  0.00    +0.147 C 
ATOM     28  C   UNL     1     -35.562  21.800   4.148  0.00  0.00    +0.035 C 
BRANCH  27  31
ATOM     29  O   UNL     1     -36.833  20.449   1.207  0.00  0.00    -0.447 OA
ATOM     30  O   UNL     1     -37.529  18.916  -0.292  0.00  0.00    -0.245 OA
ATOM     31  C   UNL     1     -35.721  21.210   1.711  0.00  0.00    +0.200 C 
ATOM     32  C   UNL     1     -34.648  20.265   2.224  0.00  0.00    +0.068 C 
ATOM     33  C   UNL     1     -34.295  19.285   1.139  0.00  0.00    -0.038 C 
ATOM     34  C   UNL     1     -36.610  19.427   0.341  0.00  0.00    +0.337 C 
ATOM     35  C   UNL     1     -35.209  18.928   0.214  0.00  0.00    +0.046 C 
ATOM     36  C   UNL     1     -32.887  18.762   1.211  0.00  0.00    +0.026 C 
ATOM     37  C   UNL     1     -34.964  18.003  -0.943  0.00  0.00    +0.037 C 
ENDBRANCH  27  31
BRANCH  27  38
ATOM     38  O   UNL     1     -37.644  21.908   2.957  0.00  0.00    -0.381 OA
ATOM     39  H   UNL     1     -37.847  21.681   3.879  0.00  0.00    +0.210 HD
ENDBRANCH  27  38
ENDBRANCH   4  27
TORSDOF 6
ENDMDL
MODEL 9
REMARK VINA RESULT:      -7.0      2.399      3.938
REMARK  Name = 57358950
REMARK  6 active torsions:
REMARK  status: ('A' for Active; 'I' for Inactive)
REMARK    1  A    between atoms: C_3  and  O_21
REMARK    2  A    between atoms: C_4  and  O_23
REMARK    3  A    between atoms: C_4  and  C_27
REMARK    4  A    between atoms: C_20  and  O_25
REMARK    5  A    between atoms: C_27  and  C_31
REMARK    6  A    between atoms: C_27  and  O_38
REMARK                            x       y       z     vdW  Elec       q    Type
REMARK                         _______ _______ _______ _____ _____    ______ ____
ROOT
ATOM      1  O   UNL     1     -33.427  29.255   0.578  0.00  0.00    -0.296 OA
ATOM      2  C   UNL     1     -35.799  25.203   3.190  0.00  0.00    +0.047 C 
ATOM      3  C   UNL     1     -34.999  25.935   4.349  0.00  0.00    +0.091 C 
ATOM      4  C   UNL     1     -35.992  23.728   3.713  0.00  0.00    +0.116 C 
ATOM      5  C   UNL     1     -33.614  26.512   3.902  0.00  0.00    +0.030 C 
ATOM      6  C   UNL     1     -33.682  27.338   2.589  0.00  0.00    +0.013 C 
ATOM      7  C   UNL     1     -34.972  25.237   1.881  0.00  0.00    +0.005 C 
ATOM      8  C   UNL     1     -34.805  24.851   5.436  0.00  0.00    +0.029 C 
ATOM      9  C   UNL     1     -34.827  23.530   4.681  0.00  0.00    +0.032 C 
ATOM     10  C   UNL     1     -34.530  26.646   1.501  0.00  0.00    +0.001 C 
ATOM     11  C   UNL     1     -32.235  27.747   2.091  0.00  0.00    +0.067 C 
ATOM     12  C   UNL     1     -32.951  27.383   4.995  0.00  0.00    +0.028 C 
ATOM     13  C   UNL     1     -37.179  25.852   2.913  0.00  0.00    +0.005 C 
ATOM     14  C   UNL     1     -31.375  28.263   3.248  0.00  0.00    -0.040 C 
ATOM     15  C   UNL     1     -31.725  28.102   4.534  0.00  0.00    -0.034 C 
ATOM     16  C   UNL     1     -32.357  28.923   1.090  0.00  0.00    +0.156 C 
ATOM     17  C   UNL     1     -31.502  26.576   1.402  0.00  0.00    +0.011 C 
ATOM     18  C   UNL     1     -30.094  28.990   2.905  0.00  0.00    +0.052 C 
ATOM     19  C   UNL     1     -31.083  29.639   0.692  0.00  0.00    +0.094 C 
ATOM     20  C   UNL     1     -30.354  30.134   1.931  0.00  0.00    +0.122 C 
ENDROOT
BRANCH   3  21
ATOM     21  O   UNL     1     -35.792  26.991   4.894  0.00  0.00    -0.387 OA
ATOM     22  H   UNL     1     -35.587  27.096   5.836  0.00  0.00    +0.210 HD
ENDBRANCH   3  21
BRANCH   4  23
ATOM     23  O   UNL     1     -37.202  23.636   4.482  0.00  0.00    -0.384 OA
ATOM     24  H   UNL     1     -37.912  24.113   4.025  0.00  0.00    +0.210 HD
ENDBRANCH   4  23
BRANCH  20  25
ATOM     25  O   UNL     1     -29.116  30.707   1.526  0.00  0.00    -0.384 OA
ATOM     26  H   UNL     1     -28.469  30.001   1.370  0.00  0.00    +0.210 HD
ENDBRANCH  20  25
BRANCH   4  27
ATOM     27  C   UNL     1     -36.060  22.632   2.653  0.00  0.00    +0.147 C 
ATOM     28  C   UNL     1     -34.809  22.655   1.776  0.00  0.00    +0.035 C 
BRANCH  27  31
ATOM     29  O   UNL     1     -38.304  21.868   2.321  0.00  0.00    -0.447 OA
ATOM     30  O   UNL     1     -40.414  21.094   2.142  0.00  0.00    -0.245 OA
ATOM     31  C   UNL     1     -37.317  22.781   1.809  0.00  0.00    +0.200 C 
ATOM     32  C   UNL     1     -37.048  22.470   0.347  0.00  0.00    +0.068 C 
ATOM     33  C   UNL     1     -38.350  22.470  -0.406  0.00  0.00    -0.038 C 
ATOM     34  C   UNL     1     -39.457  21.667   1.630  0.00  0.00    +0.337 C 
ATOM     35  C   UNL     1     -39.500  22.142   0.216  0.00  0.00    +0.046 C 
ATOM     36  C   UNL     1     -38.226  22.841  -1.857  0.00  0.00    +0.026 C 
ATOM     37  C   UNL     1     -40.865  22.154  -0.410  0.00  0.00    +0.037 C 
ENDBRANCH  27  31
BRANCH  27  38
ATOM     38  O   UNL     1     -36.115  21.378   3.334  0.00  0.00    -0.381 OA
ATOM     39  H   UNL     1     -35.500  20.755   2.916  0.00  0.00    +0.210 HD
ENDBRANCH  27  38
ENDBRANCH   4  27
TORSDOF 6
ENDMDL
