MODEL 1
REMARK VINA RESULT:      -6.0      0.000      0.000
REMARK  Name = 21120621
REMARK  7 active torsions:
REMARK  status: ('A' for Active; 'I' for Inactive)
REMARK    1  A    between atoms: C_1  and  C_8
REMARK    2  A    between atoms: C_1  and  N_14
REMARK    3  A    between atoms: C_1  and  C_26
REMARK    4  A    between atoms: C_4  and  C_10
REMARK    5  A    between atoms: C_10  and  O_11
REMARK    6  A    between atoms: C_15  and  C_20
REMARK    7  A    between atoms: C_26  and  C_29
REMARK                            x       y       z     vdW  Elec       q    Type
REMARK                         _______ _______ _______ _____ _____    ______ ____
ROOT
ATOM      1  C   UNK     1     -38.406  23.801   2.439  0.00  0.00    +0.155 C 
ENDROOT
BRANCH   1   8
ATOM      2  O   UNK     1     -36.933  21.932   2.515  0.00  0.00    -0.273 OA
ATOM      3  N   UNK     1     -36.477  23.696   3.942  0.00  0.00    -0.270 N 
ATOM      4  C   UNK     1     -35.204  23.186   4.436  0.00  0.00    +0.175 C 
ATOM      5  C   UNK     1     -34.548  24.379   5.122  0.00  0.00    +0.033 C 
ATOM      6  C   UNK     1     -36.764  25.017   4.496  0.00  0.00    +0.094 C 
ATOM      7  C   UNK     1     -35.736  25.212   5.599  0.00  0.00    +0.024 C 
ATOM      8  C   UNK     1     -37.206  23.049   2.958  0.00  0.00    +0.244 C 
BRANCH   4  10
ATOM      9  O   UNK     1     -35.915  22.256   6.551  0.00  0.00    -0.248 OA
ATOM     10  C   UNK     1     -35.515  22.088   5.409  0.00  0.00    +0.332 C 
BRANCH  10  11
ATOM     11  O   UNK     1     -35.290  20.875   4.848  0.00  0.00    -0.479 OA
ATOM     12  H   UNK     1     -35.999  20.394   4.469  0.00  0.00    +0.295 HD
ENDBRANCH  10  11
ENDBRANCH   4  10
ENDBRANCH   1   8
BRANCH   1  14
ATOM     13  O   UNK     1     -38.987  26.617   2.046  0.00  0.00    -0.273 OA
ATOM     14  N   UNK     1     -37.851  24.675   1.445  0.00  0.00    -0.297 N 
ATOM     15  C   UNK     1     -38.188  26.019   1.331  0.00  0.00    +0.242 C 
ATOM     16  H   UNK     1     -37.195  24.303   0.812  0.00  0.00    +0.150 HD
BRANCH  15  20
ATOM     17  S   UNK     1     -34.738  26.327   0.974  0.00  0.00    -0.130 S 
ATOM     18  O   UNK     1     -36.105  29.756   1.659  0.00  0.00    -0.274 OA
ATOM     19  N   UNK     1     -37.259  28.098   0.588  0.00  0.00    -0.297 N 
ATOM     20  C   UNK     1     -37.443  26.708   0.226  0.00  0.00    +0.159 C 
ATOM     21  C   UNK     1     -36.139  26.027  -0.156  0.00  0.00    +0.087 C 
ATOM     22  C   UNK     1     -35.494  27.473   2.172  0.00  0.00    +0.124 C 
ATOM     23  C   UNK     1     -36.280  28.556   1.449  0.00  0.00    +0.232 C 
ATOM     24  C   UNK     1     -34.391  28.064   3.044  0.00  0.00    +0.021 C 
ATOM     25  H   UNK     1     -37.871  28.761   0.194  0.00  0.00    +0.150 HD
ENDBRANCH  15  20
ENDBRANCH   1  14
BRANCH   1  26
ATOM     26  C   UNK     1     -39.437  22.828   1.880  0.00  0.00    +0.071 C 
BRANCH  26  29
ATOM     27  N   UNK     1     -41.353  24.457   1.636  0.00  0.00    -0.319 N 
ATOM     28  N   UNK     1     -41.915  24.324  -0.508  0.00  0.00    -0.315 N 
ATOM     29  C   UNK     1     -40.504  23.539   1.082  0.00  0.00    +0.040 C 
ATOM     30  C   UNK     1     -40.871  23.474  -0.241  0.00  0.00    +0.069 C 
ATOM     31  C   UNK     1     -42.181  24.900   0.644  0.00  0.00    +0.182 C 
ATOM     32  H   UNK     1     -41.365  24.746   2.577  0.00  0.00    +0.148 HD
ATOM     33  H   UNK     1     -42.366  24.469  -1.371  0.00  0.00    +0.148 HD
ENDBRANCH  26  29
ENDBRANCH   1  26
TORSDOF 7
ENDMDL
MODEL 2
REMARK VINA RESULT:      -6.0      1.898      2.147
REMARK  Name = 21120621
REMARK  7 active torsions:
REMARK  status: ('A' for Active; 'I' for Inactive)
REMARK    1  A    between atoms: C_1  and  C_8
REMARK    2  A    between atoms: C_1  and  N_14
REMARK    3  A    between atoms: C_1  and  C_26
REMARK    4  A    between atoms: C_4  and  C_10
REMARK    5  A    between atoms: C_10  and  O_11
REMARK    6  A    between atoms: C_15  and  C_20
REMARK    7  A    between atoms: C_26  and  C_29
REMARK                            x       y       z     vdW  Elec       q    Type
REMARK                         _______ _______ _______ _____ _____    ______ ____
ROOT
ATOM      1  C   UNK     1     -38.516  25.269   3.479  0.00  0.00    +0.155 C 
ENDROOT
BRANCH   1   8
ATOM      2  O   UNK     1     -37.638  23.176   2.763  0.00  0.00    -0.273 OA
ATOM      3  N   UNK     1     -36.400  24.365   4.315  0.00  0.00    -0.270 N 
ATOM      4  C   UNK     1     -35.240  23.484   4.314  0.00  0.00    +0.175 C 
ATOM      5  C   UNK     1     -34.141  24.288   5.001  0.00  0.00    +0.033 C 
ATOM      6  C   UNK     1     -36.178  25.526   5.175  0.00  0.00    +0.094 C 
ATOM      7  C   UNK     1     -34.912  25.201   5.952  0.00  0.00    +0.024 C 
ATOM      8  C   UNK     1     -37.484  24.170   3.474  0.00  0.00    +0.244 C 
BRANCH   4  10
ATOM      9  O   UNK     1     -35.870  22.250   6.294  0.00  0.00    -0.248 OA
ATOM     10  C   UNK     1     -35.611  22.263   5.101  0.00  0.00    +0.332 C 
BRANCH  10  11
ATOM     11  O   UNK     1     -35.618  21.165   4.305  0.00  0.00    -0.479 OA
ATOM     12  H   UNK     1     -35.942  20.350   4.633  0.00  0.00    +0.295 HD
ENDBRANCH  10  11
ENDBRANCH   4  10
ENDBRANCH   1   8
BRANCH   1  14
ATOM     13  O   UNK     1     -37.647  25.647   0.735  0.00  0.00    -0.273 OA
ATOM     14  N   UNK     1     -37.811  26.394   2.936  0.00  0.00    -0.297 N 
ATOM     15  C   UNK     1     -37.433  26.492   1.601  0.00  0.00    +0.242 C 
ATOM     16  H   UNK     1     -37.583  27.138   3.540  0.00  0.00    +0.150 HD
BRANCH  15  20
ATOM     17  S   UNK     1     -34.305  26.904   0.127  0.00  0.00    -0.130 S 
ATOM     18  O   UNK     1     -34.026  28.059   3.688  0.00  0.00    -0.274 OA
ATOM     19  N   UNK     1     -35.942  28.166   2.444  0.00  0.00    -0.297 N 
ATOM     20  C   UNK     1     -36.732  27.782   1.293  0.00  0.00    +0.159 C 
ATOM     21  C   UNK     1     -35.918  27.750   0.010  0.00  0.00    +0.087 C 
ATOM     22  C   UNK     1     -34.271  26.457   1.892  0.00  0.00    +0.124 C 
ATOM     23  C   UNK     1     -34.701  27.638   2.749  0.00  0.00    +0.232 C 
ATOM     24  C   UNK     1     -32.865  25.985   2.249  0.00  0.00    +0.021 C 
ATOM     25  H   UNK     1     -36.311  28.850   3.049  0.00  0.00    +0.150 HD
ENDBRANCH  15  20
ENDBRANCH   1  14
BRANCH   1  26
ATOM     26  C   UNK     1     -39.728  24.859   2.652  0.00  0.00    +0.071 C 
BRANCH  26  29
ATOM     27  N   UNK     1     -41.221  26.391   3.995  0.00  0.00    -0.319 N 
ATOM     28  N   UNK     1     -42.611  27.256   2.495  0.00  0.00    -0.315 N 
ATOM     29  C   UNK     1     -40.864  25.845   2.795  0.00  0.00    +0.040 C 
ATOM     30  C   UNK     1     -41.736  26.393   1.885  0.00  0.00    +0.069 C 
ATOM     31  C   UNK     1     -42.274  27.232   3.766  0.00  0.00    +0.182 C 
ATOM     32  H   UNK     1     -40.798  26.213   4.867  0.00  0.00    +0.148 HD
ATOM     33  H   UNK     1     -43.332  27.779   2.075  0.00  0.00    +0.148 HD
ENDBRANCH  26  29
ENDBRANCH   1  26
TORSDOF 7
ENDMDL
MODEL 3
REMARK VINA RESULT:      -6.0      5.905      7.933
REMARK  Name = 21120621
REMARK  7 active torsions:
REMARK  status: ('A' for Active; 'I' for Inactive)
REMARK    1  A    between atoms: C_1  and  C_8
REMARK    2  A    between atoms: C_1  and  N_14
REMARK    3  A    between atoms: C_1  and  C_26
REMARK    4  A    between atoms: C_4  and  C_10
REMARK    5  A    between atoms: C_10  and  O_11
REMARK    6  A    between atoms: C_15  and  C_20
REMARK    7  A    between atoms: C_26  and  C_29
REMARK                            x       y       z     vdW  Elec       q    Type
REMARK                         _______ _______ _______ _____ _____    ______ ____
ROOT
ATOM      1  C   UNK     1     -35.316  20.272   1.152  0.00  0.00    +0.155 C 
ENDROOT
BRANCH   1   8
ATOM      2  O   UNK     1     -35.260  20.395   3.528  0.00  0.00    -0.273 OA
ATOM      3  N   UNK     1     -35.265  22.396   2.367  0.00  0.00    -0.270 N 
ATOM      4  C   UNK     1     -35.065  23.260   3.523  0.00  0.00    +0.175 C 
ATOM      5  C   UNK     1     -34.668  24.610   2.934  0.00  0.00    +0.033 C 
ATOM      6  C   UNK     1     -35.282  23.171   1.128  0.00  0.00    +0.094 C 
ATOM      7  C   UNK     1     -35.363  24.622   1.575  0.00  0.00    +0.024 C 
ATOM      8  C   UNK     1     -35.274  21.014   2.464  0.00  0.00    +0.244 C 
BRANCH   4  10
ATOM      9  O   UNK     1     -37.330  24.011   3.907  0.00  0.00    -0.248 OA
ATOM     10  C   UNK     1     -36.373  23.335   4.252  0.00  0.00    +0.332 C 
BRANCH  10  11
ATOM     11  O   UNK     1     -36.351  22.547   5.354  0.00  0.00    -0.479 OA
ATOM     12  H   UNK     1     -35.946  22.852   6.141  0.00  0.00    +0.295 HD
ENDBRANCH  10  11
ENDBRANCH   4  10
ENDBRANCH   1   8
BRANCH   1  14
ATOM     13  O   UNK     1     -32.502  20.339   0.443  0.00  0.00    -0.273 OA
ATOM     14  N   UNK     1     -34.349  19.227   1.326  0.00  0.00    -0.297 N 
ATOM     15  C   UNK     1     -33.014  19.347   0.956  0.00  0.00    +0.242 C 
ATOM     16  H   UNK     1     -34.647  18.380   1.731  0.00  0.00    +0.150 HD
BRANCH  15  20
ATOM     17  S   UNK     1     -30.773  17.682  -1.126  0.00  0.00    -0.130 S 
ATOM     18  O   UNK     1     -33.724  15.418  -0.616  0.00  0.00    -0.274 OA
ATOM     19  N   UNK     1     -32.997  16.952   0.915  0.00  0.00    -0.297 N 
ATOM     20  C   UNK     1     -32.215  18.118   1.273  0.00  0.00    +0.159 C 
ATOM     21  C   UNK     1     -30.829  18.105   0.649  0.00  0.00    +0.087 C 
ATOM     22  C   UNK     1     -32.532  17.346  -1.460  0.00  0.00    +0.124 C 
ATOM     23  C   UNK     1     -33.122  16.463  -0.371  0.00  0.00    +0.232 C 
ATOM     24  C   UNK     1     -32.650  16.698  -2.837  0.00  0.00    +0.021 C 
ATOM     25  H   UNK     1     -33.469  16.475   1.636  0.00  0.00    +0.150 HD
ENDBRANCH  15  20
ENDBRANCH   1  14
BRANCH   1  26
ATOM     26  C   UNK     1     -36.724  19.754   0.883  0.00  0.00    +0.071 C 
BRANCH  26  29
ATOM     27  N   UNK     1     -37.217  17.312   0.463  0.00  0.00    -0.319 N 
ATOM     28  N   UNK     1     -36.456  16.944  -1.590  0.00  0.00    -0.315 N 
ATOM     29  C   UNK     1     -36.709  18.505   0.033  0.00  0.00    +0.040 C 
ATOM     30  C   UNK     1     -36.245  18.253  -1.236  0.00  0.00    +0.069 C 
ATOM     31  C   UNK     1     -37.043  16.405  -0.544  0.00  0.00    +0.182 C 
ATOM     32  H   UNK     1     -37.633  17.137   1.339  0.00  0.00    +0.148 HD
ATOM     33  H   UNK     1     -36.220  16.506  -2.439  0.00  0.00    +0.148 HD
ENDBRANCH  26  29
ENDBRANCH   1  26
TORSDOF 7
ENDMDL
MODEL 4
REMARK VINA RESULT:      -6.0      3.596      6.249
REMARK  Name = 21120621
REMARK  7 active torsions:
REMARK  status: ('A' for Active; 'I' for Inactive)
REMARK    1  A    between atoms: C_1  and  C_8
REMARK    2  A    between atoms: C_1  and  N_14
REMARK    3  A    between atoms: C_1  and  C_26
REMARK    4  A    between atoms: C_4  and  C_10
REMARK    5  A    between atoms: C_10  and  O_11
REMARK    6  A    between atoms: C_15  and  C_20
REMARK    7  A    between atoms: C_26  and  C_29
REMARK                            x       y       z     vdW  Elec       q    Type
REMARK                         _______ _______ _______ _____ _____    ______ ____
ROOT
ATOM      1  C   UNK     1     -34.461  26.012   4.007  0.00  0.00    +0.155 C 
ENDROOT
BRANCH   1   8
ATOM      2  O   UNK     1     -36.519  26.509   5.093  0.00  0.00    -0.273 OA
ATOM      3  N   UNK     1     -36.621  25.906   2.861  0.00  0.00    -0.270 N 
ATOM      4  C   UNK     1     -38.044  26.166   2.683  0.00  0.00    +0.175 C 
ATOM      5  C   UNK     1     -38.248  26.183   1.172  0.00  0.00    +0.033 C 
ATOM      6  C   UNK     1     -35.998  25.503   1.602  0.00  0.00    +0.094 C 
ATOM      7  C   UNK     1     -37.160  25.245   0.656  0.00  0.00    +0.024 C 
ATOM      8  C   UNK     1     -35.959  26.172   4.049  0.00  0.00    +0.244 C 
BRANCH   4  10
ATOM      9  O   UNK     1     -38.364  23.894   3.444  0.00  0.00    -0.248 OA
ATOM     10  C   UNK     1     -38.785  25.035   3.331  0.00  0.00    +0.332 C 
BRANCH  10  11
ATOM     11  O   UNK     1     -39.995  25.451   3.778  0.00  0.00    -0.479 OA
ATOM     12  H   UNK     1     -40.094  26.314   4.129  0.00  0.00    +0.295 HD
ENDBRANCH  10  11
ENDBRANCH   4  10
ENDBRANCH   1   8
BRANCH   1  14
ATOM     13  O   UNK     1     -31.865  27.030   3.201  0.00  0.00    -0.273 OA
ATOM     14  N   UNK     1     -33.975  27.356   4.131  0.00  0.00    -0.297 N 
ATOM     15  C   UNK     1     -32.711  27.757   3.714  0.00  0.00    +0.242 C 
ATOM     16  H   UNK     1     -34.571  28.031   4.530  0.00  0.00    +0.150 HD
BRANCH  15  20
ATOM     17  S   UNK     1     -29.651  29.348   4.198  0.00  0.00    -0.130 S 
ATOM     18  O   UNK     1     -31.558  29.579   7.424  0.00  0.00    -0.274 OA
ATOM     19  N   UNK     1     -32.529  29.492   5.356  0.00  0.00    -0.297 N 
ATOM     20  C   UNK     1     -32.468  29.221   3.934  0.00  0.00    +0.159 C 
ATOM     21  C   UNK     1     -31.189  29.737   3.296  0.00  0.00    +0.087 C 
ATOM     22  C   UNK     1     -30.312  28.488   5.662  0.00  0.00    +0.124 C 
ATOM     23  C   UNK     1     -31.494  29.251   6.239  0.00  0.00    +0.232 C 
ATOM     24  C   UNK     1     -29.189  28.330   6.682  0.00  0.00    +0.021 C 
ATOM     25  H   UNK     1     -33.362  29.874   5.717  0.00  0.00    +0.150 HD
ENDBRANCH  15  20
ENDBRANCH   1  14
BRANCH   1  26
ATOM     26  C   UNK     1     -33.996  25.095   5.133  0.00  0.00    +0.071 C 
BRANCH  26  29
ATOM     27  N   UNK     1     -34.883  23.036   3.968  0.00  0.00    -0.319 N 
ATOM     28  N   UNK     1     -35.858  21.868   5.584  0.00  0.00    -0.315 N 
ATOM     29  C   UNK     1     -34.719  23.769   5.110  0.00  0.00    +0.040 C 
ATOM     30  C   UNK     1     -35.329  23.028   6.093  0.00  0.00    +0.069 C 
ATOM     31  C   UNK     1     -35.572  21.905   4.301  0.00  0.00    +0.182 C 
ATOM     32  H   UNK     1     -34.563  23.279   3.068  0.00  0.00    +0.148 HD
ATOM     33  H   UNK     1     -36.344  21.165   6.072  0.00  0.00    +0.148 HD
ENDBRANCH  26  29
ENDBRANCH   1  26
TORSDOF 7
ENDMDL
MODEL 5
REMARK VINA RESULT:      -5.9      4.864      6.931
REMARK  Name = 21120621
REMARK  7 active torsions:
REMARK  status: ('A' for Active; 'I' for Inactive)
REMARK    1  A    between atoms: C_1  and  C_8
REMARK    2  A    between atoms: C_1  and  N_14
REMARK    3  A    between atoms: C_1  and  C_26
REMARK    4  A    between atoms: C_4  and  C_10
REMARK    5  A    between atoms: C_10  and  O_11
REMARK    6  A    between atoms: C_15  and  C_20
REMARK    7  A    between atoms: C_26  and  C_29
REMARK                            x       y       z     vdW  Elec       q    Type
REMARK                         _______ _______ _______ _____ _____    ______ ____
ROOT
ATOM      1  C   UNK     1     -35.541  20.607   1.638  0.00  0.00    +0.155 C 
ENDROOT
BRANCH   1   8
ATOM      2  O   UNK     1     -35.344  20.653   4.010  0.00  0.00    -0.273 OA
ATOM      3  N   UNK     1     -35.198  22.678   2.899  0.00  0.00    -0.270 N 
ATOM      4  C   UNK     1     -34.844  23.481   4.062  0.00  0.00    +0.175 C 
ATOM      5  C   UNK     1     -34.336  24.798   3.484  0.00  0.00    +0.033 C 
ATOM      6  C   UNK     1     -35.198  23.486   1.681  0.00  0.00    +0.094 C 
ATOM      7  C   UNK     1     -35.099  24.924   2.167  0.00  0.00    +0.024 C 
ATOM      8  C   UNK     1     -35.349  21.302   2.963  0.00  0.00    +0.244 C 
BRANCH   4  10
ATOM      9  O   UNK     1     -36.986  24.462   4.597  0.00  0.00    -0.248 OA
ATOM     10  C   UNK     1     -36.095  23.672   4.865  0.00  0.00    +0.332 C 
BRANCH  10  11
ATOM     11  O   UNK     1     -36.105  22.844   5.938  0.00  0.00    -0.479 OA
ATOM     12  H   UNK     1     -36.693  22.116   5.964  0.00  0.00    +0.295 HD
ENDBRANCH  10  11
ENDBRANCH   4  10
ENDBRANCH   1   8
BRANCH   1  14
ATOM     13  O   UNK     1     -32.970  20.754   0.300  0.00  0.00    -0.273 OA
ATOM     14  N   UNK     1     -34.507  19.613   1.627  0.00  0.00    -0.297 N 
ATOM     15  C   UNK     1     -33.299  19.769   0.956  0.00  0.00    +0.242 C 
ATOM     16  H   UNK     1     -34.661  18.776   2.123  0.00  0.00    +0.150 HD
BRANCH  15  20
ATOM     17  S   UNK     1     -31.583  18.035  -1.529  0.00  0.00    -0.130 S 
ATOM     18  O   UNK     1     -34.193  15.719  -0.144  0.00  0.00    -0.274 OA
ATOM     19  N   UNK     1     -33.176  17.379   1.055  0.00  0.00    -0.297 N 
ATOM     20  C   UNK     1     -32.387  18.591   1.130  0.00  0.00    +0.159 C 
ATOM     21  C   UNK     1     -31.206  18.579   0.172  0.00  0.00    +0.087 C 
ATOM     22  C   UNK     1     -33.351  17.620  -1.379  0.00  0.00    +0.124 C 
ATOM     23  C   UNK     1     -33.600  16.797  -0.125  0.00  0.00    +0.232 C 
ATOM     24  C   UNK     1     -33.783  16.873  -2.638  0.00  0.00    +0.021 C 
ATOM     25  H   UNK     1     -33.426  16.939   1.900  0.00  0.00    +0.150 HD
ENDBRANCH  15  20
ENDBRANCH   1  14
BRANCH   1  26
ATOM     26  C   UNK     1     -36.945  20.021   1.549  0.00  0.00    +0.071 C 
BRANCH  26  29
ATOM     27  N   UNK     1     -38.978  21.338   2.266  0.00  0.00    -0.319 N 
ATOM     28  N   UNK     1     -39.299  22.791   0.618  0.00  0.00    -0.315 N 
ATOM     29  C   UNK     1     -37.990  21.095   1.354  0.00  0.00    +0.040 C 
ATOM     30  C   UNK     1     -38.209  22.004   0.346  0.00  0.00    +0.069 C 
ATOM     31  C   UNK     1     -39.739  22.364   1.782  0.00  0.00    +0.182 C 
ATOM     32  H   UNK     1     -39.117  20.862   3.117  0.00  0.00    +0.148 HD
ATOM     33  H   UNK     1     -39.670  23.516   0.065  0.00  0.00    +0.148 HD
ENDBRANCH  26  29
ENDBRANCH   1  26
TORSDOF 7
ENDMDL
MODEL 6
REMARK VINA RESULT:      -5.8      3.130      4.050
REMARK  Name = 21120621
REMARK  7 active torsions:
REMARK  status: ('A' for Active; 'I' for Inactive)
REMARK    1  A    between atoms: C_1  and  C_8
REMARK    2  A    between atoms: C_1  and  N_14
REMARK    3  A    between atoms: C_1  and  C_26
REMARK    4  A    between atoms: C_4  and  C_10
REMARK    5  A    between atoms: C_10  and  O_11
REMARK    6  A    between atoms: C_15  and  C_20
REMARK    7  A    between atoms: C_26  and  C_29
REMARK                            x       y       z     vdW  Elec       q    Type
REMARK                         _______ _______ _______ _____ _____    ______ ____
ROOT
ATOM      1  C   UNK     1     -37.520  23.194   2.007  0.00  0.00    +0.155 C 
ENDROOT
BRANCH   1   8
ATOM      2  O   UNK     1     -36.149  21.367   2.675  0.00  0.00    -0.273 OA
ATOM      3  N   UNK     1     -36.017  23.302   3.937  0.00  0.00    -0.270 N 
ATOM      4  C   UNK     1     -34.914  22.874   4.786  0.00  0.00    +0.175 C 
ATOM      5  C   UNK     1     -34.420  24.152   5.455  0.00  0.00    +0.033 C 
ATOM      6  C   UNK     1     -36.404  24.680   4.232  0.00  0.00    +0.094 C 
ATOM      7  C   UNK     1     -35.671  25.025   5.519  0.00  0.00    +0.024 C 
ATOM      8  C   UNK     1     -36.498  22.528   2.893  0.00  0.00    +0.244 C 
BRANCH   4  10
ATOM      9  O   UNK     1     -36.166  22.209   6.743  0.00  0.00    -0.248 OA
ATOM     10  C   UNK     1     -35.475  21.905   5.784  0.00  0.00    +0.332 C 
BRANCH  10  11
ATOM     11  O   UNK     1     -35.106  20.637   5.478  0.00  0.00    -0.479 OA
ATOM     12  H   UNK     1     -35.158  19.964   6.127  0.00  0.00    +0.295 HD
ENDBRANCH  10  11
ENDBRANCH   4  10
ENDBRANCH   1   8
BRANCH   1  14
ATOM     13  O   UNK     1     -35.758  24.381   0.030  0.00  0.00    -0.273 OA
ATOM     14  N   UNK     1     -37.212  22.690   0.700  0.00  0.00    -0.297 N 
ATOM     15  C   UNK     1     -36.350  23.328  -0.186  0.00  0.00    +0.242 C 
ATOM     16  H   UNK     1     -37.631  21.845   0.416  0.00  0.00    +0.150 HD
BRANCH  15  20
ATOM     17  S   UNK     1     -35.232  20.054  -0.591  0.00  0.00    -0.130 S 
ATOM     18  O   UNK     1     -32.612  22.321  -2.036  0.00  0.00    -0.274 OA
ATOM     19  N   UNK     1     -34.845  22.807  -1.975  0.00  0.00    -0.297 N 
ATOM     20  C   UNK     1     -36.183  22.573  -1.471  0.00  0.00    +0.159 C 
ATOM     21  C   UNK     1     -36.517  21.094  -1.366  0.00  0.00    +0.087 C 
ATOM     22  C   UNK     1     -33.923  21.284  -0.288  0.00  0.00    +0.124 C 
ATOM     23  C   UNK     1     -33.716  22.155  -1.518  0.00  0.00    +0.232 C 
ATOM     24  C   UNK     1     -32.645  20.548   0.103  0.00  0.00    +0.021 C 
ATOM     25  H   UNK     1     -34.733  23.473  -2.691  0.00  0.00    +0.150 HD
ENDBRANCH  15  20
ENDBRANCH   1  14
BRANCH   1  26
ATOM     26  C   UNK     1     -38.929  22.846   2.473  0.00  0.00    +0.071 C 
BRANCH  26  29
ATOM     27  N   UNK     1     -39.904  24.861   3.644  0.00  0.00    -0.319 N 
ATOM     28  N   UNK     1     -41.266  25.763   2.140  0.00  0.00    -0.315 N 
ATOM     29  C   UNK     1     -39.816  24.067   2.535  0.00  0.00    +0.040 C 
ATOM     30  C   UNK     1     -40.666  24.644   1.621  0.00  0.00    +0.069 C 
ATOM     31  C   UNK     1     -40.786  25.866   3.360  0.00  0.00    +0.182 C 
ATOM     32  H   UNK     1     -39.421  24.733   4.493  0.00  0.00    +0.148 HD
ATOM     33  H   UNK     1     -41.913  26.358   1.697  0.00  0.00    +0.148 HD
ENDBRANCH  26  29
ENDBRANCH   1  26
TORSDOF 7
ENDMDL
MODEL 7
REMARK VINA RESULT:      -5.8      3.209      4.068
REMARK  Name = 21120621
REMARK  7 active torsions:
REMARK  status: ('A' for Active; 'I' for Inactive)
REMARK    1  A    between atoms: C_1  and  C_8
REMARK    2  A    between atoms: C_1  and  N_14
REMARK    3  A    between atoms: C_1  and  C_26
REMARK    4  A    between atoms: C_4  and  C_10
REMARK    5  A    between atoms: C_10  and  O_11
REMARK    6  A    between atoms: C_15  and  C_20
REMARK    7  A    between atoms: C_26  and  C_29
REMARK                            x       y       z     vdW  Elec       q    Type
REMARK                         _______ _______ _______ _____ _____    ______ ____
ROOT
ATOM      1  C   UNK     1     -37.637  22.963   1.919  0.00  0.00    +0.155 C 
ENDROOT
BRANCH   1   8
ATOM      2  O   UNK     1     -36.074  21.299   2.591  0.00  0.00    -0.273 OA
ATOM      3  N   UNK     1     -36.163  23.236   3.854  0.00  0.00    -0.270 N 
ATOM      4  C   UNK     1     -35.022  22.931   4.707  0.00  0.00    +0.175 C 
ATOM      5  C   UNK     1     -34.675  24.255   5.379  0.00  0.00    +0.033 C 
ATOM      6  C   UNK     1     -36.701  24.562   4.149  0.00  0.00    +0.094 C 
ATOM      7  C   UNK     1     -36.015  24.984   5.439  0.00  0.00    +0.024 C 
ATOM      8  C   UNK     1     -36.550  22.413   2.808  0.00  0.00    +0.244 C 
BRANCH   4  10
ATOM      9  O   UNK     1     -36.125  22.144   6.708  0.00  0.00    -0.248 OA
ATOM     10  C   UNK     1     -35.475  21.905   5.703  0.00  0.00    +0.332 C 
BRANCH  10  11
ATOM     11  O   UNK     1     -35.062  20.667   5.335  0.00  0.00    -0.479 OA
ATOM     12  H   UNK     1     -35.042  19.974   5.963  0.00  0.00    +0.295 HD
ENDBRANCH  10  11
ENDBRANCH   4  10
ENDBRANCH   1   8
BRANCH   1  14
ATOM     13  O   UNK     1     -35.672  24.800   0.829  0.00  0.00    -0.273 OA
ATOM     14  N   UNK     1     -37.048  22.933   0.611  0.00  0.00    -0.297 N 
ATOM     15  C   UNK     1     -36.107  23.859   0.172  0.00  0.00    +0.242 C 
ATOM     16  H   UNK     1     -37.322  22.218  -0.007  0.00  0.00    +0.150 HD
BRANCH  15  20
ATOM     17  S   UNK     1     -35.034  20.815  -1.137  0.00  0.00    -0.130 S 
ATOM     18  O   UNK     1     -32.052  23.091  -1.000  0.00  0.00    -0.274 OA
ATOM     19  N   UNK     1     -34.205  23.804  -1.283  0.00  0.00    -0.297 N 
ATOM     20  C   UNK     1     -35.635  23.582  -1.225  0.00  0.00    +0.159 C 
ATOM     21  C   UNK     1     -36.035  22.213  -1.751  0.00  0.00    +0.087 C 
ATOM     22  C   UNK     1     -33.809  21.687  -0.110  0.00  0.00    +0.124 C 
ATOM     23  C   UNK     1     -33.258  22.897  -0.850  0.00  0.00    +0.232 C 
ATOM     24  C   UNK     1     -32.703  20.706   0.269  0.00  0.00    +0.021 C 
ATOM     25  H   UNK     1     -33.886  24.658  -1.657  0.00  0.00    +0.150 HD
ENDBRANCH  15  20
ENDBRANCH   1  14
BRANCH   1  26
ATOM     26  C   UNK     1     -38.895  22.111   2.034  0.00  0.00    +0.071 C 
BRANCH  26  29
ATOM     27  N   UNK     1     -38.284  20.103   0.627  0.00  0.00    -0.319 N 
ATOM     28  N   UNK     1     -39.712  20.170  -1.072  0.00  0.00    -0.315 N 
ATOM     29  C   UNK     1     -39.068  21.203   0.840  0.00  0.00    +0.040 C 
ATOM     30  C   UNK     1     -39.941  21.223  -0.223  0.00  0.00    +0.069 C 
ATOM     31  C   UNK     1     -38.707  19.515  -0.532  0.00  0.00    +0.182 C 
ATOM     32  H   UNK     1     -37.549  19.791   1.203  0.00  0.00    +0.148 HD
ATOM     33  H   UNK     1     -40.193  19.953  -1.903  0.00  0.00    +0.148 HD
ENDBRANCH  26  29
ENDBRANCH   1  26
TORSDOF 7
ENDMDL
MODEL 8
REMARK VINA RESULT:      -5.7      3.241      5.980
REMARK  Name = 21120621
REMARK  7 active torsions:
REMARK  status: ('A' for Active; 'I' for Inactive)
REMARK    1  A    between atoms: C_1  and  C_8
REMARK    2  A    between atoms: C_1  and  N_14
REMARK    3  A    between atoms: C_1  and  C_26
REMARK    4  A    between atoms: C_4  and  C_10
REMARK    5  A    between atoms: C_10  and  O_11
REMARK    6  A    between atoms: C_15  and  C_20
REMARK    7  A    between atoms: C_26  and  C_29
REMARK                            x       y       z     vdW  Elec       q    Type
REMARK                         _______ _______ _______ _____ _____    ______ ____
ROOT
ATOM      1  C   UNK     1     -36.026  22.455   3.136  0.00  0.00    +0.155 C 
ENDROOT
BRANCH   1   8
ATOM      2  O   UNK     1     -35.245  20.221   3.391  0.00  0.00    -0.273 OA
ATOM      3  N   UNK     1     -35.165  21.132   1.265  0.00  0.00    -0.270 N 
ATOM      4  C   UNK     1     -34.755  19.914   0.578  0.00  0.00    +0.175 C 
ATOM      5  C   UNK     1     -35.001  20.202  -0.900  0.00  0.00    +0.033 C 
ATOM      6  C   UNK     1     -35.387  22.222   0.318  0.00  0.00    +0.094 C 
ATOM      7  C   UNK     1     -34.823  21.715  -1.001  0.00  0.00    +0.024 C 
ATOM      8  C   UNK     1     -35.447  21.161   2.622  0.00  0.00    +0.244 C 
BRANCH   4  10
ATOM      9  O   UNK     1     -32.391  20.394   0.422  0.00  0.00    -0.248 OA
ATOM     10  C   UNK     1     -33.299  19.710   0.870  0.00  0.00    +0.332 C 
BRANCH  10  11
ATOM     11  O   UNK     1     -33.121  18.656   1.703  0.00  0.00    -0.479 OA
ATOM     12  H   UNK     1     -33.702  18.526   2.426  0.00  0.00    +0.295 HD
ENDBRANCH  10  11
ENDBRANCH   4  10
ENDBRANCH   1   8
BRANCH   1  14
ATOM     13  O   UNK     1     -37.865  24.543   2.310  0.00  0.00    -0.273 OA
ATOM     14  N   UNK     1     -37.429  22.325   2.870  0.00  0.00    -0.297 N 
ATOM     15  C   UNK     1     -38.238  23.385   2.476  0.00  0.00    +0.242 C 
ATOM     16  H   UNK     1     -37.842  21.436   2.971  0.00  0.00    +0.150 HD
BRANCH  15  20
ATOM     17  S   UNK     1     -39.404  21.047   0.173  0.00  0.00    -0.130 S 
ATOM     18  O   UNK     1     -40.618  24.420  -0.941  0.00  0.00    -0.274 OA
ATOM     19  N   UNK     1     -40.237  23.843   1.238  0.00  0.00    -0.297 N 
ATOM     20  C   UNK     1     -39.659  22.969   2.238  0.00  0.00    +0.159 C 
ATOM     21  C   UNK     1     -39.821  21.498   1.892  0.00  0.00    +0.087 C 
ATOM     22  C   UNK     1     -38.992  22.678  -0.526  0.00  0.00    +0.124 C 
ATOM     23  C   UNK     1     -40.036  23.709  -0.123  0.00  0.00    +0.232 C 
ATOM     24  C   UNK     1     -38.887  22.546  -2.042  0.00  0.00    +0.021 C 
ATOM     25  H   UNK     1     -40.811  24.580   1.547  0.00  0.00    +0.150 HD
ENDBRANCH  15  20
ENDBRANCH   1  14
BRANCH   1  26
ATOM     26  C   UNK     1     -35.704  22.625   4.616  0.00  0.00    +0.071 C 
BRANCH  26  29
ATOM     27  N   UNK     1     -36.626  24.912   5.169  0.00  0.00    -0.319 N 
ATOM     28  N   UNK     1     -34.823  26.151   5.550  0.00  0.00    -0.315 N 
ATOM     29  C   UNK     1     -35.555  24.080   4.994  0.00  0.00    +0.040 C 
ATOM     30  C   UNK     1     -34.455  24.868   5.234  0.00  0.00    +0.069 C 
ATOM     31  C   UNK     1     -36.138  26.144   5.502  0.00  0.00    +0.182 C 
ATOM     32  H   UNK     1     -37.575  24.668   5.073  0.00  0.00    +0.148 HD
ATOM     33  H   UNK     1     -34.234  26.910   5.766  0.00  0.00    +0.148 HD
ENDBRANCH  26  29
ENDBRANCH   1  26
TORSDOF 7
ENDMDL
MODEL 9
REMARK VINA RESULT:      -5.7      2.730      5.328
REMARK  Name = 21120621
REMARK  7 active torsions:
REMARK  status: ('A' for Active; 'I' for Inactive)
REMARK    1  A    between atoms: C_1  and  C_8
REMARK    2  A    between atoms: C_1  and  N_14
REMARK    3  A    between atoms: C_1  and  C_26
REMARK    4  A    between atoms: C_4  and  C_10
REMARK    5  A    between atoms: C_10  and  O_11
REMARK    6  A    between atoms: C_15  and  C_20
REMARK    7  A    between atoms: C_26  and  C_29
REMARK                            x       y       z     vdW  Elec       q    Type
REMARK                         _______ _______ _______ _____ _____    ______ ____
ROOT
ATOM      1  C   UNK     1     -37.754  24.417   2.044  0.00  0.00    +0.155 C 
ENDROOT
BRANCH   1   8
ATOM      2  O   UNK     1     -38.531  22.169   2.119  0.00  0.00    -0.273 OA
ATOM      3  N   UNK     1     -36.369  22.514   1.370  0.00  0.00    -0.270 N 
ATOM      4  C   UNK     1     -36.107  21.137   0.973  0.00  0.00    +0.175 C 
ATOM      5  C   UNK     1     -34.856  21.214   0.105  0.00  0.00    +0.033 C 
ATOM      6  C   UNK     1     -35.240  23.381   1.038  0.00  0.00    +0.094 C 
ATOM      7  C   UNK     1     -34.116  22.430   0.658  0.00  0.00    +0.024 C 
ATOM      8  C   UNK     1     -37.601  22.930   1.849  0.00  0.00    +0.244 C 
BRANCH   4  10
ATOM      9  O   UNK     1     -34.808  20.313   2.837  0.00  0.00    -0.248 OA
ATOM     10  C   UNK     1     -35.866  20.354   2.229  0.00  0.00    +0.332 C 
BRANCH  10  11
ATOM     11  O   UNK     1     -36.988  19.690   2.601  0.00  0.00    -0.479 OA
ATOM     12  H   UNK     1     -36.958  18.766   2.751  0.00  0.00    +0.295 HD
ENDBRANCH  10  11
ENDBRANCH   4  10
ENDBRANCH   1   8
BRANCH   1  14
ATOM     13  O   UNK     1     -38.562  27.093   1.263  0.00  0.00    -0.273 OA
ATOM     14  N   UNK     1     -38.764  24.779   1.092  0.00  0.00    -0.297 N 
ATOM     15  C   UNK     1     -39.086  26.095   0.777  0.00  0.00    +0.242 C 
ATOM     16  H   UNK     1     -39.254  24.057   0.636  0.00  0.00    +0.150 HD
BRANCH  15  20
ATOM     17  S   UNK     1     -41.987  28.018   0.890  0.00  0.00    -0.130 S 
ATOM     18  O   UNK     1     -43.024  24.413   1.057  0.00  0.00    -0.274 OA
ATOM     19  N   UNK     1     -41.149  25.167  -0.012  0.00  0.00    -0.297 N 
ATOM     20  C   UNK     1     -40.157  26.192  -0.268  0.00  0.00    +0.159 C 
ATOM     21  C   UNK     1     -40.770  27.577  -0.396  0.00  0.00    +0.087 C 
ATOM     22  C   UNK     1     -42.046  26.475   1.858  0.00  0.00    +0.124 C 
ATOM     23  C   UNK     1     -42.150  25.271   0.935  0.00  0.00    +0.232 C 
ATOM     24  C   UNK     1     -43.227  26.550   2.822  0.00  0.00    +0.021 C 
ATOM     25  H   UNK     1     -41.107  24.342  -0.548  0.00  0.00    +0.150 HD
ENDBRANCH  15  20
ENDBRANCH   1  14
BRANCH   1  26
ATOM     26  C   UNK     1     -38.145  24.722   3.486  0.00  0.00    +0.071 C 
BRANCH  26  29
ATOM     27  N   UNK     1     -36.609  26.145   4.900  0.00  0.00    -0.319 N 
ATOM     28  N   UNK     1     -35.041  24.736   5.595  0.00  0.00    -0.315 N 
ATOM     29  C   UNK     1     -36.932  24.931   4.362  0.00  0.00    +0.040 C 
ATOM     30  C   UNK     1     -35.949  24.078   4.805  0.00  0.00    +0.069 C 
ATOM     31  C   UNK     1     -35.467  25.979   5.631  0.00  0.00    +0.182 C 
ATOM     32  H   UNK     1     -37.107  26.987   4.782  0.00  0.00    +0.148 HD
ATOM     33  H   UNK     1     -34.245  24.360   6.037  0.00  0.00    +0.148 HD
ENDBRANCH  26  29
ENDBRANCH   1  26
TORSDOF 7
ENDMDL
