MODEL 1
REMARK VINA RESULT:      -5.8      0.000      0.000
REMARK  Name = 60947
REMARK  15 active torsions:
REMARK  status: ('A' for Active; 'I' for Inactive)
REMARK    1  A    between atoms: C_1  and  O_7
REMARK    2  A    between atoms: C_2  and  C_20
REMARK    3  A    between atoms: O_7  and  C_8
REMARK    4  A    between atoms: C_8  and  C_9
REMARK    5  A    between atoms: C_9  and  C_10
REMARK    6  A    between atoms: C_10  and  C_11
REMARK    7  A    between atoms: C_11  and  C_13
REMARK    8  A    between atoms: C_20  and  C_21
REMARK    9  A    between atoms: C_21  and  C_23
REMARK   10  A    between atoms: C_21  and  N_26
REMARK   11  A    between atoms: C_23  and  O_24
REMARK   12  A    between atoms: N_26  and  S_28
REMARK   13  A    between atoms: S_28  and  C_31
REMARK   14  A    between atoms: C_31  and  C_32
REMARK   15  A    between atoms: C_32  and  C_33
REMARK                            x       y       z     vdW  Elec       q    Type
REMARK                         _______ _______ _______ _____ _____    ______ ____
ROOT
ATOM      1  C   UNL     1     -36.229  22.083   2.393  0.00  0.00    +0.139 C 
ATOM      2  C   UNL     1     -36.474  24.862   2.407  0.00  0.00    -0.020 C 
ATOM      3  C   UNL     1     -37.370  22.680   2.929  0.00  0.00    +0.037 C 
ATOM      4  C   UNL     1     -35.210  22.876   1.865  0.00  0.00    +0.037 C 
ATOM      5  C   UNL     1     -37.493  24.070   2.935  0.00  0.00    -0.001 C 
ATOM      6  C   UNL     1     -35.332  24.265   1.872  0.00  0.00    -0.001 C 
ENDROOT
BRANCH   1   7
ATOM      7  O   UNL     1     -36.108  20.718   2.386  0.00  0.00    -0.475 OA
BRANCH   7   8
ATOM      8  C   UNL     1     -34.890  20.183   1.889  0.00  0.00    +0.205 C 
BRANCH   8   9
ATOM      9  C   UNL     1     -35.184  19.367   0.639  0.00  0.00    +0.047 C 
BRANCH   9  10
ATOM     10  C   UNL     1     -33.914  19.075  -0.156  0.00  0.00    +0.004 C 
BRANCH  10  11
ATOM     11  C   UNL     1     -32.932  20.241  -0.073  0.00  0.00    -0.000 C 
BRANCH  11  13
ATOM     12  N   UNL     1     -29.197  18.064  -0.171  0.00  0.00    +0.384 N 
ATOM     13  C   UNL     1     -31.538  19.765   0.328  0.00  0.00    -0.004 C 
ATOM     14  C   UNL     1     -30.513  20.080  -0.769  0.00  0.00    -0.023 C 
ATOM     15  C   UNL     1     -31.535  18.262   0.631  0.00  0.00    -0.023 C 
ATOM     16  C   UNL     1     -29.138  19.506  -0.422  0.00  0.00    -0.082 C 
ATOM     17  C   UNL     1     -30.120  17.760   0.924  0.00  0.00    -0.082 C 
ATOM     18  H   UNL     1     -28.266  17.730   0.075  0.00  0.00    -0.085 HD
ATOM     19  H   UNL     1     -29.530  17.600  -1.017  0.00  0.00    -0.085 HD
ENDBRANCH  11  13
ENDBRANCH  10  11
ENDBRANCH   9  10
ENDBRANCH   8   9
ENDBRANCH   7   8
ENDBRANCH   1   7
BRANCH   2  20
ATOM     20  C   UNL     1     -36.604  26.348   2.413  0.00  0.00    +0.055 C 
BRANCH  20  21
ATOM     21  C   UNL     1     -35.307  27.073   2.804  0.00  0.00    +0.178 C 
BRANCH  21  23
ATOM     22  O   UNL     1     -35.379  28.792   1.079  0.00  0.00    -0.249 OA
ATOM     23  C   UNL     1     -35.276  28.485   2.259  0.00  0.00    +0.330 C 
BRANCH  23  24
ATOM     24  O   UNL     1     -35.120  29.405   3.247  0.00  0.00    -0.479 OA
ATOM     25  H   UNL     1     -35.718  30.123   3.318  0.00  0.00    +0.295 HD
ENDBRANCH  23  24
ENDBRANCH  21  23
BRANCH  21  26
ATOM     26  N   UNL     1     -35.219  27.179   4.279  0.00  0.00    -0.174 NA
ATOM     27  H   UNL     1     -34.999  28.151   4.497  0.00  0.00    +0.149 HD
BRANCH  26  28
ATOM     28  S   UNL     1     -34.090  26.212   5.110  0.00  0.00    +0.041 S 
ATOM     29  O   UNL     1     -33.520  26.955   6.217  0.00  0.00    -0.157 OA
ATOM     30  O   UNL     1     -33.237  25.567   4.131  0.00  0.00    -0.157 OA
BRANCH  28  31
ATOM     31  C   UNL     1     -35.162  24.963   5.785  0.00  0.00    +0.169 C 
BRANCH  31  32
ATOM     32  C   UNL     1     -34.653  23.566   5.467  0.00  0.00    +0.027 C 
BRANCH  32  33
ATOM     33  C   UNL     1     -35.483  22.498   6.177  0.00  0.00    +0.002 C 
ATOM     34  C   UNL     1     -35.090  21.099   5.732  0.00  0.00    +0.000 C 
ENDBRANCH  32  33
ENDBRANCH  31  32
ENDBRANCH  28  31
ENDBRANCH  26  28
ENDBRANCH  21  26
ENDBRANCH  20  21
ENDBRANCH   2  20
TORSDOF 15
ENDMDL
MODEL 2
REMARK VINA RESULT:      -5.7      3.242      5.468
REMARK  Name = 60947
REMARK  15 active torsions:
REMARK  status: ('A' for Active; 'I' for Inactive)
REMARK    1  A    between atoms: C_1  and  O_7
REMARK    2  A    between atoms: C_2  and  C_20
REMARK    3  A    between atoms: O_7  and  C_8
REMARK    4  A    between atoms: C_8  and  C_9
REMARK    5  A    between atoms: C_9  and  C_10
REMARK    6  A    between atoms: C_10  and  C_11
REMARK    7  A    between atoms: C_11  and  C_13
REMARK    8  A    between atoms: C_20  and  C_21
REMARK    9  A    between atoms: C_21  and  C_23
REMARK   10  A    between atoms: C_21  and  N_26
REMARK   11  A    between atoms: C_23  and  O_24
REMARK   12  A    between atoms: N_26  and  S_28
REMARK   13  A    between atoms: S_28  and  C_31
REMARK   14  A    between atoms: C_31  and  C_32
REMARK   15  A    between atoms: C_32  and  C_33
REMARK                            x       y       z     vdW  Elec       q    Type
REMARK                         _______ _______ _______ _____ _____    ______ ____
ROOT
ATOM      1  C   UNL     1     -32.360  20.221   0.073  0.00  0.00    +0.139 C 
ATOM      2  C   UNL     1     -34.666  20.405   1.631  0.00  0.00    -0.020 C 
ATOM      3  C   UNL     1     -33.188  21.338  -0.037  0.00  0.00    +0.037 C 
ATOM      4  C   UNL     1     -32.685  19.196   0.961  0.00  0.00    +0.037 C 
ATOM      5  C   UNL     1     -34.341  21.430   0.742  0.00  0.00    -0.001 C 
ATOM      6  C   UNL     1     -33.837  19.288   1.740  0.00  0.00    -0.001 C 
ENDROOT
BRANCH   1   7
ATOM      7  O   UNL     1     -31.226  20.130  -0.693  0.00  0.00    -0.475 OA
BRANCH   7   8
ATOM      8  C   UNL     1     -31.102  18.984  -1.522  0.00  0.00    +0.205 C 
BRANCH   8   9
ATOM      9  C   UNL     1     -32.030  19.139  -2.718  0.00  0.00    +0.047 C 
BRANCH   9  10
ATOM     10  C   UNL     1     -33.069  18.021  -2.774  0.00  0.00    +0.004 C 
BRANCH  10  11
ATOM     11  C   UNL     1     -34.464  18.549  -2.451  0.00  0.00    -0.000 C 
BRANCH  11  13
ATOM     12  N   UNL     1     -36.794  15.595  -0.321  0.00  0.00    +0.384 N 
ATOM     13  C   UNL     1     -35.092  17.782  -1.290  0.00  0.00    -0.004 C 
ATOM     14  C   UNL     1     -34.625  16.320  -1.280  0.00  0.00    -0.023 C 
ATOM     15  C   UNL     1     -36.623  17.841  -1.355  0.00  0.00    -0.023 C 
ATOM     16  C   UNL     1     -35.337  15.521  -0.188  0.00  0.00    -0.082 C 
ATOM     17  C   UNL     1     -37.256  16.982  -0.259  0.00  0.00    -0.082 C 
ATOM     18  H   UNL     1     -37.225  15.065   0.437  0.00  0.00    -0.085 HD
ATOM     19  H   UNL     1     -37.058  15.202  -1.225  0.00  0.00    -0.085 HD
ENDBRANCH  11  13
ENDBRANCH  10  11
ENDBRANCH   9  10
ENDBRANCH   8   9
ENDBRANCH   7   8
ENDBRANCH   1   7
BRANCH   2  20
ATOM     20  C   UNL     1     -35.899  20.503   2.465  0.00  0.00    +0.055 C 
BRANCH  20  21
ATOM     21  C   UNL     1     -36.818  21.667   2.062  0.00  0.00    +0.178 C 
BRANCH  21  23
ATOM     22  O   UNL     1     -38.176  20.975   0.161  0.00  0.00    -0.249 OA
ATOM     23  C   UNL     1     -38.066  21.171   1.364  0.00  0.00    +0.330 C 
BRANCH  23  24
ATOM     24  O   UNL     1     -39.083  20.955   2.240  0.00  0.00    -0.479 OA
ATOM     25  H   UNL     1     -39.855  21.484   2.201  0.00  0.00    +0.295 HD
ENDBRANCH  23  24
ENDBRANCH  21  23
BRANCH  21  26
ATOM     26  N   UNL     1     -37.263  22.394   3.274  0.00  0.00    -0.174 NA
ATOM     27  H   UNL     1     -38.171  22.011   3.537  0.00  0.00    +0.149 HD
BRANCH  26  28
ATOM     28  S   UNL     1     -37.436  24.087   3.203  0.00  0.00    +0.041 S 
ATOM     29  O   UNL     1     -38.780  24.465   3.596  0.00  0.00    -0.157 OA
ATOM     30  O   UNL     1     -36.870  24.550   1.951  0.00  0.00    -0.157 OA
BRANCH  28  31
ATOM     31  C   UNL     1     -36.327  24.585   4.503  0.00  0.00    +0.169 C 
BRANCH  31  32
ATOM     32  C   UNL     1     -35.200  23.581   4.682  0.00  0.00    +0.027 C 
BRANCH  32  33
ATOM     33  C   UNL     1     -35.272  22.906   6.051  0.00  0.00    +0.002 C 
ATOM     34  C   UNL     1     -35.006  21.412   5.951  0.00  0.00    +0.000 C 
ENDBRANCH  32  33
ENDBRANCH  31  32
ENDBRANCH  28  31
ENDBRANCH  26  28
ENDBRANCH  21  26
ENDBRANCH  20  21
ENDBRANCH   2  20
TORSDOF 15
ENDMDL
MODEL 3
REMARK VINA RESULT:      -5.7      4.572      8.601
REMARK  Name = 60947
REMARK  15 active torsions:
REMARK  status: ('A' for Active; 'I' for Inactive)
REMARK    1  A    between atoms: C_1  and  O_7
REMARK    2  A    between atoms: C_2  and  C_20
REMARK    3  A    between atoms: O_7  and  C_8
REMARK    4  A    between atoms: C_8  and  C_9
REMARK    5  A    between atoms: C_9  and  C_10
REMARK    6  A    between atoms: C_10  and  C_11
REMARK    7  A    between atoms: C_11  and  C_13
REMARK    8  A    between atoms: C_20  and  C_21
REMARK    9  A    between atoms: C_21  and  C_23
REMARK   10  A    between atoms: C_21  and  N_26
REMARK   11  A    between atoms: C_23  and  O_24
REMARK   12  A    between atoms: N_26  and  S_28
REMARK   13  A    between atoms: S_28  and  C_31
REMARK   14  A    between atoms: C_31  and  C_32
REMARK   15  A    between atoms: C_32  and  C_33
REMARK                            x       y       z     vdW  Elec       q    Type
REMARK                         _______ _______ _______ _____ _____    ______ ____
ROOT
ATOM      1  C   UNL     1     -32.776  27.162   3.681  0.00  0.00    +0.139 C 
ATOM      2  C   UNL     1     -34.538  25.328   4.827  0.00  0.00    -0.020 C 
ATOM      3  C   UNL     1     -33.193  26.046   2.953  0.00  0.00    +0.037 C 
ATOM      4  C   UNL     1     -33.239  27.360   4.981  0.00  0.00    +0.037 C 
ATOM      5  C   UNL     1     -34.074  25.130   3.527  0.00  0.00    -0.001 C 
ATOM      6  C   UNL     1     -34.120  26.443   5.555  0.00  0.00    -0.001 C 
ENDROOT
BRANCH   1   7
ATOM      7  O   UNL     1     -31.910  28.063   3.117  0.00  0.00    -0.475 OA
BRANCH   7   8
ATOM      8  C   UNL     1     -32.388  28.799   2.000  0.00  0.00    +0.205 C 
BRANCH   8   9
ATOM      9  C   UNL     1     -31.787  30.197   2.039  0.00  0.00    +0.047 C 
BRANCH   9  10
ATOM     10  C   UNL     1     -32.299  30.998   3.234  0.00  0.00    +0.004 C 
BRANCH  10  11
ATOM     11  C   UNL     1     -31.170  31.782   3.896  0.00  0.00    -0.000 C 
BRANCH  11  13
ATOM     12  N   UNL     1     -30.476  28.769   6.918  0.00  0.00    +0.384 N 
ATOM     13  C   UNL     1     -30.758  31.149   5.222  0.00  0.00    -0.004 C 
ATOM     14  C   UNL     1     -29.636  30.122   5.017  0.00  0.00    -0.023 C 
ATOM     15  C   UNL     1     -31.956  30.484   5.912  0.00  0.00    -0.023 C 
ATOM     16  C   UNL     1     -29.297  29.406   6.325  0.00  0.00    -0.082 C 
ATOM     17  C   UNL     1     -31.525  29.754   7.184  0.00  0.00    -0.082 C 
ATOM     18  H   UNL     1     -30.207  28.322   7.795  0.00  0.00    -0.085 HD
ATOM     19  H   UNL     1     -30.837  28.076   6.261  0.00  0.00    -0.085 HD
ENDBRANCH  11  13
ENDBRANCH  10  11
ENDBRANCH   9  10
ENDBRANCH   8   9
ENDBRANCH   7   8
ENDBRANCH   1   7
BRANCH   2  20
ATOM     20  C   UNL     1     -35.481  24.349   5.441  0.00  0.00    +0.055 C 
BRANCH  20  21
ATOM     21  C   UNL     1     -35.478  22.979   4.744  0.00  0.00    +0.178 C 
BRANCH  21  23
ATOM     22  O   UNL     1     -35.158  21.984   6.944  0.00  0.00    -0.249 OA
ATOM     23  C   UNL     1     -35.238  21.856   5.730  0.00  0.00    +0.330 C 
BRANCH  23  24
ATOM     24  O   UNL     1     -35.122  20.653   5.108  0.00  0.00    -0.479 OA
ATOM     25  H   UNL     1     -34.997  19.874   5.613  0.00  0.00    +0.295 HD
ENDBRANCH  23  24
ENDBRANCH  21  23
BRANCH  21  26
ATOM     26  N   UNL     1     -36.801  22.732   4.124  0.00  0.00    -0.174 NA
ATOM     27  H   UNL     1     -37.254  21.997   4.667  0.00  0.00    +0.149 HD
BRANCH  26  28
ATOM     28  S   UNL     1     -36.871  22.261   2.489  0.00  0.00    +0.041 S 
ATOM     29  O   UNL     1     -38.175  21.702   2.189  0.00  0.00    -0.157 OA
ATOM     30  O   UNL     1     -35.659  21.531   2.174  0.00  0.00    -0.157 OA
BRANCH  28  31
ATOM     31  C   UNL     1     -36.759  23.845   1.686  0.00  0.00    +0.169 C 
BRANCH  31  32
ATOM     32  C   UNL     1     -37.989  24.694   1.964  0.00  0.00    +0.027 C 
BRANCH  32  33
ATOM     33  C   UNL     1     -37.631  25.941   2.771  0.00  0.00    +0.002 C 
ATOM     34  C   UNL     1     -36.887  26.960   1.921  0.00  0.00    +0.000 C 
ENDBRANCH  32  33
ENDBRANCH  31  32
ENDBRANCH  28  31
ENDBRANCH  26  28
ENDBRANCH  21  26
ENDBRANCH  20  21
ENDBRANCH   2  20
TORSDOF 15
ENDMDL
MODEL 4
REMARK VINA RESULT:      -5.7      2.103      3.752
REMARK  Name = 60947
REMARK  15 active torsions:
REMARK  status: ('A' for Active; 'I' for Inactive)
REMARK    1  A    between atoms: C_1  and  O_7
REMARK    2  A    between atoms: C_2  and  C_20
REMARK    3  A    between atoms: O_7  and  C_8
REMARK    4  A    between atoms: C_8  and  C_9
REMARK    5  A    between atoms: C_9  and  C_10
REMARK    6  A    between atoms: C_10  and  C_11
REMARK    7  A    between atoms: C_11  and  C_13
REMARK    8  A    between atoms: C_20  and  C_21
REMARK    9  A    between atoms: C_21  and  C_23
REMARK   10  A    between atoms: C_21  and  N_26
REMARK   11  A    between atoms: C_23  and  O_24
REMARK   12  A    between atoms: N_26  and  S_28
REMARK   13  A    between atoms: S_28  and  C_31
REMARK   14  A    between atoms: C_31  and  C_32
REMARK   15  A    between atoms: C_32  and  C_33
REMARK                            x       y       z     vdW  Elec       q    Type
REMARK                         _______ _______ _______ _____ _____    ______ ____
ROOT
ATOM      1  C   UNL     1     -36.598  23.688   4.082  0.00  0.00    +0.139 C 
ATOM      2  C   UNL     1     -34.751  25.271   5.448  0.00  0.00    -0.020 C 
ATOM      3  C   UNL     1     -36.866  25.039   4.304  0.00  0.00    +0.037 C 
ATOM      4  C   UNL     1     -35.407  23.129   4.543  0.00  0.00    +0.037 C 
ATOM      5  C   UNL     1     -35.943  25.830   4.987  0.00  0.00    -0.001 C 
ATOM      6  C   UNL     1     -34.483  23.920   5.225  0.00  0.00    -0.001 C 
ENDROOT
BRANCH   1   7
ATOM      7  O   UNL     1     -37.506  22.911   3.411  0.00  0.00    -0.475 OA
BRANCH   7   8
ATOM      8  C   UNL     1     -37.186  22.563   2.071  0.00  0.00    +0.205 C 
BRANCH   8   9
ATOM      9  C   UNL     1     -37.181  21.046   1.945  0.00  0.00    +0.047 C 
BRANCH   9  10
ATOM     10  C   UNL     1     -35.775  20.472   2.102  0.00  0.00    +0.004 C 
BRANCH  10  11
ATOM     11  C   UNL     1     -34.880  20.880   0.935  0.00  0.00    -0.000 C 
BRANCH  11  13
ATOM     12  N   UNL     1     -31.376  18.498   0.070  0.00  0.00    +0.384 N 
ATOM     13  C   UNL     1     -33.482  20.282   1.072  0.00  0.00    -0.004 C 
ATOM     14  C   UNL     1     -32.609  20.640  -0.139  0.00  0.00    -0.023 C 
ATOM     15  C   UNL     1     -33.548  18.759   1.237  0.00  0.00    -0.023 C 
ATOM     16  C   UNL     1     -31.246  19.952  -0.059  0.00  0.00    -0.082 C 
ATOM     17  C   UNL     1     -32.147  18.145   1.263  0.00  0.00    -0.082 C 
ATOM     18  H   UNL     1     -30.446  18.085   0.139  0.00  0.00    -0.085 HD
ATOM     19  H   UNL     1     -31.865  18.141  -0.752  0.00  0.00    -0.085 HD
ENDBRANCH  11  13
ENDBRANCH  10  11
ENDBRANCH   9  10
ENDBRANCH   8   9
ENDBRANCH   7   8
ENDBRANCH   1   7
BRANCH   2  20
ATOM     20  C   UNL     1     -33.762  26.117   6.177  0.00  0.00    +0.055 C 
BRANCH  20  21
ATOM     21  C   UNL     1     -33.239  27.299   5.347  0.00  0.00    +0.178 C 
BRANCH  21  23
ATOM     22  O   UNL     1     -32.139  29.319   6.147  0.00  0.00    -0.249 OA
ATOM     23  C   UNL     1     -32.205  28.098   6.110  0.00  0.00    +0.330 C 
BRANCH  23  24
ATOM     24  O   UNL     1     -31.334  27.293   6.773  0.00  0.00    -0.479 OA
ATOM     25  H   UNL     1     -31.630  26.484   7.142  0.00  0.00    +0.295 HD
ENDBRANCH  23  24
ENDBRANCH  21  23
BRANCH  21  26
ATOM     26  N   UNL     1     -32.575  26.794   4.122  0.00  0.00    -0.174 NA
ATOM     27  H   UNL     1     -31.593  26.643   4.354  0.00  0.00    +0.149 HD
BRANCH  26  28
ATOM     28  S   UNL     1     -32.615  27.744   2.710  0.00  0.00    +0.041 S 
ATOM     29  O   UNL     1     -31.383  28.499   2.585  0.00  0.00    -0.157 OA
ATOM     30  O   UNL     1     -33.902  28.408   2.645  0.00  0.00    -0.157 OA
BRANCH  28  31
ATOM     31  C   UNL     1     -32.608  26.477   1.461  0.00  0.00    +0.169 C 
BRANCH  31  32
ATOM     32  C   UNL     1     -33.321  25.222   1.942  0.00  0.00    +0.027 C 
BRANCH  32  33
ATOM     33  C   UNL     1     -34.639  25.014   1.198  0.00  0.00    +0.002 C 
ATOM     34  C   UNL     1     -34.412  24.396  -0.173  0.00  0.00    +0.000 C 
ENDBRANCH  32  33
ENDBRANCH  31  32
ENDBRANCH  28  31
ENDBRANCH  26  28
ENDBRANCH  21  26
ENDBRANCH  20  21
ENDBRANCH   2  20
TORSDOF 15
ENDMDL
MODEL 5
REMARK VINA RESULT:      -5.7      3.184      8.624
REMARK  Name = 60947
REMARK  15 active torsions:
REMARK  status: ('A' for Active; 'I' for Inactive)
REMARK    1  A    between atoms: C_1  and  O_7
REMARK    2  A    between atoms: C_2  and  C_20
REMARK    3  A    between atoms: O_7  and  C_8
REMARK    4  A    between atoms: C_8  and  C_9
REMARK    5  A    between atoms: C_9  and  C_10
REMARK    6  A    between atoms: C_10  and  C_11
REMARK    7  A    between atoms: C_11  and  C_13
REMARK    8  A    between atoms: C_20  and  C_21
REMARK    9  A    between atoms: C_21  and  C_23
REMARK   10  A    between atoms: C_21  and  N_26
REMARK   11  A    between atoms: C_23  and  O_24
REMARK   12  A    between atoms: N_26  and  S_28
REMARK   13  A    between atoms: S_28  and  C_31
REMARK   14  A    between atoms: C_31  and  C_32
REMARK   15  A    between atoms: C_32  and  C_33
REMARK                            x       y       z     vdW  Elec       q    Type
REMARK                         _______ _______ _______ _____ _____    ______ ____
ROOT
ATOM      1  C   UNL     1     -32.905  27.096   4.731  0.00  0.00    +0.139 C 
ATOM      2  C   UNL     1     -34.998  25.254   4.809  0.00  0.00    -0.020 C 
ATOM      3  C   UNL     1     -33.430  26.688   5.958  0.00  0.00    +0.037 C 
ATOM      4  C   UNL     1     -33.427  26.583   3.544  0.00  0.00    +0.037 C 
ATOM      5  C   UNL     1     -34.476  25.766   5.996  0.00  0.00    -0.001 C 
ATOM      6  C   UNL     1     -34.473  25.662   3.582  0.00  0.00    -0.001 C 
ENDROOT
BRANCH   1   7
ATOM      7  O   UNL     1     -31.876  28.002   4.693  0.00  0.00    -0.475 OA
BRANCH   7   8
ATOM      8  C   UNL     1     -31.384  28.465   5.942  0.00  0.00    +0.205 C 
BRANCH   8   9
ATOM      9  C   UNL     1     -31.089  29.954   5.833  0.00  0.00    +0.047 C 
BRANCH   9  10
ATOM     10  C   UNL     1     -32.268  30.719   5.235  0.00  0.00    +0.004 C 
BRANCH  10  11
ATOM     11  C   UNL     1     -31.894  31.349   3.896  0.00  0.00    -0.000 C 
BRANCH  11  13
ATOM     12  N   UNL     1     -35.197  29.589   1.730  0.00  0.00    +0.384 N 
ATOM     13  C   UNL     1     -33.017  31.189   2.875  0.00  0.00    -0.004 C 
ATOM     14  C   UNL     1     -34.376  31.034   3.572  0.00  0.00    -0.023 C 
ATOM     15  C   UNL     1     -32.760  29.989   1.955  0.00  0.00    -0.023 C 
ATOM     16  C   UNL     1     -35.488  30.763   2.558  0.00  0.00    -0.082 C 
ATOM     17  C   UNL     1     -33.937  29.760   1.005  0.00  0.00    -0.082 C 
ATOM     18  H   UNL     1     -35.953  29.459   1.059  0.00  0.00    -0.085 HD
ATOM     19  H   UNL     1     -35.116  28.774   2.339  0.00  0.00    -0.085 HD
ENDBRANCH  11  13
ENDBRANCH  10  11
ENDBRANCH   9  10
ENDBRANCH   8   9
ENDBRANCH   7   8
ENDBRANCH   1   7
BRANCH   2  20
ATOM     20  C   UNL     1     -36.117  24.267   4.849  0.00  0.00    +0.055 C 
BRANCH  20  21
ATOM     21  C   UNL     1     -35.682  22.836   4.497  0.00  0.00    +0.178 C 
BRANCH  21  23
ATOM     22  O   UNL     1     -35.343  22.458   6.879  0.00  0.00    -0.249 OA
ATOM     23  C   UNL     1     -35.417  22.016   5.740  0.00  0.00    +0.330 C 
BRANCH  23  24
ATOM     24  O   UNL     1     -35.268  20.695   5.453  0.00  0.00    -0.479 OA
ATOM     25  H   UNL     1     -35.805  20.059   5.882  0.00  0.00    +0.295 HD
ENDBRANCH  23  24
ENDBRANCH  21  23
BRANCH  21  26
ATOM     26  N   UNL     1     -36.767  22.153   3.754  0.00  0.00    -0.174 NA
ATOM     27  H   UNL     1     -36.870  21.224   4.160  0.00  0.00    +0.149 HD
BRANCH  26  28
ATOM     28  S   UNL     1     -36.613  21.949   2.070  0.00  0.00    +0.041 S 
ATOM     29  O   UNL     1     -35.549  22.795   1.564  0.00  0.00    -0.157 OA
ATOM     30  O   UNL     1     -37.938  21.992   1.484  0.00  0.00    -0.157 OA
BRANCH  28  31
ATOM     31  C   UNL     1     -36.053  20.262   1.994  0.00  0.00    +0.169 C 
BRANCH  31  32
ATOM     32  C   UNL     1     -34.540  20.175   2.124  0.00  0.00    +0.027 C 
BRANCH  32  33
ATOM     33  C   UNL     1     -33.927  19.408   0.953  0.00  0.00    +0.002 C 
ATOM     34  C   UNL     1     -32.924  18.371   1.431  0.00  0.00    +0.000 C 
ENDBRANCH  32  33
ENDBRANCH  31  32
ENDBRANCH  28  31
ENDBRANCH  26  28
ENDBRANCH  21  26
ENDBRANCH  20  21
ENDBRANCH   2  20
TORSDOF 15
ENDMDL
MODEL 6
REMARK VINA RESULT:      -5.6      4.455      8.427
REMARK  Name = 60947
REMARK  15 active torsions:
REMARK  status: ('A' for Active; 'I' for Inactive)
REMARK    1  A    between atoms: C_1  and  O_7
REMARK    2  A    between atoms: C_2  and  C_20
REMARK    3  A    between atoms: O_7  and  C_8
REMARK    4  A    between atoms: C_8  and  C_9
REMARK    5  A    between atoms: C_9  and  C_10
REMARK    6  A    between atoms: C_10  and  C_11
REMARK    7  A    between atoms: C_11  and  C_13
REMARK    8  A    between atoms: C_20  and  C_21
REMARK    9  A    between atoms: C_21  and  C_23
REMARK   10  A    between atoms: C_21  and  N_26
REMARK   11  A    between atoms: C_23  and  O_24
REMARK   12  A    between atoms: N_26  and  S_28
REMARK   13  A    between atoms: S_28  and  C_31
REMARK   14  A    between atoms: C_31  and  C_32
REMARK   15  A    between atoms: C_32  and  C_33
REMARK                            x       y       z     vdW  Elec       q    Type
REMARK                         _______ _______ _______ _____ _____    ______ ____
ROOT
ATOM      1  C   UNL     1     -32.949  27.254   4.524  0.00  0.00    +0.139 C 
ATOM      2  C   UNL     1     -34.944  25.350   4.939  0.00  0.00    -0.020 C 
ATOM      3  C   UNL     1     -33.309  26.893   5.822  0.00  0.00    +0.037 C 
ATOM      4  C   UNL     1     -33.587  26.664   3.433  0.00  0.00    +0.037 C 
ATOM      5  C   UNL     1     -34.306  25.940   6.030  0.00  0.00    -0.001 C 
ATOM      6  C   UNL     1     -34.584  25.711   3.640  0.00  0.00    -0.001 C 
ENDROOT
BRANCH   1   7
ATOM      7  O   UNL     1     -31.968  28.191   4.320  0.00  0.00    -0.475 OA
BRANCH   7   8
ATOM      8  C   UNL     1     -32.302  29.302   3.501  0.00  0.00    +0.205 C 
BRANCH   8   9
ATOM      9  C   UNL     1     -32.631  30.490   4.393  0.00  0.00    +0.047 C 
BRANCH   9  10
ATOM     10  C   UNL     1     -31.681  30.578   5.586  0.00  0.00    +0.004 C 
BRANCH  10  11
ATOM     11  C   UNL     1     -30.338  31.178   5.178  0.00  0.00    -0.000 C 
BRANCH  11  13
ATOM     12  N   UNL     1     -28.008  27.609   5.901  0.00  0.00    +0.384 N 
ATOM     13  C   UNL     1     -29.178  30.286   5.609  0.00  0.00    -0.004 C 
ATOM     14  C   UNL     1     -28.613  29.502   4.417  0.00  0.00    -0.023 C 
ATOM     15  C   UNL     1     -29.609  29.317   6.716  0.00  0.00    -0.023 C 
ATOM     16  C   UNL     1     -27.525  28.525   4.864  0.00  0.00    -0.082 C 
ATOM     17  C   UNL     1     -28.481  28.348   7.073  0.00  0.00    -0.082 C 
ATOM     18  H   UNL     1     -27.246  26.991   6.181  0.00  0.00    -0.085 HD
ATOM     19  H   UNL     1     -28.784  27.067   5.520  0.00  0.00    -0.085 HD
ENDBRANCH  11  13
ENDBRANCH  10  11
ENDBRANCH   9  10
ENDBRANCH   8   9
ENDBRANCH   7   8
ENDBRANCH   1   7
BRANCH   2  20
ATOM     20  C   UNL     1     -36.010  24.330   5.160  0.00  0.00    +0.055 C 
BRANCH  20  21
ATOM     21  C   UNL     1     -35.657  22.945   4.595  0.00  0.00    +0.178 C 
BRANCH  21  23
ATOM     22  O   UNL     1     -35.292  22.226   6.894  0.00  0.00    -0.249 OA
ATOM     23  C   UNL     1     -35.338  21.961   5.700  0.00  0.00    +0.330 C 
BRANCH  23  24
ATOM     24  O   UNL     1     -35.105  20.713   5.214  0.00  0.00    -0.479 OA
ATOM     25  H   UNL     1     -35.706  20.325   4.610  0.00  0.00    +0.295 HD
ENDBRANCH  23  24
ENDBRANCH  21  23
BRANCH  21  26
ATOM     26  N   UNL     1     -36.817  22.398   3.853  0.00  0.00    -0.174 NA
ATOM     27  H   UNL     1     -37.167  21.603   4.388  0.00  0.00    +0.149 HD
BRANCH  26  28
ATOM     28  S   UNL     1     -36.595  21.864   2.251  0.00  0.00    +0.041 S 
ATOM     29  O   UNL     1     -37.827  21.291   1.744  0.00  0.00    -0.157 OA
ATOM     30  O   UNL     1     -35.350  21.122   2.188  0.00  0.00    -0.157 OA
BRANCH  28  31
ATOM     31  C   UNL     1     -36.331  23.415   1.422  0.00  0.00    +0.169 C 
BRANCH  31  32
ATOM     32  C   UNL     1     -37.648  24.113   1.122  0.00  0.00    +0.027 C 
BRANCH  32  33
ATOM     33  C   UNL     1     -37.566  25.607   1.433  0.00  0.00    +0.002 C 
ATOM     34  C   UNL     1     -38.262  25.942   2.743  0.00  0.00    +0.000 C 
ENDBRANCH  32  33
ENDBRANCH  31  32
ENDBRANCH  28  31
ENDBRANCH  26  28
ENDBRANCH  21  26
ENDBRANCH  20  21
ENDBRANCH   2  20
TORSDOF 15
ENDMDL
MODEL 7
REMARK VINA RESULT:      -5.6      4.478      8.345
REMARK  Name = 60947
REMARK  15 active torsions:
REMARK  status: ('A' for Active; 'I' for Inactive)
REMARK    1  A    between atoms: C_1  and  O_7
REMARK    2  A    between atoms: C_2  and  C_20
REMARK    3  A    between atoms: O_7  and  C_8
REMARK    4  A    between atoms: C_8  and  C_9
REMARK    5  A    between atoms: C_9  and  C_10
REMARK    6  A    between atoms: C_10  and  C_11
REMARK    7  A    between atoms: C_11  and  C_13
REMARK    8  A    between atoms: C_20  and  C_21
REMARK    9  A    between atoms: C_21  and  C_23
REMARK   10  A    between atoms: C_21  and  N_26
REMARK   11  A    between atoms: C_23  and  O_24
REMARK   12  A    between atoms: N_26  and  S_28
REMARK   13  A    between atoms: S_28  and  C_31
REMARK   14  A    between atoms: C_31  and  C_32
REMARK   15  A    between atoms: C_32  and  C_33
REMARK                            x       y       z     vdW  Elec       q    Type
REMARK                         _______ _______ _______ _____ _____    ______ ____
ROOT
ATOM      1  C   UNL     1     -34.376  26.529   4.406  0.00  0.00    +0.139 C 
ATOM      2  C   UNL     1     -35.166  23.856   4.295  0.00  0.00    -0.020 C 
ATOM      3  C   UNL     1     -35.256  26.021   5.363  0.00  0.00    +0.037 C 
ATOM      4  C   UNL     1     -33.891  25.701   3.395  0.00  0.00    +0.037 C 
ATOM      5  C   UNL     1     -35.650  24.685   5.307  0.00  0.00    -0.001 C 
ATOM      6  C   UNL     1     -34.286  24.364   3.339  0.00  0.00    -0.001 C 
ENDROOT
BRANCH   1   7
ATOM      7  O   UNL     1     -33.988  27.843   4.461  0.00  0.00    -0.475 OA
BRANCH   7   8
ATOM      8  C   UNL     1     -33.027  28.269   3.506  0.00  0.00    +0.205 C 
BRANCH   8   9
ATOM      9  C   UNL     1     -32.396  29.567   3.987  0.00  0.00    +0.047 C 
BRANCH   9  10
ATOM     10  C   UNL     1     -31.588  29.360   5.267  0.00  0.00    +0.004 C 
BRANCH  10  11
ATOM     11  C   UNL     1     -30.387  28.451   5.019  0.00  0.00    -0.000 C 
BRANCH  11  13
ATOM     12  N   UNL     1     -27.019  28.787   7.709  0.00  0.00    +0.384 N 
ATOM     13  C   UNL     1     -29.535  28.301   6.276  0.00  0.00    -0.004 C 
ATOM     14  C   UNL     1     -29.176  29.672   6.864  0.00  0.00    -0.023 C 
ATOM     15  C   UNL     1     -28.257  27.505   5.985  0.00  0.00    -0.023 C 
ATOM     16  C   UNL     1     -28.232  29.531   8.058  0.00  0.00    -0.082 C 
ATOM     17  C   UNL     1     -27.350  27.449   7.215  0.00  0.00    -0.082 C 
ATOM     18  H   UNL     1     -26.430  28.701   8.537  0.00  0.00    -0.085 HD
ATOM     19  H   UNL     1     -26.526  29.294   6.973  0.00  0.00    -0.085 HD
ENDBRANCH  11  13
ENDBRANCH  10  11
ENDBRANCH   9  10
ENDBRANCH   8   9
ENDBRANCH   7   8
ENDBRANCH   1   7
BRANCH   2  20
ATOM     20  C   UNL     1     -35.587  22.426   4.235  0.00  0.00    +0.055 C 
BRANCH  20  21
ATOM     21  C   UNL     1     -36.217  22.031   2.891  0.00  0.00    +0.178 C 
BRANCH  21  23
ATOM     22  O   UNL     1     -34.774  20.237   2.099  0.00  0.00    -0.249 OA
ATOM     23  C   UNL     1     -35.864  20.610   2.509  0.00  0.00    +0.330 C 
BRANCH  23  24
ATOM     24  O   UNL     1     -36.915  19.765   2.679  0.00  0.00    -0.479 OA
ATOM     25  H   UNL     1     -36.808  18.977   3.173  0.00  0.00    +0.295 HD
ENDBRANCH  23  24
ENDBRANCH  21  23
BRANCH  21  26
ATOM     26  N   UNL     1     -37.695  22.095   2.995  0.00  0.00    -0.174 NA
ATOM     27  H   UNL     1     -38.008  21.195   3.359  0.00  0.00    +0.149 HD
BRANCH  26  28
ATOM     28  S   UNL     1     -38.608  22.412   1.593  0.00  0.00    +0.041 S 
ATOM     29  O   UNL     1     -39.406  21.252   1.248  0.00  0.00    -0.157 OA
ATOM     30  O   UNL     1     -37.736  23.031   0.614  0.00  0.00    -0.157 OA
BRANCH  28  31
ATOM     31  C   UNL     1     -39.708  23.673   2.196  0.00  0.00    +0.169 C 
BRANCH  31  32
ATOM     32  C   UNL     1     -39.038  24.529   3.261  0.00  0.00    +0.027 C 
BRANCH  32  33
ATOM     33  C   UNL     1     -38.837  25.963   2.773  0.00  0.00    +0.002 C 
ATOM     34  C   UNL     1     -37.425  26.181   2.253  0.00  0.00    +0.000 C 
ENDBRANCH  32  33
ENDBRANCH  31  32
ENDBRANCH  28  31
ENDBRANCH  26  28
ENDBRANCH  21  26
ENDBRANCH  20  21
ENDBRANCH   2  20
TORSDOF 15
ENDMDL
MODEL 8
REMARK VINA RESULT:      -5.6      3.936      8.754
REMARK  Name = 60947
REMARK  15 active torsions:
REMARK  status: ('A' for Active; 'I' for Inactive)
REMARK    1  A    between atoms: C_1  and  O_7
REMARK    2  A    between atoms: C_2  and  C_20
REMARK    3  A    between atoms: O_7  and  C_8
REMARK    4  A    between atoms: C_8  and  C_9
REMARK    5  A    between atoms: C_9  and  C_10
REMARK    6  A    between atoms: C_10  and  C_11
REMARK    7  A    between atoms: C_11  and  C_13
REMARK    8  A    between atoms: C_20  and  C_21
REMARK    9  A    between atoms: C_21  and  C_23
REMARK   10  A    between atoms: C_21  and  N_26
REMARK   11  A    between atoms: C_23  and  O_24
REMARK   12  A    between atoms: N_26  and  S_28
REMARK   13  A    between atoms: S_28  and  C_31
REMARK   14  A    between atoms: C_31  and  C_32
REMARK   15  A    between atoms: C_32  and  C_33
REMARK                            x       y       z     vdW  Elec       q    Type
REMARK                         _______ _______ _______ _____ _____    ______ ____
ROOT
ATOM      1  C   UNL     1     -34.241  26.421   4.646  0.00  0.00    +0.139 C 
ATOM      2  C   UNL     1     -35.159  23.797   4.421  0.00  0.00    -0.020 C 
ATOM      3  C   UNL     1     -33.946  25.674   3.505  0.00  0.00    +0.037 C 
ATOM      4  C   UNL     1     -34.995  25.856   5.674  0.00  0.00    +0.037 C 
ATOM      5  C   UNL     1     -34.406  24.362   3.393  0.00  0.00    -0.001 C 
ATOM      6  C   UNL     1     -35.455  24.544   5.562  0.00  0.00    -0.001 C 
ENDROOT
BRANCH   1   7
ATOM      7  O   UNL     1     -33.790  27.711   4.757  0.00  0.00    -0.475 OA
BRANCH   7   8
ATOM      8  C   UNL     1     -32.417  27.937   4.470  0.00  0.00    +0.205 C 
BRANCH   8   9
ATOM      9  C   UNL     1     -32.177  29.436   4.364  0.00  0.00    +0.047 C 
BRANCH   9  10
ATOM     10  C   UNL     1     -32.831  30.024   3.116  0.00  0.00    +0.004 C 
BRANCH  10  11
ATOM     11  C   UNL     1     -33.937  31.009   3.485  0.00  0.00    -0.000 C 
BRANCH  11  13
ATOM     12  N   UNL     1     -36.806  30.233   0.345  0.00  0.00    +0.384 N 
ATOM     13  C   UNL     1     -35.253  30.647   2.802  0.00  0.00    -0.004 C 
ATOM     14  C   UNL     1     -35.094  29.394   1.931  0.00  0.00    -0.023 C 
ATOM     15  C   UNL     1     -35.772  31.813   1.952  0.00  0.00    -0.023 C 
ATOM     16  C   UNL     1     -36.378  29.092   1.158  0.00  0.00    -0.082 C 
ATOM     17  C   UNL     1     -37.030  31.415   1.179  0.00  0.00    -0.082 C 
ATOM     18  H   UNL     1     -37.673  29.994  -0.135  0.00  0.00    -0.085 HD
ATOM     19  H   UNL     1     -36.071  30.445  -0.331  0.00  0.00    -0.085 HD
ENDBRANCH  11  13
ENDBRANCH  10  11
ENDBRANCH   9  10
ENDBRANCH   8   9
ENDBRANCH   7   8
ENDBRANCH   1   7
BRANCH   2  20
ATOM     20  C   UNL     1     -35.652  22.394   4.301  0.00  0.00    +0.055 C 
BRANCH  20  21
ATOM     21  C   UNL     1     -36.220  22.062   2.912  0.00  0.00    +0.178 C 
BRANCH  21  23
ATOM     22  O   UNL     1     -34.804  20.304   1.998  0.00  0.00    -0.249 OA
ATOM     23  C   UNL     1     -35.868  20.652   2.492  0.00  0.00    +0.330 C 
BRANCH  23  24
ATOM     24  O   UNL     1     -36.887  19.784   2.729  0.00  0.00    -0.479 OA
ATOM     25  H   UNL     1     -37.231  19.691   3.596  0.00  0.00    +0.295 HD
ENDBRANCH  23  24
ENDBRANCH  21  23
BRANCH  21  26
ATOM     26  N   UNL     1     -37.700  22.145   2.946  0.00  0.00    -0.174 NA
ATOM     27  H   UNL     1     -38.038  21.284   3.375  0.00  0.00    +0.149 HD
BRANCH  26  28
ATOM     28  S   UNL     1     -38.548  22.342   1.482  0.00  0.00    +0.041 S 
ATOM     29  O   UNL     1     -39.118  21.075   1.066  0.00  0.00    -0.157 OA
ATOM     30  O   UNL     1     -37.721  23.117   0.578  0.00  0.00    -0.157 OA
BRANCH  28  31
ATOM     31  C   UNL     1     -39.881  23.392   2.015  0.00  0.00    +0.169 C 
BRANCH  31  32
ATOM     32  C   UNL     1     -39.430  24.347   3.109  0.00  0.00    +0.027 C 
BRANCH  32  33
ATOM     33  C   UNL     1     -39.084  25.721   2.537  0.00  0.00    +0.002 C 
ATOM     34  C   UNL     1     -37.616  26.058   2.751  0.00  0.00    +0.000 C 
ENDBRANCH  32  33
ENDBRANCH  31  32
ENDBRANCH  28  31
ENDBRANCH  26  28
ENDBRANCH  21  26
ENDBRANCH  20  21
ENDBRANCH   2  20
TORSDOF 15
ENDMDL
MODEL 9
REMARK VINA RESULT:      -5.6      4.627      8.453
REMARK  Name = 60947
REMARK  15 active torsions:
REMARK  status: ('A' for Active; 'I' for Inactive)
REMARK    1  A    between atoms: C_1  and  O_7
REMARK    2  A    between atoms: C_2  and  C_20
REMARK    3  A    between atoms: O_7  and  C_8
REMARK    4  A    between atoms: C_8  and  C_9
REMARK    5  A    between atoms: C_9  and  C_10
REMARK    6  A    between atoms: C_10  and  C_11
REMARK    7  A    between atoms: C_11  and  C_13
REMARK    8  A    between atoms: C_20  and  C_21
REMARK    9  A    between atoms: C_21  and  C_23
REMARK   10  A    between atoms: C_21  and  N_26
REMARK   11  A    between atoms: C_23  and  O_24
REMARK   12  A    between atoms: N_26  and  S_28
REMARK   13  A    between atoms: S_28  and  C_31
REMARK   14  A    between atoms: C_31  and  C_32
REMARK   15  A    between atoms: C_32  and  C_33
REMARK                            x       y       z     vdW  Elec       q    Type
REMARK                         _______ _______ _______ _____ _____    ______ ____
ROOT
ATOM      1  C   UNL     1     -33.084  27.361   4.370  0.00  0.00    +0.139 C 
ATOM      2  C   UNL     1     -34.966  25.376   4.914  0.00  0.00    -0.020 C 
ATOM      3  C   UNL     1     -33.273  26.919   5.680  0.00  0.00    +0.037 C 
ATOM      4  C   UNL     1     -33.837  26.811   3.333  0.00  0.00    +0.037 C 
ATOM      5  C   UNL     1     -34.213  25.926   5.951  0.00  0.00    -0.001 C 
ATOM      6  C   UNL     1     -34.778  25.818   3.605  0.00  0.00    -0.001 C 
ENDROOT
BRANCH   1   7
ATOM      7  O   UNL     1     -32.159  28.337   4.103  0.00  0.00    -0.475 OA
BRANCH   7   8
ATOM      8  C   UNL     1     -32.660  29.636   3.821  0.00  0.00    +0.205 C 
BRANCH   8   9
ATOM      9  C   UNL     1     -32.303  30.562   4.974  0.00  0.00    +0.047 C 
BRANCH   9  10
ATOM     10  C   UNL     1     -30.794  30.619   5.205  0.00  0.00    +0.004 C 
BRANCH  10  11
ATOM     11  C   UNL     1     -30.410  29.925   6.510  0.00  0.00    -0.000 C 
BRANCH  11  13
ATOM     12  N   UNL     1     -27.085  27.265   7.259  0.00  0.00    +0.384 N 
ATOM     13  C   UNL     1     -29.014  29.315   6.423  0.00  0.00    -0.004 C 
ATOM     14  C   UNL     1     -29.076  27.871   5.909  0.00  0.00    -0.023 C 
ATOM     15  C   UNL     1     -28.309  29.356   7.785  0.00  0.00    -0.023 C 
ATOM     16  C   UNL     1     -27.692  27.219   5.927  0.00  0.00    -0.082 C 
ATOM     17  C   UNL     1     -26.956  28.646   7.728  0.00  0.00    -0.082 C 
ATOM     18  H   UNL     1     -26.160  26.838   7.219  0.00  0.00    -0.085 HD
ATOM     19  H   UNL     1     -27.685  26.755   7.908  0.00  0.00    -0.085 HD
ENDBRANCH  11  13
ENDBRANCH  10  11
ENDBRANCH   9  10
ENDBRANCH   8   9
ENDBRANCH   7   8
ENDBRANCH   1   7
BRANCH   2  20
ATOM     20  C   UNL     1     -35.972  24.313   5.204  0.00  0.00    +0.055 C 
BRANCH  20  21
ATOM     21  C   UNL     1     -35.575  22.931   4.661  0.00  0.00    +0.178 C 
BRANCH  21  23
ATOM     22  O   UNL     1     -35.203  22.245   6.968  0.00  0.00    -0.249 OA
ATOM     23  C   UNL     1     -35.288  21.956   5.782  0.00  0.00    +0.330 C 
BRANCH  23  24
ATOM     24  O   UNL     1     -35.135  20.687   5.321  0.00  0.00    -0.479 OA
ATOM     25  H   UNL     1     -34.939  19.992   5.918  0.00  0.00    +0.295 HD
ENDBRANCH  23  24
ENDBRANCH  21  23
BRANCH  21  26
ATOM     26  N   UNL     1     -36.695  22.364   3.873  0.00  0.00    -0.174 NA
ATOM     27  H   UNL     1     -36.888  21.438   4.251  0.00  0.00    +0.149 HD
BRANCH  26  28
ATOM     28  S   UNL     1     -36.512  22.189   2.188  0.00  0.00    +0.041 S 
ATOM     29  O   UNL     1     -35.484  23.089   1.705  0.00  0.00    -0.157 OA
ATOM     30  O   UNL     1     -37.832  22.177   1.587  0.00  0.00    -0.157 OA
BRANCH  28  31
ATOM     31  C   UNL     1     -35.874  20.531   2.099  0.00  0.00    +0.169 C 
BRANCH  31  32
ATOM     32  C   UNL     1     -34.498  20.502   1.451  0.00  0.00    +0.027 C 
BRANCH  32  33
ATOM     33  C   UNL     1     -34.071  19.072   1.122  0.00  0.00    +0.002 C 
ATOM     34  C   UNL     1     -32.560  18.957   1.000  0.00  0.00    +0.000 C 
ENDBRANCH  32  33
ENDBRANCH  31  32
ENDBRANCH  28  31
ENDBRANCH  26  28
ENDBRANCH  21  26
ENDBRANCH  20  21
ENDBRANCH   2  20
TORSDOF 15
ENDMDL
