MODEL 1
REMARK VINA RESULT:      -6.5      0.000      0.000
REMARK  Name = 192955
REMARK  3 active torsions:
REMARK  status: ('A' for Active; 'I' for Inactive)
REMARK    1  A    between atoms: C_5  and  C_14
REMARK    2  A    between atoms: C_5  and  C_25
REMARK    3  A    between atoms: C_14  and  C_19
REMARK                            x       y       z     vdW  Elec       q    Type
REMARK                         _______ _______ _______ _____ _____    ______ ____
ROOT
ATOM      1  O   UNL     1     -48.108  29.539   6.315  0.00  0.00    -0.273 OA
ATOM      2  O   UNL     1     -48.281  32.135   2.540  0.00  0.00    -0.252 OA
ATOM      3  N   UNL     1     -46.491  31.323   3.806  0.00  0.00    -0.279 N 
ATOM      4  N   UNL     1     -48.566  30.839   4.449  0.00  0.00    -0.238 N 
ATOM      5  C   UNL     1     -46.285  30.542   5.018  0.00  0.00    +0.173 C 
ATOM      6  C   UNL     1     -47.747  30.224   5.367  0.00  0.00    +0.252 C 
ATOM      7  C   UNL     1     -47.838  31.507   3.492  0.00  0.00    +0.307 C 
ATOM      8  H   UNL     1     -45.753  31.685   3.264  0.00  0.00    +0.152 HD
ATOM      9  H   UNL     1     -49.549  30.807   4.475  0.00  0.00    +0.159 HD
ENDROOT
BRANCH   5  14
ATOM     10  O   UNL     1     -44.121  32.683   4.742  0.00  0.00    -0.273 OA
ATOM     11  O   UNL     1     -43.423  29.959   8.363  0.00  0.00    -0.252 OA
ATOM     12  N   UNL     1     -45.372  30.654   7.273  0.00  0.00    -0.279 N 
ATOM     13  N   UNL     1     -43.405  31.354   6.502  0.00  0.00    -0.238 N 
ATOM     14  C   UNL     1     -45.741  31.461   6.119  0.00  0.00    +0.173 C 
ATOM     15  C   UNL     1     -44.344  31.929   5.680  0.00  0.00    +0.252 C 
ATOM     16  C   UNL     1     -43.993  30.582   7.478  0.00  0.00    +0.307 C 
ATOM     17  H   UNL     1     -46.030  30.202   7.850  0.00  0.00    +0.152 HD
ATOM     18  H   UNL     1     -42.433  31.478   6.406  0.00  0.00    +0.159 HD
BRANCH  14  19
ATOM     19  C   UNL     1     -46.626  32.631   6.525  0.00  0.00    +0.004 C 
ATOM     20  C   UNL     1     -47.378  32.563   7.699  0.00  0.00    -0.002 C 
ATOM     21  C   UNL     1     -46.685  33.773   5.726  0.00  0.00    -0.002 C 
ATOM     22  C   UNL     1     -48.189  33.635   8.072  0.00  0.00    -0.000 C 
ATOM     23  C   UNL     1     -47.496  34.845   6.099  0.00  0.00    -0.000 C 
ATOM     24  C   UNL     1     -48.247  34.777   7.272  0.00  0.00    -0.000 C 
ENDBRANCH  14  19
ENDBRANCH   5  14
BRANCH   5  25
ATOM     25  C   UNL     1     -45.484  29.280   4.732  0.00  0.00    +0.004 C 
ATOM     26  C   UNL     1     -44.465  29.301   3.779  0.00  0.00    -0.002 C 
ATOM     27  C   UNL     1     -45.767  28.101   5.423  0.00  0.00    -0.002 C 
ATOM     28  C   UNL     1     -43.730  28.144   3.517  0.00  0.00    -0.000 C 
ATOM     29  C   UNL     1     -45.033  26.945   5.161  0.00  0.00    -0.000 C 
ATOM     30  C   UNL     1     -44.015  26.966   4.208  0.00  0.00    -0.000 C 
ENDBRANCH   5  25
TORSDOF 3
ENDMDL
MODEL 2
REMARK VINA RESULT:      -6.5     10.747     12.979
REMARK  Name = 192955
REMARK  3 active torsions:
REMARK  status: ('A' for Active; 'I' for Inactive)
REMARK    1  A    between atoms: C_5  and  C_14
REMARK    2  A    between atoms: C_5  and  C_25
REMARK    3  A    between atoms: C_14  and  C_19
REMARK                            x       y       z     vdW  Elec       q    Type
REMARK                         _______ _______ _______ _____ _____    ______ ____
ROOT
ATOM      1  O   UNL     1     -34.824  23.892   0.826  0.00  0.00    -0.273 OA
ATOM      2  O   UNL     1     -31.603  26.522   2.756  0.00  0.00    -0.252 OA
ATOM      3  N   UNL     1     -33.616  25.654   3.569  0.00  0.00    -0.279 N 
ATOM      4  N   UNL     1     -33.032  25.219   1.466  0.00  0.00    -0.238 N 
ATOM      5  C   UNL     1     -34.733  24.859   3.077  0.00  0.00    +0.173 C 
ATOM      6  C   UNL     1     -34.233  24.575   1.652  0.00  0.00    +0.252 C 
ATOM      7  C   UNL     1     -32.631  25.876   2.606  0.00  0.00    +0.307 C 
ATOM      8  H   UNL     1     -33.563  26.002   4.489  0.00  0.00    +0.152 HD
ATOM      9  H   UNL     1     -32.525  25.211   0.623  0.00  0.00    +0.159 HD
ENDROOT
BRANCH   5  14
ATOM     10  O   UNL     1     -35.954  26.625   5.251  0.00  0.00    -0.273 OA
ATOM     11  O   UNL     1     -39.102  24.068   3.113  0.00  0.00    -0.252 OA
ATOM     12  N   UNL     1     -37.068  24.977   2.400  0.00  0.00    -0.279 N 
ATOM     13  N   UNL     1     -37.718  25.320   4.500  0.00  0.00    -0.238 N 
ATOM     14  C   UNL     1     -35.971  25.754   2.959  0.00  0.00    +0.173 C 
ATOM     15  C   UNL     1     -36.517  25.976   4.379  0.00  0.00    +0.252 C 
ATOM     16  C   UNL     1     -38.082  24.711   3.321  0.00  0.00    +0.307 C 
ATOM     17  H   UNL     1     -37.091  24.668   1.465  0.00  0.00    +0.152 HD
ATOM     18  H   UNL     1     -38.253  25.290   5.327  0.00  0.00    +0.159 HD
BRANCH  14  19
ATOM     19  C   UNL     1     -35.791  27.068   2.213  0.00  0.00    +0.004 C 
ATOM     20  C   UNL     1     -36.230  27.188   0.893  0.00  0.00    -0.002 C 
ATOM     21  C   UNL     1     -35.188  28.155   2.846  0.00  0.00    -0.002 C 
ATOM     22  C   UNL     1     -36.065  28.392   0.209  0.00  0.00    -0.000 C 
ATOM     23  C   UNL     1     -35.022  29.359   2.162  0.00  0.00    -0.000 C 
ATOM     24  C   UNL     1     -35.461  29.478   0.844  0.00  0.00    -0.000 C 
ENDBRANCH  14  19
ENDBRANCH   5  14
BRANCH   5  25
ATOM     25  C   UNL     1     -34.896  23.579   3.885  0.00  0.00    +0.004 C 
ATOM     26  C   UNL     1     -35.276  22.396   3.249  0.00  0.00    -0.002 C 
ATOM     27  C   UNL     1     -34.664  23.586   5.260  0.00  0.00    -0.002 C 
ATOM     28  C   UNL     1     -35.424  21.222   3.989  0.00  0.00    -0.000 C 
ATOM     29  C   UNL     1     -34.812  22.413   6.000  0.00  0.00    -0.000 C 
ATOM     30  C   UNL     1     -35.193  21.231   5.364  0.00  0.00    -0.000 C 
ENDBRANCH   5  25
TORSDOF 3
ENDMDL
MODEL 3
REMARK VINA RESULT:      -6.3     10.713     13.974
REMARK  Name = 192955
REMARK  3 active torsions:
REMARK  status: ('A' for Active; 'I' for Inactive)
REMARK    1  A    between atoms: C_5  and  C_14
REMARK    2  A    between atoms: C_5  and  C_25
REMARK    3  A    between atoms: C_14  and  C_19
REMARK                            x       y       z     vdW  Elec       q    Type
REMARK                         _______ _______ _______ _____ _____    ______ ____
ROOT
ATOM      1  O   UNL     1     -34.256  24.468   1.811  0.00  0.00    -0.273 OA
ATOM      2  O   UNL     1     -36.210  22.766   5.594  0.00  0.00    -0.252 OA
ATOM      3  N   UNL     1     -36.168  22.022   3.377  0.00  0.00    -0.279 N 
ATOM      4  N   UNL     1     -35.118  23.915   3.892  0.00  0.00    -0.238 N 
ATOM      5  C   UNL     1     -35.639  22.463   2.094  0.00  0.00    +0.173 C 
ATOM      6  C   UNL     1     -34.908  23.737   2.545  0.00  0.00    +0.252 C 
ATOM      7  C   UNL     1     -35.872  22.895   4.425  0.00  0.00    +0.307 C 
ATOM      8  H   UNL     1     -36.684  21.191   3.494  0.00  0.00    +0.152 HD
ATOM      9  H   UNL     1     -34.774  24.678   4.410  0.00  0.00    +0.159 HD
ENDROOT
BRANCH   5  14
ATOM     10  O   UNL     1     -38.218  20.922   1.535  0.00  0.00    -0.273 OA
ATOM     11  O   UNL     1     -36.267  22.503  -2.301  0.00  0.00    -0.252 OA
ATOM     12  N   UNL     1     -36.278  23.298  -0.102  0.00  0.00    -0.279 N 
ATOM     13  N   UNL     1     -37.364  21.412  -0.565  0.00  0.00    -0.238 N 
ATOM     14  C   UNL     1     -36.803  22.895   1.195  0.00  0.00    +0.173 C 
ATOM     15  C   UNL     1     -37.560  21.625   0.778  0.00  0.00    +0.252 C 
ATOM     16  C   UNL     1     -36.598  22.407  -1.127  0.00  0.00    +0.307 C 
ATOM     17  H   UNL     1     -35.748  24.116  -0.241  0.00  0.00    +0.152 HD
ATOM     18  H   UNL     1     -37.726  20.644  -1.064  0.00  0.00    +0.159 HD
BRANCH  14  19
ATOM     19  C   UNL     1     -37.742  23.952   1.761  0.00  0.00    +0.004 C 
ATOM     20  C   UNL     1     -37.555  25.297   1.439  0.00  0.00    -0.002 C 
ATOM     21  C   UNL     1     -38.791  23.577   2.601  0.00  0.00    -0.002 C 
ATOM     22  C   UNL     1     -38.415  26.265   1.957  0.00  0.00    -0.000 C 
ATOM     23  C   UNL     1     -39.651  24.545   3.120  0.00  0.00    -0.000 C 
ATOM     24  C   UNL     1     -39.463  25.888   2.797  0.00  0.00    -0.000 C 
ENDBRANCH  14  19
ENDBRANCH   5  14
BRANCH   5  25
ATOM     25  C   UNL     1     -34.678  21.436   1.512  0.00  0.00    +0.004 C 
ATOM     26  C   UNL     1     -33.746  21.821   0.547  0.00  0.00    -0.002 C 
ATOM     27  C   UNL     1     -34.727  20.110   1.943  0.00  0.00    -0.002 C 
ATOM     28  C   UNL     1     -32.864  20.880   0.014  0.00  0.00    -0.000 C 
ATOM     29  C   UNL     1     -33.846  19.169   1.410  0.00  0.00    -0.000 C 
ATOM     30  C   UNL     1     -32.915  19.554   0.445  0.00  0.00    -0.000 C 
ENDBRANCH   5  25
TORSDOF 3
ENDMDL
MODEL 4
REMARK VINA RESULT:      -6.3     10.585     12.722
REMARK  Name = 192955
REMARK  3 active torsions:
REMARK  status: ('A' for Active; 'I' for Inactive)
REMARK    1  A    between atoms: C_5  and  C_14
REMARK    2  A    between atoms: C_5  and  C_25
REMARK    3  A    between atoms: C_14  and  C_19
REMARK                            x       y       z     vdW  Elec       q    Type
REMARK                         _______ _______ _______ _____ _____    ______ ____
ROOT
ATOM      1  O   UNL     1     -38.390  24.446   4.090  0.00  0.00    -0.273 OA
ATOM      2  O   UNL     1     -37.158  27.887   1.322  0.00  0.00    -0.252 OA
ATOM      3  N   UNL     1     -36.785  25.581   1.222  0.00  0.00    -0.279 N 
ATOM      4  N   UNL     1     -37.924  26.409   2.945  0.00  0.00    -0.238 N 
ATOM      5  C   UNL     1     -37.071  24.399   2.024  0.00  0.00    +0.173 C 
ATOM      6  C   UNL     1     -37.881  25.051   3.156  0.00  0.00    +0.252 C 
ATOM      7  C   UNL     1     -37.276  26.760   1.784  0.00  0.00    +0.307 C 
ATOM      8  H   UNL     1     -36.294  25.550   0.369  0.00  0.00    +0.152 HD
ATOM      9  H   UNL     1     -38.363  27.049   3.550  0.00  0.00    +0.159 HD
ENDROOT
BRANCH   5  14
ATOM     10  O   UNL     1     -34.375  24.068   0.623  0.00  0.00    -0.273 OA
ATOM     11  O   UNL     1     -35.551  20.352   3.035  0.00  0.00    -0.252 OA
ATOM     12  N   UNL     1     -36.024  22.624   3.321  0.00  0.00    -0.279 N 
ATOM     13  N   UNL     1     -34.795  21.996   1.576  0.00  0.00    -0.238 N 
ATOM     14  C   UNL     1     -35.763  23.882   2.635  0.00  0.00    +0.173 C 
ATOM     15  C   UNL     1     -34.889  23.364   1.482  0.00  0.00    +0.252 C 
ATOM     16  C   UNL     1     -35.466  21.519   2.678  0.00  0.00    +0.307 C 
ATOM     17  H   UNL     1     -36.544  22.560   4.155  0.00  0.00    +0.152 HD
ATOM     18  H   UNL     1     -34.309  21.429   0.934  0.00  0.00    +0.159 HD
BRANCH  14  19
ATOM     19  C   UNL     1     -35.002  24.849   3.530  0.00  0.00    +0.004 C 
ATOM     20  C   UNL     1     -34.171  25.818   2.965  0.00  0.00    -0.002 C 
ATOM     21  C   UNL     1     -35.136  24.771   4.917  0.00  0.00    -0.002 C 
ATOM     22  C   UNL     1     -33.474  26.705   3.785  0.00  0.00    -0.000 C 
ATOM     23  C   UNL     1     -34.438  25.658   5.737  0.00  0.00    -0.000 C 
ATOM     24  C   UNL     1     -33.608  26.625   5.171  0.00  0.00    -0.000 C 
ENDBRANCH  14  19
ENDBRANCH   5  14
BRANCH   5  25
ATOM     25  C   UNL     1     -37.900  23.390   1.244  0.00  0.00    +0.004 C 
ATOM     26  C   UNL     1     -38.803  22.562   1.912  0.00  0.00    -0.002 C 
ATOM     27  C   UNL     1     -37.761  23.293  -0.141  0.00  0.00    -0.002 C 
ATOM     28  C   UNL     1     -39.564  21.638   1.197  0.00  0.00    -0.000 C 
ATOM     29  C   UNL     1     -38.522  22.369  -0.857  0.00  0.00    -0.000 C 
ATOM     30  C   UNL     1     -39.423  21.541  -0.188  0.00  0.00    -0.000 C 
ENDBRANCH   5  25
TORSDOF 3
ENDMDL
MODEL 5
REMARK VINA RESULT:      -6.3     12.169     15.918
REMARK  Name = 192955
REMARK  3 active torsions:
REMARK  status: ('A' for Active; 'I' for Inactive)
REMARK    1  A    between atoms: C_5  and  C_14
REMARK    2  A    between atoms: C_5  and  C_25
REMARK    3  A    between atoms: C_14  and  C_19
REMARK                            x       y       z     vdW  Elec       q    Type
REMARK                         _______ _______ _______ _____ _____    ______ ____
ROOT
ATOM      1  O   UNL     1     -35.855  21.457  -1.680  0.00  0.00    -0.273 OA
ATOM      2  O   UNL     1     -36.794  17.325   0.071  0.00  0.00    -0.252 OA
ATOM      3  N   UNL     1     -36.743  19.460   1.024  0.00  0.00    -0.279 N 
ATOM      4  N   UNL     1     -36.242  19.236  -1.132  0.00  0.00    -0.238 N 
ATOM      5  C   UNL     1     -36.433  20.823   0.617  0.00  0.00    +0.173 C 
ATOM      6  C   UNL     1     -36.140  20.583  -0.872  0.00  0.00    +0.252 C 
ATOM      7  C   UNL     1     -36.609  18.531  -0.009  0.00  0.00    +0.307 C 
ATOM      8  H   UNL     1     -37.019  19.217   1.938  0.00  0.00    +0.152 HD
ATOM      9  H   UNL     1     -36.072  18.828  -2.012  0.00  0.00    +0.159 HD
ENDROOT
BRANCH   5  14
ATOM     10  O   UNL     1     -35.620  20.448   3.539  0.00  0.00    -0.273 OA
ATOM     11  O   UNL     1     -34.864  24.719   2.057  0.00  0.00    -0.252 OA
ATOM     12  N   UNL     1     -34.865  22.654   0.960  0.00  0.00    -0.279 N 
ATOM     13  N   UNL     1     -35.322  22.712   3.137  0.00  0.00    -0.238 N 
ATOM     14  C   UNL     1     -35.119  21.256   1.279  0.00  0.00    +0.173 C 
ATOM     15  C   UNL     1     -35.384  21.385   2.787  0.00  0.00    +0.252 C 
ATOM     16  C   UNL     1     -35.006  23.504   2.058  0.00  0.00    +0.307 C 
ATOM     17  H   UNL     1     -34.619  22.968   0.060  0.00  0.00    +0.152 HD
ATOM     18  H   UNL     1     -35.484  23.054   4.046  0.00  0.00    +0.159 HD
BRANCH  14  19
ATOM     19  C   UNL     1     -33.898  20.394   0.992  0.00  0.00    +0.004 C 
ATOM     20  C   UNL     1     -32.910  20.851   0.118  0.00  0.00    -0.002 C 
ATOM     21  C   UNL     1     -33.763  19.147   1.603  0.00  0.00    -0.002 C 
ATOM     22  C   UNL     1     -31.791  20.062  -0.145  0.00  0.00    -0.000 C 
ATOM     23  C   UNL     1     -32.644  18.358   1.340  0.00  0.00    -0.000 C 
ATOM     24  C   UNL     1     -31.658  18.815   0.466  0.00  0.00    -0.000 C 
ENDBRANCH  14  19
ENDBRANCH   5  14
BRANCH   5  25
ATOM     25  C   UNL     1     -37.628  21.744   0.816  0.00  0.00    +0.004 C 
ATOM     26  C   UNL     1     -38.525  21.508   1.860  0.00  0.00    -0.002 C 
ATOM     27  C   UNL     1     -37.828  22.825  -0.043  0.00  0.00    -0.002 C 
ATOM     28  C   UNL     1     -39.620  22.353   2.043  0.00  0.00    -0.000 C 
ATOM     29  C   UNL     1     -38.923  23.669   0.140  0.00  0.00    -0.000 C 
ATOM     30  C   UNL     1     -39.819  23.434   1.183  0.00  0.00    -0.000 C 
ENDBRANCH   5  25
TORSDOF 3
ENDMDL
MODEL 6
REMARK VINA RESULT:      -6.2     11.606     14.395
REMARK  Name = 192955
REMARK  3 active torsions:
REMARK  status: ('A' for Active; 'I' for Inactive)
REMARK    1  A    between atoms: C_5  and  C_14
REMARK    2  A    between atoms: C_5  and  C_25
REMARK    3  A    between atoms: C_14  and  C_19
REMARK                            x       y       z     vdW  Elec       q    Type
REMARK                         _______ _______ _______ _____ _____    ______ ____
ROOT
ATOM      1  O   UNL     1     -37.843  24.831   1.968  0.00  0.00    -0.273 OA
ATOM      2  O   UNL     1     -40.425  21.045   2.122  0.00  0.00    -0.252 OA
ATOM      3  N   UNL     1     -38.123  21.386   2.349  0.00  0.00    -0.279 N 
ATOM      4  N   UNL     1     -39.433  23.142   1.961  0.00  0.00    -0.238 N 
ATOM      5  C   UNL     1     -37.178  22.493   2.286  0.00  0.00    +0.173 C 
ATOM      6  C   UNL     1     -38.160  23.652   2.057  0.00  0.00    +0.252 C 
ATOM      7  C   UNL     1     -39.445  21.778   2.137  0.00  0.00    +0.307 C 
ATOM      8  H   UNL     1     -37.855  20.455   2.522  0.00  0.00    +0.152 HD
ATOM      9  H   UNL     1     -40.236  23.685   1.786  0.00  0.00    +0.159 HD
ENDROOT
BRANCH   5  14
ATOM     10  O   UNL     1     -34.385  23.632   1.794  0.00  0.00    -0.273 OA
ATOM     11  O   UNL     1     -37.249  24.478  -1.684  0.00  0.00    -0.252 OA
ATOM     12  N   UNL     1     -37.133  22.729  -0.136  0.00  0.00    -0.279 N 
ATOM     13  N   UNL     1     -35.646  24.380  -0.004  0.00  0.00    -0.238 N 
ATOM     14  C   UNL     1     -36.328  22.354   1.018  0.00  0.00    +0.173 C 
ATOM     15  C   UNL     1     -35.318  23.512   1.010  0.00  0.00    +0.252 C 
ATOM     16  C   UNL     1     -36.734  23.934  -0.718  0.00  0.00    +0.307 C 
ATOM     17  H   UNL     1     -37.884  22.188  -0.472  0.00  0.00    +0.152 HD
ATOM     18  H   UNL     1     -35.163  25.216  -0.195  0.00  0.00    +0.159 HD
BRANCH  14  19
ATOM     19  C   UNL     1     -35.647  21.010   0.800  0.00  0.00    +0.004 C 
ATOM     20  C   UNL     1     -36.269  20.029   0.026  0.00  0.00    -0.002 C 
ATOM     21  C   UNL     1     -34.401  20.757   1.374  0.00  0.00    -0.002 C 
ATOM     22  C   UNL     1     -35.645  18.798  -0.174  0.00  0.00    -0.000 C 
ATOM     23  C   UNL     1     -33.777  19.526   1.175  0.00  0.00    -0.000 C 
ATOM     24  C   UNL     1     -34.398  18.546   0.401  0.00  0.00    -0.000 C 
ENDBRANCH  14  19
ENDBRANCH   5  14
BRANCH   5  25
ATOM     25  C   UNL     1     -36.420  22.645   3.597  0.00  0.00    +0.004 C 
ATOM     26  C   UNL     1     -36.386  23.881   4.245  0.00  0.00    -0.002 C 
ATOM     27  C   UNL     1     -35.758  21.550   4.153  0.00  0.00    -0.002 C 
ATOM     28  C   UNL     1     -35.692  24.020   5.447  0.00  0.00    -0.000 C 
ATOM     29  C   UNL     1     -35.064  21.689   5.355  0.00  0.00    -0.000 C 
ATOM     30  C   UNL     1     -35.031  22.924   6.002  0.00  0.00    -0.000 C 
ENDBRANCH   5  25
TORSDOF 3
ENDMDL
MODEL 7
REMARK VINA RESULT:      -6.0     10.417     12.762
REMARK  Name = 192955
REMARK  3 active torsions:
REMARK  status: ('A' for Active; 'I' for Inactive)
REMARK    1  A    between atoms: C_5  and  C_14
REMARK    2  A    between atoms: C_5  and  C_25
REMARK    3  A    between atoms: C_14  and  C_19
REMARK                            x       y       z     vdW  Elec       q    Type
REMARK                         _______ _______ _______ _____ _____    ______ ____
ROOT
ATOM      1  O   UNL     1     -35.169  23.067   0.525  0.00  0.00    -0.273 OA
ATOM      2  O   UNL     1     -35.349  21.070   4.649  0.00  0.00    -0.252 OA
ATOM      3  N   UNL     1     -36.903  22.343   3.451  0.00  0.00    -0.279 N 
ATOM      4  N   UNL     1     -34.904  21.964   2.549  0.00  0.00    -0.238 N 
ATOM      5  C   UNL     1     -36.974  23.058   2.185  0.00  0.00    +0.173 C 
ATOM      6  C   UNL     1     -35.587  22.714   1.621  0.00  0.00    +0.252 C 
ATOM      7  C   UNL     1     -35.673  21.719   3.664  0.00  0.00    +0.307 C 
ATOM      8  H   UNL     1     -37.648  22.305   4.094  0.00  0.00    +0.152 HD
ATOM      9  H   UNL     1     -33.981  21.644   2.432  0.00  0.00    +0.159 HD
ENDROOT
BRANCH   5  14
ATOM     10  O   UNL     1     -39.060  24.616   3.785  0.00  0.00    -0.273 OA
ATOM     11  O   UNL     1     -38.108  26.604  -0.235  0.00  0.00    -0.252 OA
ATOM     12  N   UNL     1     -36.825  25.282   1.207  0.00  0.00    -0.279 N 
ATOM     13  N   UNL     1     -38.936  25.725   1.752  0.00  0.00    -0.238 N 
ATOM     14  C   UNL     1     -36.996  24.566   2.462  0.00  0.00    +0.173 C 
ATOM     15  C   UNL     1     -38.449  24.955   2.780  0.00  0.00    +0.252 C 
ATOM     16  C   UNL     1     -37.979  25.946   0.788  0.00  0.00    +0.307 C 
ATOM     17  H   UNL     1     -35.979  25.297   0.702  0.00  0.00    +0.152 HD
ATOM     18  H   UNL     1     -39.856  26.076   1.710  0.00  0.00    +0.159 HD
BRANCH  14  19
ATOM     19  C   UNL     1     -36.030  25.075   3.523  0.00  0.00    +0.004 C 
ATOM     20  C   UNL     1     -34.734  25.449   3.166  0.00  0.00    -0.002 C 
ATOM     21  C   UNL     1     -36.441  25.171   4.853  0.00  0.00    -0.002 C 
ATOM     22  C   UNL     1     -33.849  25.916   4.138  0.00  0.00    -0.000 C 
ATOM     23  C   UNL     1     -35.556  25.637   5.825  0.00  0.00    -0.000 C 
ATOM     24  C   UNL     1     -34.261  26.010   5.468  0.00  0.00    -0.000 C 
ENDBRANCH  14  19
ENDBRANCH   5  14
BRANCH   5  25
ATOM     25  C   UNL     1     -38.092  22.514   1.306  0.00  0.00    +0.004 C 
ATOM     26  C   UNL     1     -38.043  22.694  -0.077  0.00  0.00    -0.002 C 
ATOM     27  C   UNL     1     -39.165  21.834   1.883  0.00  0.00    -0.002 C 
ATOM     28  C   UNL     1     -39.067  22.194  -0.882  0.00  0.00    -0.000 C 
ATOM     29  C   UNL     1     -40.189  21.335   1.078  0.00  0.00    -0.000 C 
ATOM     30  C   UNL     1     -40.140  21.514  -0.304  0.00  0.00    -0.000 C 
ENDBRANCH   5  25
TORSDOF 3
ENDMDL
MODEL 8
REMARK VINA RESULT:      -5.9     11.076     13.342
REMARK  Name = 192955
REMARK  3 active torsions:
REMARK  status: ('A' for Active; 'I' for Inactive)
REMARK    1  A    between atoms: C_5  and  C_14
REMARK    2  A    between atoms: C_5  and  C_25
REMARK    3  A    between atoms: C_14  and  C_19
REMARK                            x       y       z     vdW  Elec       q    Type
REMARK                         _______ _______ _______ _____ _____    ______ ____
ROOT
ATOM      1  O   UNL     1     -38.396  25.096   2.646  0.00  0.00    -0.273 OA
ATOM      2  O   UNL     1     -40.392  21.000   2.133  0.00  0.00    -0.252 OA
ATOM      3  N   UNL     1     -38.149  21.645   2.293  0.00  0.00    -0.279 N 
ATOM      4  N   UNL     1     -39.725  23.215   2.368  0.00  0.00    -0.238 N 
ATOM      5  C   UNL     1     -37.380  22.876   2.414  0.00  0.00    +0.173 C 
ATOM      6  C   UNL     1     -38.533  23.888   2.497  0.00  0.00    +0.252 C 
ATOM      7  C   UNL     1     -39.528  21.859   2.247  0.00  0.00    +0.307 C 
ATOM      8  H   UNL     1     -37.738  20.752   2.246  0.00  0.00    +0.152 HD
ATOM      9  H   UNL     1     -40.608  23.649   2.362  0.00  0.00    +0.159 HD
ENDROOT
BRANCH   5  14
ATOM     10  O   UNL     1     -35.709  20.883   0.810  0.00  0.00    -0.273 OA
ATOM     11  O   UNL     1     -33.555  24.887   1.395  0.00  0.00    -0.252 OA
ATOM     12  N   UNL     1     -35.822  24.331   1.239  0.00  0.00    -0.279 N 
ATOM     13  N   UNL     1     -34.308  22.705   1.117  0.00  0.00    -0.238 N 
ATOM     14  C   UNL     1     -36.638  23.134   1.098  0.00  0.00    +0.173 C 
ATOM     15  C   UNL     1     -35.524  22.080   0.983  0.00  0.00    +0.252 C 
ATOM     16  C   UNL     1     -34.452  24.065   1.269  0.00  0.00    +0.307 C 
ATOM     17  H   UNL     1     -36.198  25.238   1.308  0.00  0.00    +0.152 HD
ATOM     18  H   UNL     1     -33.440  22.238   1.107  0.00  0.00    +0.159 HD
BRANCH  14  19
ATOM     19  C   UNL     1     -37.490  23.194  -0.162  0.00  0.00    +0.004 C 
ATOM     20  C   UNL     1     -37.902  24.427  -0.668  0.00  0.00    -0.002 C 
ATOM     21  C   UNL     1     -37.858  22.016  -0.813  0.00  0.00    -0.002 C 
ATOM     22  C   UNL     1     -38.682  24.482  -1.823  0.00  0.00    -0.000 C 
ATOM     23  C   UNL     1     -38.639  22.071  -1.968  0.00  0.00    -0.000 C 
ATOM     24  C   UNL     1     -39.051  23.304  -2.473  0.00  0.00    -0.000 C 
ENDBRANCH  14  19
ENDBRANCH   5  14
BRANCH   5  25
ATOM     25  C   UNL     1     -36.536  22.876   3.680  0.00  0.00    +0.004 C 
ATOM     26  C   UNL     1     -35.958  21.689   4.134  0.00  0.00    -0.002 C 
ATOM     27  C   UNL     1     -36.337  24.061   4.388  0.00  0.00    -0.002 C 
ATOM     28  C   UNL     1     -35.183  21.689   5.294  0.00  0.00    -0.000 C 
ATOM     29  C   UNL     1     -35.563  24.061   5.548  0.00  0.00    -0.000 C 
ATOM     30  C   UNL     1     -34.985  22.875   6.001  0.00  0.00    -0.000 C 
ENDBRANCH   5  25
TORSDOF 3
ENDMDL
MODEL 9
REMARK VINA RESULT:      -5.9     10.566     12.691
REMARK  Name = 192955
REMARK  3 active torsions:
REMARK  status: ('A' for Active; 'I' for Inactive)
REMARK    1  A    between atoms: C_5  and  C_14
REMARK    2  A    between atoms: C_5  and  C_25
REMARK    3  A    between atoms: C_14  and  C_19
REMARK                            x       y       z     vdW  Elec       q    Type
REMARK                         _______ _______ _______ _____ _____    ______ ____
ROOT
ATOM      1  O   UNL     1     -34.102  24.138   1.333  0.00  0.00    -0.273 OA
ATOM      2  O   UNL     1     -34.512  28.072   3.652  0.00  0.00    -0.252 OA
ATOM      3  N   UNL     1     -35.744  26.085   3.701  0.00  0.00    -0.279 N 
ATOM      4  N   UNL     1     -34.028  26.249   2.293  0.00  0.00    -0.238 N 
ATOM      5  C   UNL     1     -35.759  24.800   3.015  0.00  0.00    +0.173 C 
ATOM      6  C   UNL     1     -34.536  24.985   2.103  0.00  0.00    +0.252 C 
ATOM      7  C   UNL     1     -34.732  26.936   3.254  0.00  0.00    +0.307 C 
ATOM      8  H   UNL     1     -36.384  26.328   4.408  0.00  0.00    +0.152 HD
ATOM      9  H   UNL     1     -33.258  26.616   1.802  0.00  0.00    +0.159 HD
ENDROOT
BRANCH   5  14
ATOM     10  O   UNL     1     -38.569  25.824   3.644  0.00  0.00    -0.273 OA
ATOM     11  O   UNL     1     -38.605  21.559   1.963  0.00  0.00    -0.252 OA
ATOM     12  N   UNL     1     -37.157  23.365   1.631  0.00  0.00    -0.279 N 
ATOM     13  N   UNL     1     -38.880  23.612   3.018  0.00  0.00    -0.238 N 
ATOM     14  C   UNL     1     -36.997  24.730   2.113  0.00  0.00    +0.173 C 
ATOM     15  C   UNL     1     -38.234  24.825   3.020  0.00  0.00    +0.252 C 
ATOM     16  C   UNL     1     -38.258  22.710   2.186  0.00  0.00    +0.307 C 
ATOM     17  H   UNL     1     -36.548  22.945   0.981  0.00  0.00    +0.152 HD
ATOM     18  H   UNL     1     -39.687  23.413   3.546  0.00  0.00    +0.159 HD
BRANCH  14  19
ATOM     19  C   UNL     1     -37.059  25.729   0.966  0.00  0.00    +0.004 C 
ATOM     20  C   UNL     1     -36.737  25.325  -0.331  0.00  0.00    -0.002 C 
ATOM     21  C   UNL     1     -37.440  27.049   1.209  0.00  0.00    -0.002 C 
ATOM     22  C   UNL     1     -36.796  26.240  -1.382  0.00  0.00    -0.000 C 
ATOM     23  C   UNL     1     -37.497  27.964   0.159  0.00  0.00    -0.000 C 
ATOM     24  C   UNL     1     -37.175  27.560  -1.137  0.00  0.00    -0.000 C 
ENDBRANCH  14  19
ENDBRANCH   5  14
BRANCH   5  25
ATOM     25  C   UNL     1     -35.566  23.650   3.993  0.00  0.00    +0.004 C 
ATOM     26  C   UNL     1     -35.626  23.885   5.368  0.00  0.00    -0.002 C 
ATOM     27  C   UNL     1     -35.331  22.360   3.517  0.00  0.00    -0.002 C 
ATOM     28  C   UNL     1     -35.450  22.831   6.264  0.00  0.00    -0.000 C 
ATOM     29  C   UNL     1     -35.156  21.306   4.413  0.00  0.00    -0.000 C 
ATOM     30  C   UNL     1     -35.215  21.541   5.786  0.00  0.00    -0.000 C 
ENDBRANCH   5  25
TORSDOF 3
ENDMDL
