MODEL 1
REMARK VINA RESULT:      -6.1      0.000      0.000
REMARK  Name = 20690429
REMARK  9 active torsions:
REMARK  status: ('A' for Active; 'I' for Inactive)
REMARK    1  A    between atoms: N_1  and  C_10
REMARK    2  A    between atoms: C_9  and  S_35
REMARK    3  A    between atoms: C_11  and  C_17
REMARK    4  A    between atoms: C_12  and  O_20
REMARK    5  A    between atoms: C_14  and  O_22
REMARK    6  A    between atoms: N_24  and  C_27
REMARK    7  A    between atoms: C_26  and  C_29
REMARK    8  A    between atoms: S_35  and  C_36
REMARK    9  A    between atoms: C_36  and  C_37
REMARK                            x       y       z     vdW  Elec       q    Type
REMARK                         _______ _______ _______ _____ _____    ______ ____
ROOT
ATOM      1  N   UNL     1     -32.090  28.594   5.522  0.00  0.00    -0.174 N 
ATOM      2  N   UNL     1     -31.917  28.070   6.750  0.00  0.00    -0.042 NA
ATOM      3  N   UNL     1     -32.667  26.973   6.831  0.00  0.00    -0.135 NA
ATOM      4  N   UNL     1     -34.675  26.008   3.882  0.00  0.00    -0.318 NA
ATOM      5  N   UNL     1     -33.374  28.044   3.528  0.00  0.00    -0.316 NA
ATOM      6  C   UNL     1     -34.207  25.872   5.148  0.00  0.00    +0.216 C 
ATOM      7  C   UNL     1     -32.955  27.844   4.785  0.00  0.00    +0.238 C 
ATOM      8  C   UNL     1     -33.313  26.815   5.636  0.00  0.00    +0.192 C 
ATOM      9  C   UNL     1     -34.236  27.070   3.163  0.00  0.00    +0.171 C 
ATOM     10  N   UNL     1     -34.624  24.793   5.946  0.00  0.00    -0.308 N 
ATOM     11  H   UNL     1     -34.262  24.728   6.859  0.00  0.00    +0.149 HD
ENDROOT
BRANCH   1  12
ATOM     12  C   UNL     1     -31.390  29.815   5.128  0.00  0.00    +0.128 C 
ATOM     13  C   UNL     1     -31.766  31.779   3.680  0.00  0.00    +0.107 C 
ATOM     14  C   UNL     1     -30.591  29.681   3.826  0.00  0.00    +0.158 C 
ATOM     15  C   UNL     1     -32.315  31.030   4.907  0.00  0.00    +0.036 C 
ATOM     16  C   UNL     1     -30.424  31.124   3.351  0.00  0.00    +0.147 C 
BRANCH  13  19
ATOM     17  O   UNL     1     -32.433  32.069   1.403  0.00  0.00    -0.275 OA
ATOM     18  N   UNL     1     -33.916  31.076   2.855  0.00  0.00    -0.329 N 
ATOM     19  C   UNL     1     -32.716  31.660   2.527  0.00  0.00    +0.221 C 
ATOM     20  H   UNL     1     -34.608  30.953   2.166  0.00  0.00    +0.145 HD
ATOM     21  H   UNL     1     -34.085  30.781   3.779  0.00  0.00    +0.145 HD
ENDBRANCH  13  19
BRANCH  14  22
ATOM     22  O   UNL     1     -29.345  29.047   4.049  0.00  0.00    -0.380 OA
ATOM     23  H   UNL     1     -29.068  29.191   4.968  0.00  0.00    +0.211 HD
ENDBRANCH  14  22
BRANCH  16  24
ATOM     24  O   UNL     1     -29.381  31.792   4.058  0.00  0.00    -0.381 OA
ATOM     25  H   UNL     1     -29.141  31.275   4.844  0.00  0.00    +0.210 HD
ENDBRANCH  16  24
ENDBRANCH   1  12
BRANCH  10  27
ATOM     26  C   UNL     1     -35.094  22.573   4.714  0.00  0.00    +0.042 C 
ATOM     27  C   UNL     1     -35.560  23.760   5.505  0.00  0.00    +0.076 C 
ATOM     28  C   UNL     1     -35.562  22.395   6.128  0.00  0.00    +0.026 C 
BRANCH  26  29
ATOM     29  C   UNL     1     -35.930  22.066   3.599  0.00  0.00    -0.021 C 
ATOM     30  C   UNL     1     -35.562  20.902   2.924  0.00  0.00    -0.004 C 
ATOM     31  C   UNL     1     -37.085  22.754   3.224  0.00  0.00    -0.004 C 
ATOM     32  C   UNL     1     -36.348  20.426   1.875  0.00  0.00    -0.000 C 
ATOM     33  C   UNL     1     -37.870  22.277   2.175  0.00  0.00    -0.000 C 
ATOM     34  C   UNL     1     -37.502  21.113   1.499  0.00  0.00    -0.000 C 
ENDBRANCH  26  29
ENDBRANCH  10  27
BRANCH   9  35
ATOM     35  S   UNL     1     -34.885  27.196   1.502  0.00  0.00    -0.018 S 
BRANCH  35  36
ATOM     36  C   UNL     1     -36.058  25.811   1.464  0.00  0.00    +0.074 C 
BRANCH  36  37
ATOM     37  C   UNL     1     -35.648  24.794   0.405  0.00  0.00    +0.013 C 
ATOM     38  C   UNL     1     -34.429  24.000   0.849  0.00  0.00    +0.001 C 
ENDBRANCH  36  37
ENDBRANCH  35  36
ENDBRANCH   9  35
TORSDOF 9
ENDMDL
MODEL 2
REMARK VINA RESULT:      -6.0      3.797      8.594
REMARK  Name = 20690429
REMARK  9 active torsions:
REMARK  status: ('A' for Active; 'I' for Inactive)
REMARK    1  A    between atoms: N_1  and  C_10
REMARK    2  A    between atoms: C_9  and  S_35
REMARK    3  A    between atoms: C_11  and  C_17
REMARK    4  A    between atoms: C_12  and  O_20
REMARK    5  A    between atoms: C_14  and  O_22
REMARK    6  A    between atoms: N_24  and  C_27
REMARK    7  A    between atoms: C_26  and  C_29
REMARK    8  A    between atoms: S_35  and  C_36
REMARK    9  A    between atoms: C_36  and  C_37
REMARK                            x       y       z     vdW  Elec       q    Type
REMARK                         _______ _______ _______ _____ _____    ______ ____
ROOT
ATOM      1  N   UNL     1     -35.233  24.629   3.915  0.00  0.00    -0.174 N 
ATOM      2  N   UNL     1     -35.659  24.714   5.190  0.00  0.00    -0.042 NA
ATOM      3  N   UNL     1     -34.896  25.610   5.813  0.00  0.00    -0.135 NA
ATOM      4  N   UNL     1     -32.215  27.265   3.881  0.00  0.00    -0.318 NA
ATOM      5  N   UNL     1     -33.497  25.662   2.557  0.00  0.00    -0.316 NA
ATOM      6  C   UNL     1     -32.955  27.015   4.989  0.00  0.00    +0.216 C 
ATOM      7  C   UNL     1     -34.185  25.469   3.691  0.00  0.00    +0.238 C 
ATOM      8  C   UNL     1     -33.984  26.085   4.912  0.00  0.00    +0.192 C 
ATOM      9  C   UNL     1     -32.527  26.583   2.752  0.00  0.00    +0.171 C 
ATOM     10  N   UNL     1     -32.682  27.688   6.191  0.00  0.00    -0.308 N 
ATOM     11  H   UNL     1     -33.242  27.480   6.974  0.00  0.00    +0.149 HD
ENDROOT
BRANCH   1  12
ATOM     12  C   UNL     1     -35.882  23.721   2.972  0.00  0.00    +0.128 C 
ATOM     13  C   UNL     1     -38.097  23.412   1.927  0.00  0.00    +0.107 C 
ATOM     14  C   UNL     1     -36.633  22.563   3.641  0.00  0.00    +0.158 C 
ATOM     15  C   UNL     1     -36.925  24.399   2.058  0.00  0.00    +0.036 C 
ATOM     16  C   UNL     1     -37.626  22.108   2.572  0.00  0.00    +0.147 C 
BRANCH  13  19
ATOM     17  O   UNL     1     -40.450  23.659   2.267  0.00  0.00    -0.275 OA
ATOM     18  N   UNL     1     -39.022  24.788   3.674  0.00  0.00    -0.329 N 
ATOM     19  C   UNL     1     -39.311  23.947   2.625  0.00  0.00    +0.221 C 
ATOM     20  H   UNL     1     -39.752  25.191   4.197  0.00  0.00    +0.145 HD
ATOM     21  H   UNL     1     -38.085  24.987   3.901  0.00  0.00    +0.145 HD
ENDBRANCH  13  19
BRANCH  14  22
ATOM     22  O   UNL     1     -35.747  21.525   4.018  0.00  0.00    -0.380 OA
ATOM     23  H   UNL     1     -35.191  21.281   3.261  0.00  0.00    +0.211 HD
ENDBRANCH  14  22
BRANCH  16  24
ATOM     24  O   UNL     1     -37.001  21.288   1.588  0.00  0.00    -0.381 OA
ATOM     25  H   UNL     1     -36.195  21.724   1.269  0.00  0.00    +0.210 HD
ENDBRANCH  16  24
ENDBRANCH   1  12
BRANCH  10  27
ATOM     26  C   UNL     1     -31.826  30.113   5.961  0.00  0.00    +0.042 C 
ATOM     27  C   UNL     1     -31.619  28.679   6.353  0.00  0.00    +0.076 C 
ATOM     28  C   UNL     1     -31.701  29.742   7.410  0.00  0.00    +0.026 C 
BRANCH  26  29
ATOM     29  C   UNL     1     -30.724  30.854   5.301  0.00  0.00    -0.021 C 
ATOM     30  C   UNL     1     -31.013  31.880   4.401  0.00  0.00    -0.004 C 
ATOM     31  C   UNL     1     -29.397  30.524   5.577  0.00  0.00    -0.004 C 
ATOM     32  C   UNL     1     -29.977  32.575   3.778  0.00  0.00    -0.000 C 
ATOM     33  C   UNL     1     -28.361  31.219   4.955  0.00  0.00    -0.000 C 
ATOM     34  C   UNL     1     -28.651  32.246   4.055  0.00  0.00    -0.000 C 
ENDBRANCH  26  29
ENDBRANCH  10  27
BRANCH   9  35
ATOM     35  S   UNL     1     -31.518  26.955   1.324  0.00  0.00    -0.018 S 
BRANCH  35  36
ATOM     36  C   UNL     1     -29.966  27.481   2.103  0.00  0.00    +0.074 C 
BRANCH  36  37
ATOM     37  C   UNL     1     -29.754  28.979   1.912  0.00  0.00    +0.013 C 
ATOM     38  C   UNL     1     -31.011  29.645   1.372  0.00  0.00    +0.001 C 
ENDBRANCH  36  37
ENDBRANCH  35  36
ENDBRANCH   9  35
TORSDOF 9
ENDMDL
MODEL 3
REMARK VINA RESULT:      -6.0      3.939      9.245
REMARK  Name = 20690429
REMARK  9 active torsions:
REMARK  status: ('A' for Active; 'I' for Inactive)
REMARK    1  A    between atoms: N_1  and  C_10
REMARK    2  A    between atoms: C_9  and  S_35
REMARK    3  A    between atoms: C_11  and  C_17
REMARK    4  A    between atoms: C_12  and  O_20
REMARK    5  A    between atoms: C_14  and  O_22
REMARK    6  A    between atoms: N_24  and  C_27
REMARK    7  A    between atoms: C_26  and  C_29
REMARK    8  A    between atoms: S_35  and  C_36
REMARK    9  A    between atoms: C_36  and  C_37
REMARK                            x       y       z     vdW  Elec       q    Type
REMARK                         _______ _______ _______ _____ _____    ______ ____
ROOT
ATOM      1  N   UNL     1     -35.618  24.766   2.420  0.00  0.00    -0.174 N 
ATOM      2  N   UNL     1     -36.578  25.082   1.530  0.00  0.00    -0.042 NA
ATOM      3  N   UNL     1     -36.648  26.410   1.464  0.00  0.00    -0.135 NA
ATOM      4  N   UNL     1     -34.358  28.386   3.589  0.00  0.00    -0.318 NA
ATOM      5  N   UNL     1     -34.069  25.976   3.856  0.00  0.00    -0.316 NA
ATOM      6  C   UNL     1     -35.345  28.215   2.674  0.00  0.00    +0.216 C 
ATOM      7  C   UNL     1     -35.049  25.885   2.946  0.00  0.00    +0.238 C 
ATOM      8  C   UNL     1     -35.718  26.923   2.326  0.00  0.00    +0.192 C 
ATOM      9  C   UNL     1     -33.791  27.272   4.115  0.00  0.00    +0.171 C 
ATOM     10  N   UNL     1     -35.973  29.328   2.092  0.00  0.00    -0.308 N 
ATOM     11  H   UNL     1     -36.684  29.164   1.431  0.00  0.00    +0.149 HD
ENDROOT
BRANCH   1  12
ATOM     12  C   UNL     1     -35.302  23.369   2.710  0.00  0.00    +0.128 C 
ATOM     13  C   UNL     1     -35.457  21.169   1.602  0.00  0.00    +0.107 C 
ATOM     14  C   UNL     1     -36.483  22.569   3.272  0.00  0.00    +0.158 C 
ATOM     15  C   UNL     1     -34.819  22.563   1.485  0.00  0.00    +0.036 C 
ATOM     16  C   UNL     1     -36.107  21.115   2.985  0.00  0.00    +0.147 C 
BRANCH  13  19
ATOM     17  O   UNL     1     -36.478  21.636  -0.508  0.00  0.00    -0.275 OA
ATOM     18  N   UNL     1     -37.404  19.993   0.810  0.00  0.00    -0.329 N 
ATOM     19  C   UNL     1     -36.478  20.968   0.523  0.00  0.00    +0.221 C 
ATOM     20  H   UNL     1     -38.117  19.786   0.164  0.00  0.00    +0.145 HD
ATOM     21  H   UNL     1     -37.355  19.503   1.662  0.00  0.00    +0.145 HD
ENDBRANCH  13  19
BRANCH  14  22
ATOM     22  O   UNL     1     -36.656  22.810   4.657  0.00  0.00    -0.380 OA
ATOM     23  H   UNL     1     -36.881  21.979   5.105  0.00  0.00    +0.211 HD
ENDBRANCH  14  22
BRANCH  16  24
ATOM     24  O   UNL     1     -35.168  20.618   3.935  0.00  0.00    -0.381 OA
ATOM     25  H   UNL     1     -35.147  19.649   3.892  0.00  0.00    +0.210 HD
ENDBRANCH  16  24
ENDBRANCH   1  12
BRANCH  10  27
ATOM     26  C   UNL     1     -34.887  31.574   1.428  0.00  0.00    +0.042 C 
ATOM     27  C   UNL     1     -35.636  30.716   2.405  0.00  0.00    +0.076 C 
ATOM     28  C   UNL     1     -36.331  31.858   1.721  0.00  0.00    +0.026 C 
BRANCH  26  29
ATOM     29  C   UNL     1     -33.845  32.505   1.925  0.00  0.00    -0.021 C 
ATOM     30  C   UNL     1     -34.012  33.883   1.779  0.00  0.00    -0.004 C 
ATOM     31  C   UNL     1     -32.696  32.005   2.537  0.00  0.00    -0.004 C 
ATOM     32  C   UNL     1     -33.032  34.758   2.245  0.00  0.00    -0.000 C 
ATOM     33  C   UNL     1     -31.716  32.880   3.003  0.00  0.00    -0.000 C 
ATOM     34  C   UNL     1     -31.884  34.258   2.857  0.00  0.00    -0.000 C 
ENDBRANCH  26  29
ENDBRANCH  10  27
BRANCH   9  35
ATOM     35  S   UNL     1     -32.497  27.561   5.314  0.00  0.00    -0.018 S 
BRANCH  35  36
ATOM     36  C   UNL     1     -31.733  29.074   4.667  0.00  0.00    +0.074 C 
BRANCH  36  37
ATOM     37  C   UNL     1     -31.767  30.179   5.717  0.00  0.00    +0.013 C 
ATOM     38  C   UNL     1     -31.633  29.607   7.120  0.00  0.00    +0.001 C 
ENDBRANCH  36  37
ENDBRANCH  35  36
ENDBRANCH   9  35
TORSDOF 9
ENDMDL
MODEL 4
REMARK VINA RESULT:      -6.0      1.551      2.513
REMARK  Name = 20690429
REMARK  9 active torsions:
REMARK  status: ('A' for Active; 'I' for Inactive)
REMARK    1  A    between atoms: N_1  and  C_10
REMARK    2  A    between atoms: C_9  and  S_35
REMARK    3  A    between atoms: C_11  and  C_17
REMARK    4  A    between atoms: C_12  and  O_20
REMARK    5  A    between atoms: C_14  and  O_22
REMARK    6  A    between atoms: N_24  and  C_27
REMARK    7  A    between atoms: C_26  and  C_29
REMARK    8  A    between atoms: S_35  and  C_36
REMARK    9  A    between atoms: C_36  and  C_37
REMARK                            x       y       z     vdW  Elec       q    Type
REMARK                         _______ _______ _______ _____ _____    ______ ____
ROOT
ATOM      1  N   UNL     1     -32.046  28.302   5.072  0.00  0.00    -0.174 N 
ATOM      2  N   UNL     1     -32.231  28.087   6.388  0.00  0.00    -0.042 NA
ATOM      3  N   UNL     1     -33.045  27.041   6.517  0.00  0.00    -0.135 NA
ATOM      4  N   UNL     1     -34.279  25.401   3.444  0.00  0.00    -0.318 NA
ATOM      5  N   UNL     1     -32.803  27.293   2.990  0.00  0.00    -0.316 NA
ATOM      6  C   UNL     1     -34.165  25.571   4.784  0.00  0.00    +0.216 C 
ATOM      7  C   UNL     1     -32.738  27.398   4.325  0.00  0.00    +0.238 C 
ATOM      8  C   UNL     1     -33.368  26.603   5.262  0.00  0.00    +0.192 C 
ATOM      9  C   UNL     1     -33.601  26.259   2.643  0.00  0.00    +0.171 C 
ATOM     10  N   UNL     1     -34.842  24.714   5.667  0.00  0.00    -0.308 N 
ATOM     11  H   UNL     1     -34.734  24.869   6.634  0.00  0.00    +0.149 HD
ENDROOT
BRANCH   1  12
ATOM     12  C   UNL     1     -31.191  29.393   4.609  0.00  0.00    +0.128 C 
ATOM     13  C   UNL     1     -28.786  29.940   4.500  0.00  0.00    +0.107 C 
ATOM     14  C   UNL     1     -30.822  30.401   5.703  0.00  0.00    +0.158 C 
ATOM     15  C   UNL     1     -29.842  28.931   4.019  0.00  0.00    +0.036 C 
ATOM     16  C   UNL     1     -29.562  31.078   5.164  0.00  0.00    +0.147 C 
BRANCH  13  19
ATOM     17  O   UNL     1     -27.130  29.949   6.224  0.00  0.00    -0.275 OA
ATOM     18  N   UNL     1     -27.864  27.919   5.428  0.00  0.00    -0.329 N 
ATOM     19  C   UNL     1     -27.849  29.293   5.474  0.00  0.00    +0.221 C 
ATOM     20  H   UNL     1     -27.283  27.400   6.030  0.00  0.00    +0.145 HD
ATOM     21  H   UNL     1     -28.456  27.454   4.794  0.00  0.00    +0.145 HD
ENDBRANCH  13  19
BRANCH  14  22
ATOM     22  O   UNL     1     -31.870  31.327   5.925  0.00  0.00    -0.380 OA
ATOM     23  H   UNL     1     -32.693  30.847   6.111  0.00  0.00    +0.211 HD
ENDBRANCH  14  22
BRANCH  16  24
ATOM     24  O   UNL     1     -29.876  32.073   4.192  0.00  0.00    -0.381 OA
ATOM     25  H   UNL     1     -29.763  32.954   4.584  0.00  0.00    +0.210 HD
ENDBRANCH  16  24
ENDBRANCH   1  12
BRANCH  10  27
ATOM     26  C   UNL     1     -35.140  22.444   4.474  0.00  0.00    +0.042 C 
ATOM     27  C   UNL     1     -35.697  23.607   5.243  0.00  0.00    +0.076 C 
ATOM     28  C   UNL     1     -35.599  22.256   5.890  0.00  0.00    +0.026 C 
BRANCH  26  29
ATOM     29  C   UNL     1     -35.932  21.856   3.367  0.00  0.00    -0.021 C 
ATOM     30  C   UNL     1     -35.500  20.685   2.744  0.00  0.00    -0.004 C 
ATOM     31  C   UNL     1     -37.110  22.475   2.946  0.00  0.00    -0.004 C 
ATOM     32  C   UNL     1     -36.243  20.133   1.702  0.00  0.00    -0.000 C 
ATOM     33  C   UNL     1     -37.854  21.923   1.903  0.00  0.00    -0.000 C 
ATOM     34  C   UNL     1     -37.420  20.752   1.280  0.00  0.00    -0.000 C 
ENDBRANCH  26  29
ENDBRANCH  10  27
BRANCH   9  35
ATOM     35  S   UNL     1     -33.789  25.985   0.886  0.00  0.00    -0.018 S 
BRANCH  35  36
ATOM     36  C   UNL     1     -35.373  25.101   0.824  0.00  0.00    +0.074 C 
BRANCH  36  37
ATOM     37  C   UNL     1     -35.226  23.799   0.045  0.00  0.00    +0.013 C 
ATOM     38  C   UNL     1     -33.928  23.089   0.402  0.00  0.00    +0.001 C 
ENDBRANCH  36  37
ENDBRANCH  35  36
ENDBRANCH   9  35
TORSDOF 9
ENDMDL
MODEL 5
REMARK VINA RESULT:      -5.9      3.795      8.505
REMARK  Name = 20690429
REMARK  9 active torsions:
REMARK  status: ('A' for Active; 'I' for Inactive)
REMARK    1  A    between atoms: N_1  and  C_10
REMARK    2  A    between atoms: C_9  and  S_35
REMARK    3  A    between atoms: C_11  and  C_17
REMARK    4  A    between atoms: C_12  and  O_20
REMARK    5  A    between atoms: C_14  and  O_22
REMARK    6  A    between atoms: N_24  and  C_27
REMARK    7  A    between atoms: C_26  and  C_29
REMARK    8  A    between atoms: S_35  and  C_36
REMARK    9  A    between atoms: C_36  and  C_37
REMARK                            x       y       z     vdW  Elec       q    Type
REMARK                         _______ _______ _______ _____ _____    ______ ____
ROOT
ATOM      1  N   UNL     1     -35.706  24.031   4.365  0.00  0.00    -0.174 N 
ATOM      2  N   UNL     1     -36.019  24.390   5.625  0.00  0.00    -0.042 NA
ATOM      3  N   UNL     1     -35.223  25.400   5.967  0.00  0.00    -0.135 NA
ATOM      4  N   UNL     1     -32.761  26.602   3.487  0.00  0.00    -0.318 NA
ATOM      5  N   UNL     1     -34.120  24.748   2.663  0.00  0.00    -0.316 NA
ATOM      6  C   UNL     1     -33.394  26.597   4.686  0.00  0.00    +0.216 C 
ATOM      7  C   UNL     1     -34.700  24.804   3.870  0.00  0.00    +0.238 C 
ATOM      8  C   UNL     1     -34.405  25.670   4.905  0.00  0.00    +0.192 C 
ATOM      9  C   UNL     1     -33.157  25.691   2.565  0.00  0.00    +0.171 C 
ATOM     10  N   UNL     1     -33.029  27.515   5.684  0.00  0.00    -0.308 N 
ATOM     11  H   UNL     1     -33.513  27.482   6.541  0.00  0.00    +0.149 HD
ENDROOT
BRANCH   1  12
ATOM     12  C   UNL     1     -36.417  22.938   3.704  0.00  0.00    +0.128 C 
ATOM     13  C   UNL     1     -36.219  21.574   1.657  0.00  0.00    +0.107 C 
ATOM     14  C   UNL     1     -37.430  23.403   2.652  0.00  0.00    +0.158 C 
ATOM     15  C   UNL     1     -35.498  21.944   2.963  0.00  0.00    +0.036 C 
ATOM     16  C   UNL     1     -37.621  22.174   1.763  0.00  0.00    +0.147 C 
BRANCH  13  19
ATOM     17  O   UNL     1     -36.026  22.291  -0.616  0.00  0.00    -0.275 OA
ATOM     18  N   UNL     1     -34.169  22.436   0.734  0.00  0.00    -0.329 N 
ATOM     19  C   UNL     1     -35.485  22.136   0.476  0.00  0.00    +0.221 C 
ATOM     20  H   UNL     1     -33.601  22.811   0.023  0.00  0.00    +0.145 HD
ATOM     21  H   UNL     1     -33.793  22.276   1.630  0.00  0.00    +0.145 HD
ENDBRANCH  13  19
BRANCH  14  22
ATOM     22  O   UNL     1     -38.643  23.818   3.253  0.00  0.00    -0.380 OA
ATOM     23  H   UNL     1     -39.316  23.951   2.567  0.00  0.00    +0.211 HD
ENDBRANCH  14  22
BRANCH  16  24
ATOM     24  O   UNL     1     -38.503  21.226   2.361  0.00  0.00    -0.381 OA
ATOM     25  H   UNL     1     -38.786  21.552   3.230  0.00  0.00    +0.210 HD
ENDBRANCH  16  24
ENDBRANCH   1  12
BRANCH  10  27
ATOM     26  C   UNL     1     -32.286  29.987   5.608  0.00  0.00    +0.042 C 
ATOM     27  C   UNL     1     -31.978  28.520   5.530  0.00  0.00    +0.076 C 
ATOM     28  C   UNL     1     -31.496  29.327   6.700  0.00  0.00    +0.026 C 
BRANCH  26  29
ATOM     29  C   UNL     1     -31.606  30.924   4.681  0.00  0.00    -0.021 C 
ATOM     30  C   UNL     1     -32.283  31.414   3.564  0.00  0.00    -0.004 C 
ATOM     31  C   UNL     1     -30.289  31.315   4.925  0.00  0.00    -0.004 C 
ATOM     32  C   UNL     1     -31.643  32.294   2.691  0.00  0.00    -0.000 C 
ATOM     33  C   UNL     1     -29.650  32.195   4.052  0.00  0.00    -0.000 C 
ATOM     34  C   UNL     1     -30.327  32.685   2.935  0.00  0.00    -0.000 C 
ENDBRANCH  26  29
ENDBRANCH  10  27
BRANCH   9  35
ATOM     35  S   UNL     1     -32.287  25.746   1.004  0.00  0.00    -0.018 S 
BRANCH  35  36
ATOM     36  C   UNL     1     -31.926  27.517   0.852  0.00  0.00    +0.074 C 
BRANCH  36  37
ATOM     37  C   UNL     1     -30.425  27.766   0.950  0.00  0.00    +0.013 C 
ATOM     38  C   UNL     1     -30.101  28.722   2.089  0.00  0.00    +0.001 C 
ENDBRANCH  36  37
ENDBRANCH  35  36
ENDBRANCH   9  35
TORSDOF 9
ENDMDL
MODEL 6
REMARK VINA RESULT:      -5.9      4.402      8.811
REMARK  Name = 20690429
REMARK  9 active torsions:
REMARK  status: ('A' for Active; 'I' for Inactive)
REMARK    1  A    between atoms: N_1  and  C_10
REMARK    2  A    between atoms: C_9  and  S_35
REMARK    3  A    between atoms: C_11  and  C_17
REMARK    4  A    between atoms: C_12  and  O_20
REMARK    5  A    between atoms: C_14  and  O_22
REMARK    6  A    between atoms: N_24  and  C_27
REMARK    7  A    between atoms: C_26  and  C_29
REMARK    8  A    between atoms: S_35  and  C_36
REMARK    9  A    between atoms: C_36  and  C_37
REMARK                            x       y       z     vdW  Elec       q    Type
REMARK                         _______ _______ _______ _____ _____    ______ ____
ROOT
ATOM      1  N   UNL     1     -37.646  26.639   1.574  0.00  0.00    -0.174 N 
ATOM      2  N   UNL     1     -37.816  27.706   0.771  0.00  0.00    -0.042 NA
ATOM      3  N   UNL     1     -36.897  28.611   1.101  0.00  0.00    -0.135 NA
ATOM      4  N   UNL     1     -34.541  27.793   3.828  0.00  0.00    -0.318 NA
ATOM      5  N   UNL     1     -36.143  26.005   3.380  0.00  0.00    -0.316 NA
ATOM      6  C   UNL     1     -35.070  28.576   2.856  0.00  0.00    +0.216 C 
ATOM      7  C   UNL     1     -36.611  26.834   2.437  0.00  0.00    +0.238 C 
ATOM      8  C   UNL     1     -36.146  28.096   2.121  0.00  0.00    +0.192 C 
ATOM      9  C   UNL     1     -35.102  26.575   4.026  0.00  0.00    +0.171 C 
ATOM     10  N   UNL     1     -34.534  29.849   2.601  0.00  0.00    -0.308 N 
ATOM     11  H   UNL     1     -34.945  30.388   1.886  0.00  0.00    +0.149 HD
ENDROOT
BRANCH   1  12
ATOM     12  C   UNL     1     -38.513  25.469   1.450  0.00  0.00    +0.128 C 
ATOM     13  C   UNL     1     -40.691  24.877   0.451  0.00  0.00    +0.107 C 
ATOM     14  C   UNL     1     -39.592  25.378   2.536  0.00  0.00    +0.158 C 
ATOM     15  C   UNL     1     -39.281  25.390   0.114  0.00  0.00    +0.036 C 
ATOM     16  C   UNL     1     -40.649  24.460   1.922  0.00  0.00    +0.147 C 
BRANCH  13  19
ATOM     17  O   UNL     1     -41.407  27.048  -0.249  0.00  0.00    -0.275 OA
ATOM     18  N   UNL     1     -42.977  25.613   0.630  0.00  0.00    -0.329 N 
ATOM     19  C   UNL     1     -41.707  25.957   0.231  0.00  0.00    +0.221 C 
ATOM     20  H   UNL     1     -43.716  26.255   0.526  0.00  0.00    +0.145 HD
ATOM     21  H   UNL     1     -43.148  24.725   1.019  0.00  0.00    +0.145 HD
ENDBRANCH  13  19
BRANCH  14  22
ATOM     22  O   UNL     1     -39.067  24.852   3.741  0.00  0.00    -0.380 OA
ATOM     23  H   UNL     1     -38.306  25.384   4.022  0.00  0.00    +0.211 HD
ENDBRANCH  14  22
BRANCH  16  24
ATOM     24  O   UNL     1     -40.273  23.088   2.018  0.00  0.00    -0.381 OA
ATOM     25  H   UNL     1     -40.746  22.575   1.344  0.00  0.00    +0.210 HD
ENDBRANCH  16  24
ENDBRANCH   1  12
BRANCH  10  27
ATOM     26  C   UNL     1     -32.028  29.835   3.220  0.00  0.00    +0.042 C 
ATOM     27  C   UNL     1     -33.404  30.425   3.328  0.00  0.00    +0.076 C 
ATOM     28  C   UNL     1     -32.319  31.176   2.612  0.00  0.00    +0.026 C 
BRANCH  26  29
ATOM     29  C   UNL     1     -31.173  29.753   4.429  0.00  0.00    -0.021 C 
ATOM     30  C   UNL     1     -31.757  29.617   5.689  0.00  0.00    -0.004 C 
ATOM     31  C   UNL     1     -29.785  29.814   4.309  0.00  0.00    -0.004 C 
ATOM     32  C   UNL     1     -30.954  29.542   6.826  0.00  0.00    -0.000 C 
ATOM     33  C   UNL     1     -28.981  29.739   5.446  0.00  0.00    -0.000 C 
ATOM     34  C   UNL     1     -29.566  29.603   6.706  0.00  0.00    -0.000 C 
ENDBRANCH  26  29
ENDBRANCH  10  27
BRANCH   9  35
ATOM     35  S   UNL     1     -34.361  25.588   5.320  0.00  0.00    -0.018 S 
BRANCH  35  36
ATOM     36  C   UNL     1     -35.614  24.297   5.554  0.00  0.00    +0.074 C 
BRANCH  36  37
ATOM     37  C   UNL     1     -35.017  22.919   5.293  0.00  0.00    +0.013 C 
ATOM     38  C   UNL     1     -35.363  21.950   6.414  0.00  0.00    +0.001 C 
ENDBRANCH  36  37
ENDBRANCH  35  36
ENDBRANCH   9  35
TORSDOF 9
ENDMDL
MODEL 7
REMARK VINA RESULT:      -5.8      4.015      6.160
REMARK  Name = 20690429
REMARK  9 active torsions:
REMARK  status: ('A' for Active; 'I' for Inactive)
REMARK    1  A    between atoms: N_1  and  C_10
REMARK    2  A    between atoms: C_9  and  S_35
REMARK    3  A    between atoms: C_11  and  C_17
REMARK    4  A    between atoms: C_12  and  O_20
REMARK    5  A    between atoms: C_14  and  O_22
REMARK    6  A    between atoms: N_24  and  C_27
REMARK    7  A    between atoms: C_26  and  C_29
REMARK    8  A    between atoms: S_35  and  C_36
REMARK    9  A    between atoms: C_36  and  C_37
REMARK                            x       y       z     vdW  Elec       q    Type
REMARK                         _______ _______ _______ _____ _____    ______ ____
ROOT
ATOM      1  N   UNL     1     -36.807  31.064   1.133  0.00  0.00    -0.174 N 
ATOM      2  N   UNL     1     -37.740  30.335   0.492  0.00  0.00    -0.042 NA
ATOM      3  N   UNL     1     -37.472  29.050   0.713  0.00  0.00    -0.135 NA
ATOM      4  N   UNL     1     -34.540  28.213   2.801  0.00  0.00    -0.318 NA
ATOM      5  N   UNL     1     -34.857  30.618   2.519  0.00  0.00    -0.316 NA
ATOM      6  C   UNL     1     -35.627  27.932   2.041  0.00  0.00    +0.216 C 
ATOM      7  C   UNL     1     -35.918  30.263   1.781  0.00  0.00    +0.238 C 
ATOM      8  C   UNL     1     -36.357  28.983   1.501  0.00  0.00    +0.192 C 
ATOM      9  C   UNL     1     -34.228  29.519   2.990  0.00  0.00    +0.171 C 
ATOM     10  N   UNL     1     -36.003  26.599   1.808  0.00  0.00    -0.308 N 
ATOM     11  H   UNL     1     -36.799  26.434   1.251  0.00  0.00    +0.149 HD
ENDROOT
BRANCH   1  12
ATOM     12  C   UNL     1     -36.837  32.525   1.078  0.00  0.00    +0.128 C 
ATOM     13  C   UNL     1     -38.503  34.345   1.135  0.00  0.00    +0.107 C 
ATOM     14  C   UNL     1     -37.059  33.090  -0.330  0.00  0.00    +0.158 C 
ATOM     15  C   UNL     1     -37.939  33.167   1.947  0.00  0.00    +0.036 C 
ATOM     16  C   UNL     1     -37.582  34.504  -0.075  0.00  0.00    +0.147 C 
BRANCH  13  19
ATOM     17  O   UNL     1     -40.612  33.230   1.276  0.00  0.00    -0.275 OA
ATOM     18  N   UNL     1     -40.313  34.787  -0.391  0.00  0.00    -0.329 N 
ATOM     19  C   UNL     1     -39.909  34.057   0.702  0.00  0.00    +0.221 C 
ATOM     20  H   UNL     1     -41.221  34.670  -0.752  0.00  0.00    +0.145 HD
ATOM     21  H   UNL     1     -39.694  35.426  -0.813  0.00  0.00    +0.145 HD
ENDBRANCH  13  19
BRANCH  14  22
ATOM     22  O   UNL     1     -35.858  33.094  -1.079  0.00  0.00    -0.380 OA
ATOM     23  H   UNL     1     -35.212  32.503  -0.659  0.00  0.00    +0.211 HD
ENDBRANCH  14  22
BRANCH  16  24
ATOM     24  O   UNL     1     -36.524  35.404   0.244  0.00  0.00    -0.381 OA
ATOM     25  H   UNL     1     -36.700  36.267  -0.163  0.00  0.00    +0.210 HD
ENDBRANCH  16  24
ENDBRANCH   1  12
BRANCH  10  27
ATOM     26  C   UNL     1     -35.989  24.133   2.573  0.00  0.00    +0.042 C 
ATOM     27  C   UNL     1     -35.289  25.439   2.340  0.00  0.00    +0.076 C 
ATOM     28  C   UNL     1     -34.975  24.254   1.474  0.00  0.00    +0.026 C 
BRANCH  26  29
ATOM     29  C   UNL     1     -35.665  23.337   3.781  0.00  0.00    -0.021 C 
ATOM     30  C   UNL     1     -35.514  23.970   5.015  0.00  0.00    -0.004 C 
ATOM     31  C   UNL     1     -35.507  21.954   3.685  0.00  0.00    -0.004 C 
ATOM     32  C   UNL     1     -35.206  23.222   6.151  0.00  0.00    -0.000 C 
ATOM     33  C   UNL     1     -35.200  21.205   4.820  0.00  0.00    -0.000 C 
ATOM     34  C   UNL     1     -35.049  21.840   6.054  0.00  0.00    -0.000 C 
ENDBRANCH  26  29
ENDBRANCH  10  27
BRANCH   9  35
ATOM     35  S   UNL     1     -32.786  29.828   4.001  0.00  0.00    -0.018 S 
BRANCH  35  36
ATOM     36  C   UNL     1     -32.391  28.158   4.590  0.00  0.00    +0.074 C 
BRANCH  36  37
ATOM     37  C   UNL     1     -32.001  28.190   6.063  0.00  0.00    +0.013 C 
ATOM     38  C   UNL     1     -32.783  27.155   6.860  0.00  0.00    +0.001 C 
ENDBRANCH  36  37
ENDBRANCH  35  36
ENDBRANCH   9  35
TORSDOF 9
ENDMDL
MODEL 8
REMARK VINA RESULT:      -5.8      4.588      8.857
REMARK  Name = 20690429
REMARK  9 active torsions:
REMARK  status: ('A' for Active; 'I' for Inactive)
REMARK    1  A    between atoms: N_1  and  C_10
REMARK    2  A    between atoms: C_9  and  S_35
REMARK    3  A    between atoms: C_11  and  C_17
REMARK    4  A    between atoms: C_12  and  O_20
REMARK    5  A    between atoms: C_14  and  O_22
REMARK    6  A    between atoms: N_24  and  C_27
REMARK    7  A    between atoms: C_26  and  C_29
REMARK    8  A    between atoms: S_35  and  C_36
REMARK    9  A    between atoms: C_36  and  C_37
REMARK                            x       y       z     vdW  Elec       q    Type
REMARK                         _______ _______ _______ _____ _____    ______ ____
ROOT
ATOM      1  N   UNL     1     -34.878  25.854   3.310  0.00  0.00    -0.174 N 
ATOM      2  N   UNL     1     -33.976  26.685   3.866  0.00  0.00    -0.042 NA
ATOM      3  N   UNL     1     -34.255  27.919   3.451  0.00  0.00    -0.135 NA
ATOM      4  N   UNL     1     -37.126  28.390   1.173  0.00  0.00    -0.318 NA
ATOM      5  N   UNL     1     -36.786  26.058   1.814  0.00  0.00    -0.316 NA
ATOM      6  C   UNL     1     -36.069  28.798   1.917  0.00  0.00    +0.216 C 
ATOM      7  C   UNL     1     -35.757  26.536   2.526  0.00  0.00    +0.238 C 
ATOM      8  C   UNL     1     -35.344  27.851   2.628  0.00  0.00    +0.192 C 
ATOM      9  C   UNL     1     -37.414  27.065   1.167  0.00  0.00    +0.171 C 
ATOM     10  N   UNL     1     -35.718  30.158   1.963  0.00  0.00    -0.308 N 
ATOM     11  H   UNL     1     -34.945  30.416   2.515  0.00  0.00    +0.149 HD
ENDROOT
BRANCH   1  12
ATOM     12  C   UNL     1     -34.833  24.418   3.581  0.00  0.00    +0.128 C 
ATOM     13  C   UNL     1     -35.758  22.329   2.648  0.00  0.00    +0.107 C 
ATOM     14  C   UNL     1     -35.992  23.912   4.448  0.00  0.00    +0.158 C 
ATOM     15  C   UNL     1     -34.864  23.535   2.316  0.00  0.00    +0.036 C 
ATOM     16  C   UNL     1     -36.044  22.414   4.147  0.00  0.00    +0.147 C 
BRANCH  13  19
ATOM     17  O   UNL     1     -37.123  23.032   0.815  0.00  0.00    -0.275 OA
ATOM     18  N   UNL     1     -38.064  21.673   2.416  0.00  0.00    -0.329 N 
ATOM     19  C   UNL     1     -37.030  22.387   1.857  0.00  0.00    +0.221 C 
ATOM     20  H   UNL     1     -38.942  21.649   1.972  0.00  0.00    +0.145 HD
ATOM     21  H   UNL     1     -37.926  21.187   3.262  0.00  0.00    +0.145 HD
ENDBRANCH  13  19
BRANCH  14  22
ATOM     22  O   UNL     1     -35.759  24.171   5.821  0.00  0.00    -0.380 OA
ATOM     23  H   UNL     1     -36.381  23.654   6.358  0.00  0.00    +0.211 HD
ENDBRANCH  14  22
BRANCH  16  24
ATOM     24  O   UNL     1     -35.042  21.699   4.866  0.00  0.00    -0.381 OA
ATOM     25  H   UNL     1     -35.062  21.964   5.799  0.00  0.00    +0.210 HD
ENDBRANCH  16  24
ENDBRANCH   1  12
BRANCH  10  27
ATOM     26  C   UNL     1     -35.983  32.645   1.322  0.00  0.00    +0.042 C 
ATOM     27  C   UNL     1     -36.430  31.214   1.245  0.00  0.00    +0.076 C 
ATOM     28  C   UNL     1     -35.828  31.879   0.042  0.00  0.00    +0.026 C 
BRANCH  26  29
ATOM     29  C   UNL     1     -36.999  33.721   1.409  0.00  0.00    -0.021 C 
ATOM     30  C   UNL     1     -36.660  35.031   1.069  0.00  0.00    -0.004 C 
ATOM     31  C   UNL     1     -38.295  33.426   1.833  0.00  0.00    -0.004 C 
ATOM     32  C   UNL     1     -37.614  36.044   1.151  0.00  0.00    -0.000 C 
ATOM     33  C   UNL     1     -39.250  34.439   1.916  0.00  0.00    -0.000 C 
ATOM     34  C   UNL     1     -38.910  35.749   1.575  0.00  0.00    -0.000 C 
ENDBRANCH  26  29
ENDBRANCH  10  27
BRANCH   9  35
ATOM     35  S   UNL     1     -38.819  26.586   0.170  0.00  0.00    -0.018 S 
BRANCH  35  36
ATOM     36  C   UNL     1     -40.114  26.408   1.428  0.00  0.00    +0.074 C 
BRANCH  36  37
ATOM     37  C   UNL     1     -40.264  24.946   1.836  0.00  0.00    +0.013 C 
ATOM     38  C   UNL     1     -39.753  24.717   3.251  0.00  0.00    +0.001 C 
ENDBRANCH  36  37
ENDBRANCH  35  36
ENDBRANCH   9  35
TORSDOF 9
ENDMDL
MODEL 9
REMARK VINA RESULT:      -5.7      4.458      9.150
REMARK  Name = 20690429
REMARK  9 active torsions:
REMARK  status: ('A' for Active; 'I' for Inactive)
REMARK    1  A    between atoms: N_1  and  C_10
REMARK    2  A    between atoms: C_9  and  S_35
REMARK    3  A    between atoms: C_11  and  C_17
REMARK    4  A    between atoms: C_12  and  O_20
REMARK    5  A    between atoms: C_14  and  O_22
REMARK    6  A    between atoms: N_24  and  C_27
REMARK    7  A    between atoms: C_26  and  C_29
REMARK    8  A    between atoms: S_35  and  C_36
REMARK    9  A    between atoms: C_36  and  C_37
REMARK                            x       y       z     vdW  Elec       q    Type
REMARK                         _______ _______ _______ _____ _____    ______ ____
ROOT
ATOM      1  N   UNL     1     -34.292  27.529   3.768  0.00  0.00    -0.174 N 
ATOM      2  N   UNL     1     -33.275  28.118   4.425  0.00  0.00    -0.042 NA
ATOM      3  N   UNL     1     -33.116  29.338   3.915  0.00  0.00    -0.135 NA
ATOM      4  N   UNL     1     -35.365  30.392   1.178  0.00  0.00    -0.318 NA
ATOM      5  N   UNL     1     -35.820  28.127   1.971  0.00  0.00    -0.316 NA
ATOM      6  C   UNL     1     -34.352  30.551   2.066  0.00  0.00    +0.216 C 
ATOM      7  C   UNL     1     -34.809  28.357   2.820  0.00  0.00    +0.238 C 
ATOM      8  C   UNL     1     -34.048  29.505   2.928  0.00  0.00    +0.192 C 
ATOM      9  C   UNL     1     -36.025  29.208   1.186  0.00  0.00    +0.171 C 
ATOM     10  N   UNL     1     -33.628  31.754   2.108  0.00  0.00    -0.308 N 
ATOM     11  H   UNL     1     -32.901  31.832   2.767  0.00  0.00    +0.149 HD
ENDROOT
BRANCH   1  12
ATOM     12  C   UNL     1     -34.709  26.170   4.107  0.00  0.00    +0.128 C 
ATOM     13  C   UNL     1     -35.582  24.163   2.966  0.00  0.00    +0.107 C 
ATOM     14  C   UNL     1     -36.215  26.026   4.355  0.00  0.00    +0.158 C 
ATOM     15  C   UNL     1     -34.379  25.119   3.026  0.00  0.00    +0.036 C 
ATOM     16  C   UNL     1     -36.477  24.534   4.148  0.00  0.00    +0.147 C 
BRANCH  13  19
ATOM     17  O   UNL     1     -37.328  23.682   1.405  0.00  0.00    -0.275 OA
ATOM     18  N   UNL     1     -35.738  25.237   0.816  0.00  0.00    -0.329 N 
ATOM     19  C   UNL     1     -36.315  24.326   1.668  0.00  0.00    +0.221 C 
ATOM     20  H   UNL     1     -36.145  25.416  -0.062  0.00  0.00    +0.145 HD
ATOM     21  H   UNL     1     -34.917  25.711   1.084  0.00  0.00    +0.145 HD
ENDBRANCH  13  19
BRANCH  14  22
ATOM     22  O   UNL     1     -36.565  26.451   5.660  0.00  0.00    -0.380 OA
ATOM     23  H   UNL     1     -36.753  27.403   5.651  0.00  0.00    +0.211 HD
ENDBRANCH  14  22
BRANCH  16  24
ATOM     24  O   UNL     1     -36.098  23.771   5.291  0.00  0.00    -0.381 OA
ATOM     25  H   UNL     1     -36.872  23.636   5.861  0.00  0.00    +0.210 HD
ENDBRANCH  16  24
ENDBRANCH   1  12
BRANCH  10  27
ATOM     26  C   UNL     1     -33.855  34.303   1.765  0.00  0.00    +0.042 C 
ATOM     27  C   UNL     1     -33.888  32.898   1.236  0.00  0.00    +0.076 C 
ATOM     28  C   UNL     1     -32.785  33.830   0.826  0.00  0.00    +0.026 C 
BRANCH  26  29
ATOM     29  C   UNL     1     -34.860  35.284   1.289  0.00  0.00    -0.021 C 
ATOM     30  C   UNL     1     -36.220  34.982   1.365  0.00  0.00    -0.004 C 
ATOM     31  C   UNL     1     -34.447  36.509   0.764  0.00  0.00    -0.004 C 
ATOM     32  C   UNL     1     -37.165  35.904   0.917  0.00  0.00    -0.000 C 
ATOM     33  C   UNL     1     -35.392  37.430   0.316  0.00  0.00    -0.000 C 
ATOM     34  C   UNL     1     -36.752  37.128   0.392  0.00  0.00    -0.000 C 
ENDBRANCH  26  29
ENDBRANCH  10  27
BRANCH   9  35
ATOM     35  S   UNL     1     -37.350  29.058  -0.005  0.00  0.00    -0.018 S 
BRANCH  35  36
ATOM     36  C   UNL     1     -37.507  30.767  -0.592  0.00  0.00    +0.074 C 
BRANCH  36  37
ATOM     37  C   UNL     1     -38.811  31.383  -0.096  0.00  0.00    +0.013 C 
ATOM     38  C   UNL     1     -38.572  32.269   1.118  0.00  0.00    +0.001 C 
ENDBRANCH  36  37
ENDBRANCH  35  36
ENDBRANCH   9  35
TORSDOF 9
ENDMDL
