MODEL 1
REMARK VINA RESULT:      -5.9      0.000      0.000
REMARK  Name = 196017
REMARK  9 active torsions:
REMARK  status: ('A' for Active; 'I' for Inactive)
REMARK    1  A    between atoms: C_2  and  O_7
REMARK    2  A    between atoms: C_3  and  O_9
REMARK    3  A    between atoms: C_4  and  O_11
REMARK    4  A    between atoms: C_5  and  C_23
REMARK    5  A    between atoms: C_6  and  O_13
REMARK    6  A    between atoms: O_13  and  C_14
REMARK    7  A    between atoms: C_14  and  C_15
REMARK    8  A    between atoms: C_15  and  N_18
REMARK    9  A    between atoms: C_23  and  O_24
REMARK                            x       y       z     vdW  Elec       q    Type
REMARK                         _______ _______ _______ _____ _____    ______ ____
ROOT
ATOM      1  O   UNL     1     -35.059  24.376   5.548  0.00  0.00    -0.326 OA
ATOM      2  C   UNL     1     -37.191  24.034   3.661  0.00  0.00    +0.172 C 
ATOM      3  C   UNL     1     -36.283  22.878   4.080  0.00  0.00    +0.169 C 
ATOM      4  C   UNL     1     -36.489  25.379   3.847  0.00  0.00    +0.196 C 
ATOM      5  C   UNL     1     -35.752  23.122   5.496  0.00  0.00    +0.176 C 
ATOM      6  C   UNL     1     -35.899  25.492   5.254  0.00  0.00    +0.266 C 
ENDROOT
BRANCH   2   7
ATOM      7  O   UNL     1     -37.571  23.890   2.294  0.00  0.00    -0.379 OA
ATOM      8  H   UNL     1     -38.453  24.271   2.162  0.00  0.00    +0.211 HD
ENDBRANCH   2   7
BRANCH   3   9
ATOM      9  O   UNL     1     -35.178  22.785   3.178  0.00  0.00    -0.379 OA
ATOM     10  H   UNL     1     -34.692  23.626   3.174  0.00  0.00    +0.211 HD
ENDBRANCH   3   9
BRANCH   4  11
ATOM     11  O   UNL     1     -37.436  26.432   3.666  0.00  0.00    -0.378 OA
ATOM     12  H   UNL     1     -37.180  27.194   4.208  0.00  0.00    +0.211 HD
ENDBRANCH   4  11
BRANCH   6  13
ATOM     13  O   UNL     1     -35.137  26.698   5.315  0.00  0.00    -0.327 OA
BRANCH  13  14
ATOM     14  C   UNL     1     -33.753  26.426   5.462  0.00  0.00    +0.167 C 
BRANCH  14  15
ATOM     15  C   UNL     1     -32.978  27.160   4.382  0.00  0.00    +0.134 C 
BRANCH  15  18
ATOM     16  O   UNL     1     -33.728  29.975   3.755  0.00  0.00    -0.269 OA
ATOM     17  O   UNL     1     -30.741  27.578   6.310  0.00  0.00    -0.269 OA
ATOM     18  N   UNL     1     -32.415  28.387   4.877  0.00  0.00    -0.220 N 
ATOM     19  C   UNL     1     -32.839  29.646   4.523  0.00  0.00    +0.255 C 
ATOM     20  C   UNL     1     -31.377  28.470   5.774  0.00  0.00    +0.255 C 
ATOM     21  C   UNL     1     -31.996  30.598   5.262  0.00  0.00    +0.063 C 
ATOM     22  C   UNL     1     -31.131  29.902   6.002  0.00  0.00    +0.063 C 
ENDBRANCH  15  18
ENDBRANCH  14  15
ENDBRANCH  13  14
ENDBRANCH   6  13
BRANCH   5  23
ATOM     23  C   UNL     1     -34.774  22.043   5.944  0.00  0.00    +0.169 C 
BRANCH  23  24
ATOM     24  O   UNL     1     -35.272  20.783   5.535  0.00  0.00    -0.379 OA
ATOM     25  H   UNL     1     -34.637  20.089   5.777  0.00  0.00    +0.211 HD
ENDBRANCH  23  24
ENDBRANCH   5  23
TORSDOF 9
ENDMDL
MODEL 2
REMARK VINA RESULT:      -5.9      0.075      1.636
REMARK  Name = 196017
REMARK  9 active torsions:
REMARK  status: ('A' for Active; 'I' for Inactive)
REMARK    1  A    between atoms: C_2  and  O_7
REMARK    2  A    between atoms: C_3  and  O_9
REMARK    3  A    between atoms: C_4  and  O_11
REMARK    4  A    between atoms: C_5  and  C_23
REMARK    5  A    between atoms: C_6  and  O_13
REMARK    6  A    between atoms: O_13  and  C_14
REMARK    7  A    between atoms: C_14  and  C_15
REMARK    8  A    between atoms: C_15  and  N_18
REMARK    9  A    between atoms: C_23  and  O_24
REMARK                            x       y       z     vdW  Elec       q    Type
REMARK                         _______ _______ _______ _____ _____    ______ ____
ROOT
ATOM      1  O   UNL     1     -35.081  24.364   5.552  0.00  0.00    -0.326 OA
ATOM      2  C   UNL     1     -37.193  24.016   3.644  0.00  0.00    +0.172 C 
ATOM      3  C   UNL     1     -36.284  22.863   4.069  0.00  0.00    +0.169 C 
ATOM      4  C   UNL     1     -36.500  25.364   3.839  0.00  0.00    +0.196 C 
ATOM      5  C   UNL     1     -35.768  23.107   5.491  0.00  0.00    +0.176 C 
ATOM      6  C   UNL     1     -35.923  25.477   5.253  0.00  0.00    +0.266 C 
ENDROOT
BRANCH   2   7
ATOM      7  O   UNL     1     -37.560  23.873   2.274  0.00  0.00    -0.379 OA
ATOM      8  H   UNL     1     -37.483  22.941   2.015  0.00  0.00    +0.211 HD
ENDBRANCH   2   7
BRANCH   3   9
ATOM      9  O   UNL     1     -35.170  22.778   3.178  0.00  0.00    -0.379 OA
ATOM     10  H   UNL     1     -35.332  23.339   2.403  0.00  0.00    +0.211 HD
ENDBRANCH   3   9
BRANCH   4  11
ATOM     11  O   UNL     1     -37.450  26.413   3.652  0.00  0.00    -0.378 OA
ATOM     12  H   UNL     1     -37.146  27.210   4.112  0.00  0.00    +0.211 HD
ENDBRANCH   4  11
BRANCH   6  13
ATOM     13  O   UNL     1     -35.168  26.686   5.322  0.00  0.00    -0.327 OA
BRANCH  13  14
ATOM     14  C   UNL     1     -33.787  26.421   5.510  0.00  0.00    +0.167 C 
BRANCH  14  15
ATOM     15  C   UNL     1     -32.990  27.089   4.404  0.00  0.00    +0.134 C 
BRANCH  15  18
ATOM     16  O   UNL     1     -30.730  27.621   6.271  0.00  0.00    -0.269 OA
ATOM     17  O   UNL     1     -33.800  29.866   3.678  0.00  0.00    -0.269 OA
ATOM     18  N   UNL     1     -32.438  28.345   4.836  0.00  0.00    -0.220 N 
ATOM     19  C   UNL     1     -31.383  28.482   5.707  0.00  0.00    +0.255 C 
ATOM     20  C   UNL     1     -32.889  29.580   4.436  0.00  0.00    +0.255 C 
ATOM     21  C   UNL     1     -31.152  29.927   5.865  0.00  0.00    +0.063 C 
ATOM     22  C   UNL     1     -32.043  30.576   5.113  0.00  0.00    +0.063 C 
ENDBRANCH  15  18
ENDBRANCH  14  15
ENDBRANCH  13  14
ENDBRANCH   6  13
BRANCH   5  23
ATOM     23  C   UNL     1     -34.788  22.032   5.946  0.00  0.00    +0.169 C 
BRANCH  23  24
ATOM     24  O   UNL     1     -35.230  20.780   5.453  0.00  0.00    -0.379 OA
ATOM     25  H   UNL     1     -35.023  20.086   6.099  0.00  0.00    +0.211 HD
ENDBRANCH  23  24
ENDBRANCH   5  23
TORSDOF 9
ENDMDL
MODEL 3
REMARK VINA RESULT:      -5.8      3.990      7.216
REMARK  Name = 196017
REMARK  9 active torsions:
REMARK  status: ('A' for Active; 'I' for Inactive)
REMARK    1  A    between atoms: C_2  and  O_7
REMARK    2  A    between atoms: C_3  and  O_9
REMARK    3  A    between atoms: C_4  and  O_11
REMARK    4  A    between atoms: C_5  and  C_23
REMARK    5  A    between atoms: C_6  and  O_13
REMARK    6  A    between atoms: O_13  and  C_14
REMARK    7  A    between atoms: C_14  and  C_15
REMARK    8  A    between atoms: C_15  and  N_18
REMARK    9  A    between atoms: C_23  and  O_24
REMARK                            x       y       z     vdW  Elec       q    Type
REMARK                         _______ _______ _______ _____ _____    ______ ____
ROOT
ATOM      1  O   UNL     1     -36.228  24.032   2.994  0.00  0.00    -0.326 OA
ATOM      2  C   UNL     1     -35.615  22.307   5.201  0.00  0.00    +0.172 C 
ATOM      3  C   UNL     1     -35.498  23.828   5.301  0.00  0.00    +0.169 C 
ATOM      4  C   UNL     1     -35.478  21.840   3.752  0.00  0.00    +0.196 C 
ATOM      5  C   UNL     1     -36.481  24.489   4.330  0.00  0.00    +0.176 C 
ATOM      6  C   UNL     1     -36.420  22.627   2.838  0.00  0.00    +0.266 C 
ENDROOT
BRANCH   2   7
ATOM      7  O   UNL     1     -34.605  21.684   5.991  0.00  0.00    -0.379 OA
ATOM      8  H   UNL     1     -35.014  21.036   6.586  0.00  0.00    +0.211 HD
ENDBRANCH   2   7
BRANCH   3   9
ATOM      9  O   UNL     1     -34.169  24.230   4.963  0.00  0.00    -0.379 OA
ATOM     10  H   UNL     1     -34.199  25.066   4.472  0.00  0.00    +0.211 HD
ENDBRANCH   3   9
BRANCH   4  11
ATOM     11  O   UNL     1     -35.819  20.456   3.671  0.00  0.00    -0.378 OA
ATOM     12  H   UNL     1     -35.101  19.924   4.046  0.00  0.00    +0.211 HD
ENDBRANCH   4  11
BRANCH   6  13
ATOM     13  O   UNL     1     -36.140  22.249   1.490  0.00  0.00    -0.327 OA
BRANCH  13  14
ATOM     14  C   UNL     1     -34.819  22.606   1.119  0.00  0.00    +0.167 C 
BRANCH  14  15
ATOM     15  C   UNL     1     -34.415  21.828  -0.120  0.00  0.00    +0.134 C 
BRANCH  15  18
ATOM     16  O   UNL     1     -34.930  19.215   1.217  0.00  0.00    -0.269 OA
ATOM     17  O   UNL     1     -31.479  21.649  -0.616  0.00  0.00    -0.269 OA
ATOM     18  N   UNL     1     -33.497  20.767   0.197  0.00  0.00    -0.220 N 
ATOM     19  C   UNL     1     -33.840  19.590   0.820  0.00  0.00    +0.255 C 
ATOM     20  C   UNL     1     -32.151  20.784  -0.079  0.00  0.00    +0.255 C 
ATOM     21  C   UNL     1     -32.603  18.803   0.943  0.00  0.00    +0.063 C 
ATOM     22  C   UNL     1     -31.605  19.509   0.411  0.00  0.00    +0.063 C 
ENDBRANCH  15  18
ENDBRANCH  14  15
ENDBRANCH  13  14
ENDBRANCH   6  13
BRANCH   5  23
ATOM     23  C   UNL     1     -36.357  26.008   4.322  0.00  0.00    +0.169 C 
BRANCH  23  24
ATOM     24  O   UNL     1     -36.390  26.471   5.659  0.00  0.00    -0.379 OA
ATOM     25  H   UNL     1     -36.121  25.755   6.257  0.00  0.00    +0.211 HD
ENDBRANCH  23  24
ENDBRANCH   5  23
TORSDOF 9
ENDMDL
MODEL 4
REMARK VINA RESULT:      -5.7      4.157      7.557
REMARK  Name = 196017
REMARK  9 active torsions:
REMARK  status: ('A' for Active; 'I' for Inactive)
REMARK    1  A    between atoms: C_2  and  O_7
REMARK    2  A    between atoms: C_3  and  O_9
REMARK    3  A    between atoms: C_4  and  O_11
REMARK    4  A    between atoms: C_5  and  C_23
REMARK    5  A    between atoms: C_6  and  O_13
REMARK    6  A    between atoms: O_13  and  C_14
REMARK    7  A    between atoms: C_14  and  C_15
REMARK    8  A    between atoms: C_15  and  N_18
REMARK    9  A    between atoms: C_23  and  O_24
REMARK                            x       y       z     vdW  Elec       q    Type
REMARK                         _______ _______ _______ _____ _____    ______ ____
ROOT
ATOM      1  O   UNL     1     -37.283  23.385   4.017  0.00  0.00    -0.326 OA
ATOM      2  C   UNL     1     -35.960  25.895   3.601  0.00  0.00    +0.172 C 
ATOM      3  C   UNL     1     -35.328  24.768   4.419  0.00  0.00    +0.169 C 
ATOM      4  C   UNL     1     -37.483  25.777   3.589  0.00  0.00    +0.196 C 
ATOM      5  C   UNL     1     -35.852  23.414   3.929  0.00  0.00    +0.176 C 
ATOM      6  C   UNL     1     -37.914  24.363   3.192  0.00  0.00    +0.266 C 
ENDROOT
BRANCH   2   7
ATOM      7  O   UNL     1     -35.592  27.161   4.144  0.00  0.00    -0.379 OA
ATOM      8  H   UNL     1     -34.677  27.121   4.465  0.00  0.00    +0.211 HD
ENDBRANCH   2   7
BRANCH   3   9
ATOM      9  O   UNL     1     -35.668  24.927   5.798  0.00  0.00    -0.379 OA
ATOM     10  H   UNL     1     -35.240  24.229   6.319  0.00  0.00    +0.211 HD
ENDBRANCH   3   9
BRANCH   4  11
ATOM     11  O   UNL     1     -38.018  26.699   2.639  0.00  0.00    -0.378 OA
ATOM     12  H   UNL     1     -37.432  27.468   2.570  0.00  0.00    +0.211 HD
ENDBRANCH   4  11
BRANCH   6  13
ATOM     13  O   UNL     1     -39.331  24.279   3.342  0.00  0.00    -0.327 OA
BRANCH  13  14
ATOM     14  C   UNL     1     -39.931  23.652   2.220  0.00  0.00    +0.167 C 
BRANCH  14  15
ATOM     15  C   UNL     1     -40.338  24.709   1.209  0.00  0.00    +0.134 C 
BRANCH  15  18
ATOM     16  O   UNL     1     -40.961  27.045   2.952  0.00  0.00    -0.269 OA
ATOM     17  O   UNL     1     -43.072  23.903   0.332  0.00  0.00    -0.269 OA
ATOM     18  N   UNL     1     -41.611  25.291   1.536  0.00  0.00    -0.220 N 
ATOM     19  C   UNL     1     -41.792  26.380   2.357  0.00  0.00    +0.255 C 
ATOM     20  C   UNL     1     -42.824  24.839   1.072  0.00  0.00    +0.255 C 
ATOM     21  C   UNL     1     -43.240  26.632   2.410  0.00  0.00    +0.063 C 
ATOM     22  C   UNL     1     -43.850  25.721   1.650  0.00  0.00    +0.063 C 
ENDBRANCH  15  18
ENDBRANCH  14  15
ENDBRANCH  13  14
ENDBRANCH   6  13
BRANCH   5  23
ATOM     23  C   UNL     1     -35.322  22.251   4.758  0.00  0.00    +0.169 C 
BRANCH  23  24
ATOM     24  O   UNL     1     -36.132  22.112   5.912  0.00  0.00    -0.379 OA
ATOM     25  H   UNL     1     -35.574  21.887   6.674  0.00  0.00    +0.211 HD
ENDBRANCH  23  24
ENDBRANCH   5  23
TORSDOF 9
ENDMDL
MODEL 5
REMARK VINA RESULT:      -5.7      1.786      2.522
REMARK  Name = 196017
REMARK  9 active torsions:
REMARK  status: ('A' for Active; 'I' for Inactive)
REMARK    1  A    between atoms: C_2  and  O_7
REMARK    2  A    between atoms: C_3  and  O_9
REMARK    3  A    between atoms: C_4  and  O_11
REMARK    4  A    between atoms: C_5  and  C_23
REMARK    5  A    between atoms: C_6  and  O_13
REMARK    6  A    between atoms: O_13  and  C_14
REMARK    7  A    between atoms: C_14  and  C_15
REMARK    8  A    between atoms: C_15  and  N_18
REMARK    9  A    between atoms: C_23  and  O_24
REMARK                            x       y       z     vdW  Elec       q    Type
REMARK                         _______ _______ _______ _____ _____    ______ ____
ROOT
ATOM      1  O   UNL     1     -35.060  24.267   5.625  0.00  0.00    -0.326 OA
ATOM      2  C   UNL     1     -37.156  23.990   3.687  0.00  0.00    +0.172 C 
ATOM      3  C   UNL     1     -36.274  22.813   4.105  0.00  0.00    +0.169 C 
ATOM      4  C   UNL     1     -36.439  25.320   3.911  0.00  0.00    +0.196 C 
ATOM      5  C   UNL     1     -35.771  23.025   5.537  0.00  0.00    +0.176 C 
ATOM      6  C   UNL     1     -35.877  25.400   5.333  0.00  0.00    +0.266 C 
ENDROOT
BRANCH   2   7
ATOM      7  O   UNL     1     -37.509  23.874   2.311  0.00  0.00    -0.379 OA
ATOM      8  H   UNL     1     -37.162  24.637   1.823  0.00  0.00    +0.211 HD
ENDBRANCH   2   7
BRANCH   3   9
ATOM      9  O   UNL     1     -35.152  22.719   3.227  0.00  0.00    -0.379 OA
ATOM     10  H   UNL     1     -34.331  22.752   3.745  0.00  0.00    +0.211 HD
ENDBRANCH   3   9
BRANCH   4  11
ATOM     11  O   UNL     1     -37.366  26.390   3.729  0.00  0.00    -0.378 OA
ATOM     12  H   UNL     1     -36.922  27.235   3.897  0.00  0.00    +0.211 HD
ENDBRANCH   4  11
BRANCH   6  13
ATOM     13  O   UNL     1     -35.099  26.594   5.430  0.00  0.00    -0.327 OA
BRANCH  13  14
ATOM     14  C   UNL     1     -33.719  26.325   5.244  0.00  0.00    +0.167 C 
BRANCH  14  15
ATOM     15  C   UNL     1     -33.095  27.440   4.424  0.00  0.00    +0.134 C 
BRANCH  15  18
ATOM     16  O   UNL     1     -35.209  28.257   2.489  0.00  0.00    -0.269 OA
ATOM     17  O   UNL     1     -31.242  25.925   2.643  0.00  0.00    -0.269 OA
ATOM     18  N   UNL     1     -33.193  27.177   3.013  0.00  0.00    -0.220 N 
ATOM     19  C   UNL     1     -34.219  27.604   2.203  0.00  0.00    +0.255 C 
ATOM     20  C   UNL     1     -32.275  26.463   2.281  0.00  0.00    +0.255 C 
ATOM     21  C   UNL     1     -33.916  27.118   0.848  0.00  0.00    +0.063 C 
ATOM     22  C   UNL     1     -32.767  26.443   0.895  0.00  0.00    +0.063 C 
ENDBRANCH  15  18
ENDBRANCH  14  15
ENDBRANCH  13  14
ENDBRANCH   6  13
BRANCH   5  23
ATOM     23  C   UNL     1     -34.818  21.924   5.987  0.00  0.00    +0.169 C 
BRANCH  23  24
ATOM     24  O   UNL     1     -35.307  20.682   5.515  0.00  0.00    -0.379 OA
ATOM     25  H   UNL     1     -35.583  20.774   4.589  0.00  0.00    +0.211 HD
ENDBRANCH  23  24
ENDBRANCH   5  23
TORSDOF 9
ENDMDL
MODEL 6
REMARK VINA RESULT:      -5.7      1.634      3.187
REMARK  Name = 196017
REMARK  9 active torsions:
REMARK  status: ('A' for Active; 'I' for Inactive)
REMARK    1  A    between atoms: C_2  and  O_7
REMARK    2  A    between atoms: C_3  and  O_9
REMARK    3  A    between atoms: C_4  and  O_11
REMARK    4  A    between atoms: C_5  and  C_23
REMARK    5  A    between atoms: C_6  and  O_13
REMARK    6  A    between atoms: O_13  and  C_14
REMARK    7  A    between atoms: C_14  and  C_15
REMARK    8  A    between atoms: C_15  and  N_18
REMARK    9  A    between atoms: C_23  and  O_24
REMARK                            x       y       z     vdW  Elec       q    Type
REMARK                         _______ _______ _______ _____ _____    ______ ____
ROOT
ATOM      1  O   UNL     1     -36.359  26.596   2.922  0.00  0.00    -0.326 OA
ATOM      2  C   UNL     1     -35.828  24.139   4.303  0.00  0.00    +0.172 C 
ATOM      3  C   UNL     1     -37.131  24.378   3.540  0.00  0.00    +0.169 C 
ATOM      4  C   UNL     1     -35.198  25.460   4.741  0.00  0.00    +0.196 C 
ATOM      5  C   UNL     1     -36.890  25.371   2.399  0.00  0.00    +0.176 C 
ATOM      6  C   UNL     1     -35.094  26.429   3.560  0.00  0.00    +0.266 C 
ENDROOT
BRANCH   2   7
ATOM      7  O   UNL     1     -36.073  23.332   5.452  0.00  0.00    -0.379 OA
ATOM      8  H   UNL     1     -35.440  22.598   5.472  0.00  0.00    +0.211 HD
ENDBRANCH   2   7
BRANCH   3   9
ATOM      9  O   UNL     1     -38.114  24.918   4.427  0.00  0.00    -0.379 OA
ATOM     10  H   UNL     1     -38.292  25.842   4.189  0.00  0.00    +0.211 HD
ENDBRANCH   3   9
BRANCH   4  11
ATOM     11  O   UNL     1     -33.884  25.211   5.241  0.00  0.00    -0.378 OA
ATOM     12  H   UNL     1     -33.912  25.154   6.208  0.00  0.00    +0.211 HD
ENDBRANCH   4  11
BRANCH   6  13
ATOM     13  O   UNL     1     -34.637  27.684   4.063  0.00  0.00    -0.327 OA
BRANCH  13  14
ATOM     14  C   UNL     1     -33.733  28.302   3.161  0.00  0.00    +0.167 C 
BRANCH  14  15
ATOM     15  C   UNL     1     -32.312  28.102   3.657  0.00  0.00    +0.134 C 
BRANCH  15  18
ATOM     16  O   UNL     1     -31.902  31.032   4.016  0.00  0.00    -0.269 OA
ATOM     17  O   UNL     1     -32.057  27.139   6.468  0.00  0.00    -0.269 OA
ATOM     18  N   UNL     1     -32.062  28.849   4.860  0.00  0.00    -0.220 N 
ATOM     19  C   UNL     1     -31.887  30.212   4.918  0.00  0.00    +0.255 C 
ATOM     20  C   UNL     1     -31.964  28.303   6.118  0.00  0.00    +0.255 C 
ATOM     21  C   UNL     1     -31.663  30.548   6.333  0.00  0.00    +0.063 C 
ATOM     22  C   UNL     1     -31.709  29.419   7.042  0.00  0.00    +0.063 C 
ENDBRANCH  15  18
ENDBRANCH  14  15
ENDBRANCH  13  14
ENDBRANCH   6  13
BRANCH   5  23
ATOM     23  C   UNL     1     -38.171  25.716   1.648  0.00  0.00    +0.169 C 
BRANCH  23  24
ATOM     24  O   UNL     1     -38.807  26.793   2.311  0.00  0.00    -0.379 OA
ATOM     25  H   UNL     1     -38.150  27.473   2.528  0.00  0.00    +0.211 HD
ENDBRANCH  23  24
ENDBRANCH   5  23
TORSDOF 9
ENDMDL
MODEL 7
REMARK VINA RESULT:      -5.6      1.632      3.443
REMARK  Name = 196017
REMARK  9 active torsions:
REMARK  status: ('A' for Active; 'I' for Inactive)
REMARK    1  A    between atoms: C_2  and  O_7
REMARK    2  A    between atoms: C_3  and  O_9
REMARK    3  A    between atoms: C_4  and  O_11
REMARK    4  A    between atoms: C_5  and  C_23
REMARK    5  A    between atoms: C_6  and  O_13
REMARK    6  A    between atoms: O_13  and  C_14
REMARK    7  A    between atoms: C_14  and  C_15
REMARK    8  A    between atoms: C_15  and  N_18
REMARK    9  A    between atoms: C_23  and  O_24
REMARK                            x       y       z     vdW  Elec       q    Type
REMARK                         _______ _______ _______ _____ _____    ______ ____
ROOT
ATOM      1  O   UNL     1     -36.458  26.488   2.809  0.00  0.00    -0.326 OA
ATOM      2  C   UNL     1     -36.009  24.024   4.207  0.00  0.00    +0.172 C 
ATOM      3  C   UNL     1     -37.275  24.275   3.389  0.00  0.00    +0.169 C 
ATOM      4  C   UNL     1     -35.387  25.339   4.675  0.00  0.00    +0.196 C 
ATOM      5  C   UNL     1     -36.976  25.268   2.260  0.00  0.00    +0.176 C 
ATOM      6  C   UNL     1     -35.223  26.309   3.501  0.00  0.00    +0.266 C 
ENDROOT
BRANCH   2   7
ATOM      7  O   UNL     1     -36.310  23.218   5.343  0.00  0.00    -0.379 OA
ATOM      8  H   UNL     1     -35.685  22.478   5.390  0.00  0.00    +0.211 HD
ENDBRANCH   2   7
BRANCH   3   9
ATOM      9  O   UNL     1     -38.291  24.822   4.233  0.00  0.00    -0.379 OA
ATOM     10  H   UNL     1     -38.831  24.103   4.597  0.00  0.00    +0.211 HD
ENDBRANCH   3   9
BRANCH   4  11
ATOM     11  O   UNL     1     -34.099  25.079   5.231  0.00  0.00    -0.378 OA
ATOM     12  H   UNL     1     -34.169  25.021   6.196  0.00  0.00    +0.211 HD
ENDBRANCH   4  11
BRANCH   6  13
ATOM     13  O   UNL     1     -34.779  27.560   4.026  0.00  0.00    -0.327 OA
BRANCH  13  14
ATOM     14  C   UNL     1     -33.876  28.198   3.138  0.00  0.00    +0.167 C 
BRANCH  14  15
ATOM     15  C   UNL     1     -32.451  27.937   3.593  0.00  0.00    +0.134 C 
BRANCH  15  18
ATOM     16  O   UNL     1     -32.322  27.095   6.449  0.00  0.00    -0.269 OA
ATOM     17  O   UNL     1     -31.710  30.818   3.811  0.00  0.00    -0.269 OA
ATOM     18  N   UNL     1     -32.119  28.710   4.760  0.00  0.00    -0.220 N 
ATOM     19  C   UNL     1     -32.087  28.221   6.045  0.00  0.00    +0.255 C 
ATOM     20  C   UNL     1     -31.787  30.044   4.750  0.00  0.00    +0.255 C 
ATOM     21  C   UNL     1     -31.701  29.344   6.913  0.00  0.00    +0.063 C 
ATOM     22  C   UNL     1     -31.523  30.422   6.147  0.00  0.00    +0.063 C 
ENDBRANCH  15  18
ENDBRANCH  14  15
ENDBRANCH  13  14
ENDBRANCH   6  13
BRANCH   5  23
ATOM     23  C   UNL     1     -38.220  25.625   1.455  0.00  0.00    +0.169 C 
BRANCH  23  24
ATOM     24  O   UNL     1     -38.927  26.642   2.141  0.00  0.00    -0.379 OA
ATOM     25  H   UNL     1     -38.304  27.325   2.439  0.00  0.00    +0.211 HD
ENDBRANCH  23  24
ENDBRANCH   5  23
TORSDOF 9
ENDMDL
MODEL 8
REMARK VINA RESULT:      -5.6      3.798      7.029
REMARK  Name = 196017
REMARK  9 active torsions:
REMARK  status: ('A' for Active; 'I' for Inactive)
REMARK    1  A    between atoms: C_2  and  O_7
REMARK    2  A    between atoms: C_3  and  O_9
REMARK    3  A    between atoms: C_4  and  O_11
REMARK    4  A    between atoms: C_5  and  C_23
REMARK    5  A    between atoms: C_6  and  O_13
REMARK    6  A    between atoms: O_13  and  C_14
REMARK    7  A    between atoms: C_14  and  C_15
REMARK    8  A    between atoms: C_15  and  N_18
REMARK    9  A    between atoms: C_23  and  O_24
REMARK                            x       y       z     vdW  Elec       q    Type
REMARK                         _______ _______ _______ _____ _____    ______ ____
ROOT
ATOM      1  O   UNL     1     -36.096  24.276   3.459  0.00  0.00    -0.326 OA
ATOM      2  C   UNL     1     -35.444  22.300   5.432  0.00  0.00    +0.172 C 
ATOM      3  C   UNL     1     -35.192  23.790   5.660  0.00  0.00    +0.169 C 
ATOM      4  C   UNL     1     -35.470  21.969   3.941  0.00  0.00    +0.196 C 
ATOM      5  C   UNL     1     -36.196  24.616   4.848  0.00  0.00    +0.176 C 
ATOM      6  C   UNL     1     -36.417  22.911   3.193  0.00  0.00    +0.266 C 
ENDROOT
BRANCH   2   7
ATOM      7  O   UNL     1     -34.427  21.528   6.065  0.00  0.00    -0.379 OA
ATOM      8  H   UNL     1     -34.302  20.698   5.580  0.00  0.00    +0.211 HD
ENDBRANCH   2   7
BRANCH   3   9
ATOM      9  O   UNL     1     -33.868  24.123   5.239  0.00  0.00    -0.379 OA
ATOM     10  H   UNL     1     -33.674  25.043   5.479  0.00  0.00    +0.211 HD
ENDBRANCH   3   9
BRANCH   4  11
ATOM     11  O   UNL     1     -35.931  20.629   3.765  0.00  0.00    -0.378 OA
ATOM     12  H   UNL     1     -35.619  20.290   2.912  0.00  0.00    +0.211 HD
ENDBRANCH   4  11
BRANCH   6  13
ATOM     13  O   UNL     1     -36.285  22.647   1.796  0.00  0.00    -0.327 OA
BRANCH  13  14
ATOM     14  C   UNL     1     -34.974  22.938   1.339  0.00  0.00    +0.167 C 
BRANCH  14  15
ATOM     15  C   UNL     1     -34.699  22.158   0.066  0.00  0.00    +0.134 C 
BRANCH  15  18
ATOM     16  O   UNL     1     -31.799  21.987  -0.600  0.00  0.00    -0.269 OA
ATOM     17  O   UNL     1     -35.155  19.496   1.331  0.00  0.00    -0.269 OA
ATOM     18  N   UNL     1     -33.771  21.084   0.295  0.00  0.00    -0.220 N 
ATOM     19  C   UNL     1     -32.440  21.106  -0.052  0.00  0.00    +0.255 C 
ATOM     20  C   UNL     1     -34.086  19.887   0.894  0.00  0.00    +0.255 C 
ATOM     21  C   UNL     1     -31.874  19.814   0.366  0.00  0.00    +0.063 C 
ATOM     22  C   UNL     1     -32.848  19.094   0.925  0.00  0.00    +0.063 C 
ENDBRANCH  15  18
ENDBRANCH  14  15
ENDBRANCH  13  14
ENDBRANCH   6  13
BRANCH   5  23
ATOM     23  C   UNL     1     -35.947  26.115   4.967  0.00  0.00    +0.169 C 
BRANCH  23  24
ATOM     24  O   UNL     1     -35.026  26.502   3.963  0.00  0.00    -0.379 OA
ATOM     25  H   UNL     1     -34.579  25.714   3.613  0.00  0.00    +0.211 HD
ENDBRANCH  23  24
ENDBRANCH   5  23
TORSDOF 9
ENDMDL
MODEL 9
REMARK VINA RESULT:      -5.6      3.695      7.050
REMARK  Name = 196017
REMARK  9 active torsions:
REMARK  status: ('A' for Active; 'I' for Inactive)
REMARK    1  A    between atoms: C_2  and  O_7
REMARK    2  A    between atoms: C_3  and  O_9
REMARK    3  A    between atoms: C_4  and  O_11
REMARK    4  A    between atoms: C_5  and  C_23
REMARK    5  A    between atoms: C_6  and  O_13
REMARK    6  A    between atoms: O_13  and  C_14
REMARK    7  A    between atoms: C_14  and  C_15
REMARK    8  A    between atoms: C_15  and  N_18
REMARK    9  A    between atoms: C_23  and  O_24
REMARK                            x       y       z     vdW  Elec       q    Type
REMARK                         _______ _______ _______ _____ _____    ______ ____
ROOT
ATOM      1  O   UNL     1     -36.617  23.429   4.251  0.00  0.00    -0.326 OA
ATOM      2  C   UNL     1     -35.494  26.006   3.683  0.00  0.00    +0.172 C 
ATOM      3  C   UNL     1     -35.360  25.345   5.055  0.00  0.00    +0.169 C 
ATOM      4  C   UNL     1     -36.720  25.481   2.939  0.00  0.00    +0.196 C 
ATOM      5  C   UNL     1     -35.401  23.820   4.903  0.00  0.00    +0.176 C 
ATOM      6  C   UNL     1     -36.735  23.951   2.928  0.00  0.00    +0.266 C 
ENDROOT
BRANCH   2   7
ATOM      7  O   UNL     1     -35.603  27.419   3.828  0.00  0.00    -0.379 OA
ATOM      8  H   UNL     1     -36.428  27.634   4.291  0.00  0.00    +0.211 HD
ENDBRANCH   2   7
BRANCH   3   9
ATOM      9  O   UNL     1     -36.440  25.758   5.895  0.00  0.00    -0.379 OA
ATOM     10  H   UNL     1     -37.278  25.435   5.527  0.00  0.00    +0.211 HD
ENDBRANCH   3   9
BRANCH   4  11
ATOM     11  O   UNL     1     -36.684  25.944   1.589  0.00  0.00    -0.378 OA
ATOM     12  H   UNL     1     -37.202  25.347   1.028  0.00  0.00    +0.211 HD
ENDBRANCH   4  11
BRANCH   6  13
ATOM     13  O   UNL     1     -37.970  23.528   2.351  0.00  0.00    -0.327 OA
BRANCH  13  14
ATOM     14  C   UNL     1     -37.755  22.637   1.269  0.00  0.00    +0.167 C 
BRANCH  14  15
ATOM     15  C   UNL     1     -37.677  21.214   1.795  0.00  0.00    +0.134 C 
BRANCH  15  18
ATOM     16  O   UNL     1     -35.340  20.592   3.536  0.00  0.00    -0.269 OA
ATOM     17  O   UNL     1     -36.712  20.207  -0.841  0.00  0.00    -0.269 OA
ATOM     18  N   UNL     1     -36.425  20.594   1.456  0.00  0.00    -0.220 N 
ATOM     19  C   UNL     1     -35.403  20.348   2.343  0.00  0.00    +0.255 C 
ATOM     20  C   UNL     1     -36.077  20.160   0.199  0.00  0.00    +0.255 C 
ATOM     21  C   UNL     1     -34.325  19.704   1.576  0.00  0.00    +0.063 C 
ATOM     22  C   UNL     1     -34.724  19.593   0.308  0.00  0.00    +0.063 C 
ENDBRANCH  15  18
ENDBRANCH  14  15
ENDBRANCH  13  14
ENDBRANCH   6  13
BRANCH   5  23
ATOM     23  C   UNL     1     -35.354  23.101   6.246  0.00  0.00    +0.169 C 
BRANCH  23  24
ATOM     24  O   UNL     1     -36.026  21.861   6.118  0.00  0.00    -0.379 OA
ATOM     25  H   UNL     1     -35.376  21.151   5.994  0.00  0.00    +0.211 HD
ENDBRANCH  23  24
ENDBRANCH   5  23
TORSDOF 9
ENDMDL
