MODEL 1
REMARK VINA RESULT:      -6.8      0.000      0.000
REMARK  Name = 192986
REMARK  3 active torsions:
REMARK  status: ('A' for Active; 'I' for Inactive)
REMARK    1  A    between atoms: N_3  and  C_20
REMARK    2  A    between atoms: C_20  and  C_22
REMARK    3  A    between atoms: C_22  and  O_23
REMARK                            x       y       z     vdW  Elec       q    Type
REMARK                         _______ _______ _______ _____ _____    ______ ____
ROOT
ATOM      1  O   UNL     1     -40.606  21.394   0.542  0.00  0.00    -0.266 OA
ATOM      2  O   UNL     1     -39.783  24.736   3.587  0.00  0.00    -0.193 OA
ATOM      3  N   UNL     1     -36.245  21.878   2.568  0.00  0.00    -0.247 N 
ATOM      4  N   UNL     1     -38.054  20.570   0.823  0.00  0.00    -0.396 NA
ATOM      5  N   UNL     1     -38.051  23.344   3.094  0.00  0.00    -0.303 NA
ATOM      6  N   UNL     1     -40.210  23.094   2.081  0.00  0.00    -0.196 N 
ATOM      7  C   UNL     1     -35.809  20.762   1.820  0.00  0.00    +0.080 C 
ATOM      8  C   UNL     1     -36.727  20.128   0.958  0.00  0.00    +0.127 C 
ATOM      9  C   UNL     1     -37.553  22.330   2.449  0.00  0.00    +0.236 C 
ATOM     10  C   UNL     1     -34.502  20.243   1.884  0.00  0.00    +0.012 C 
ATOM     11  C   UNL     1     -34.120  19.136   1.122  0.00  0.00    -0.028 C 
ATOM     12  C   UNL     1     -35.035  18.523   0.278  0.00  0.00    -0.041 C 
ATOM     13  C   UNL     1     -38.461  21.590   1.506  0.00  0.00    +0.230 C 
ATOM     14  C   UNL     1     -36.334  19.017   0.197  0.00  0.00    +0.082 C 
ATOM     15  C   UNL     1     -32.719  18.629   1.233  0.00  0.00    +0.030 C 
ATOM     16  C   UNL     1     -39.883  22.004   1.311  0.00  0.00    +0.293 C 
ATOM     17  C   UNL     1     -34.654  17.338  -0.547  0.00  0.00    +0.026 C 
ATOM     18  C   UNL     1     -39.356  23.769   2.954  0.00  0.00    +0.273 C 
ATOM     19  H   UNL     1     -41.133  23.429   2.011  0.00  0.00    +0.169 HD
ENDROOT
BRANCH   3  20
ATOM     20  C   UNL     1     -35.284  22.527   3.459  0.00  0.00    +0.208 C 
BRANCH  20  22
ATOM     21  O   UNL     1     -35.084  20.943   5.264  0.00  0.00    -0.248 OA
ATOM     22  C   UNL     1     -35.489  22.024   4.858  0.00  0.00    +0.335 C 
BRANCH  22  23
ATOM     23  O   UNL     1     -36.163  22.909   5.638  0.00  0.00    -0.479 OA
ATOM     24  H   UNL     1     -36.964  23.286   5.333  0.00  0.00    +0.295 HD
ENDBRANCH  22  23
ENDBRANCH  20  22
ENDBRANCH   3  20
TORSDOF 3
ENDMDL
MODEL 2
REMARK VINA RESULT:      -6.2      5.188      7.624
REMARK  Name = 192986
REMARK  3 active torsions:
REMARK  status: ('A' for Active; 'I' for Inactive)
REMARK    1  A    between atoms: N_3  and  C_20
REMARK    2  A    between atoms: C_20  and  C_22
REMARK    3  A    between atoms: C_22  and  O_23
REMARK                            x       y       z     vdW  Elec       q    Type
REMARK                         _______ _______ _______ _____ _____    ______ ____
ROOT
ATOM      1  O   UNL     1     -31.906  28.054   6.628  0.00  0.00    -0.266 OA
ATOM      2  O   UNL     1     -32.705  30.896   3.106  0.00  0.00    -0.193 OA
ATOM      3  N   UNL     1     -34.626  26.654   2.885  0.00  0.00    -0.247 N 
ATOM      4  N   UNL     1     -33.400  26.177   5.394  0.00  0.00    -0.396 NA
ATOM      5  N   UNL     1     -33.646  28.826   2.992  0.00  0.00    -0.303 NA
ATOM      6  N   UNL     1     -32.299  29.509   4.855  0.00  0.00    -0.196 N 
ATOM      7  C   UNL     1     -34.795  25.403   3.517  0.00  0.00    +0.080 C 
ATOM      8  C   UNL     1     -34.175  25.189   4.765  0.00  0.00    +0.127 C 
ATOM      9  C   UNL     1     -33.863  27.645   3.491  0.00  0.00    +0.236 C 
ATOM     10  C   UNL     1     -35.551  24.350   2.970  0.00  0.00    +0.012 C 
ATOM     11  C   UNL     1     -35.688  23.128   3.636  0.00  0.00    -0.028 C 
ATOM     12  C   UNL     1     -35.072  22.933   4.864  0.00  0.00    -0.041 C 
ATOM     13  C   UNL     1     -33.240  27.326   4.822  0.00  0.00    +0.230 C 
ATOM     14  C   UNL     1     -34.318  23.959   5.426  0.00  0.00    +0.082 C 
ATOM     15  C   UNL     1     -36.502  22.046   3.005  0.00  0.00    +0.030 C 
ATOM     16  C   UNL     1     -32.404  28.327   5.549  0.00  0.00    +0.293 C 
ATOM     17  C   UNL     1     -35.200  21.638   5.596  0.00  0.00    +0.026 C 
ATOM     18  C   UNL     1     -32.883  29.789   3.619  0.00  0.00    +0.273 C 
ATOM     19  H   UNL     1     -31.761  30.223   5.267  0.00  0.00    +0.169 HD
ENDROOT
BRANCH   3  20
ATOM     20  C   UNL     1     -35.273  26.865   1.591  0.00  0.00    +0.208 C 
BRANCH  20  22
ATOM     21  O   UNL     1     -37.650  26.995   1.965  0.00  0.00    -0.248 OA
ATOM     22  C   UNL     1     -36.582  27.569   1.801  0.00  0.00    +0.335 C 
BRANCH  22  23
ATOM     23  O   UNL     1     -36.454  28.921   1.806  0.00  0.00    -0.479 OA
ATOM     24  H   UNL     1     -37.179  29.459   2.053  0.00  0.00    +0.295 HD
ENDBRANCH  22  23
ENDBRANCH  20  22
ENDBRANCH   3  20
TORSDOF 3
ENDMDL
MODEL 3
REMARK VINA RESULT:      -6.2      4.682      7.572
REMARK  Name = 192986
REMARK  3 active torsions:
REMARK  status: ('A' for Active; 'I' for Inactive)
REMARK    1  A    between atoms: N_3  and  C_20
REMARK    2  A    between atoms: C_20  and  C_22
REMARK    3  A    between atoms: C_22  and  O_23
REMARK                            x       y       z     vdW  Elec       q    Type
REMARK                         _______ _______ _______ _____ _____    ______ ____
ROOT
ATOM      1  O   UNL     1     -35.420  22.710   6.342  0.00  0.00    -0.266 OA
ATOM      2  O   UNL     1     -37.738  22.356   2.389  0.00  0.00    -0.193 OA
ATOM      3  N   UNL     1     -35.068  26.136   2.950  0.00  0.00    -0.247 N 
ATOM      4  N   UNL     1     -34.404  25.057   5.484  0.00  0.00    -0.396 NA
ATOM      5  N   UNL     1     -36.436  24.204   2.657  0.00  0.00    -0.303 NA
ATOM      6  N   UNL     1     -36.602  22.511   4.347  0.00  0.00    -0.196 N 
ATOM      7  C   UNL     1     -34.181  26.837   3.796  0.00  0.00    +0.080 C 
ATOM      8  C   UNL     1     -33.866  26.280   5.052  0.00  0.00    +0.127 C 
ATOM      9  C   UNL     1     -35.612  24.924   3.359  0.00  0.00    +0.236 C 
ATOM     10  C   UNL     1     -33.591  28.068   3.456  0.00  0.00    +0.012 C 
ATOM     11  C   UNL     1     -32.718  28.723   4.329  0.00  0.00    -0.028 C 
ATOM     12  C   UNL     1     -32.416  28.162   5.562  0.00  0.00    -0.041 C 
ATOM     13  C   UNL     1     -35.217  24.408   4.715  0.00  0.00    +0.230 C 
ATOM     14  C   UNL     1     -32.989  26.945   5.922  0.00  0.00    +0.082 C 
ATOM     15  C   UNL     1     -32.121  30.029   3.914  0.00  0.00    +0.030 C 
ATOM     16  C   UNL     1     -35.749  23.115   5.240  0.00  0.00    +0.293 C 
ATOM     17  C   UNL     1     -31.489  28.841   6.515  0.00  0.00    +0.026 C 
ATOM     18  C   UNL     1     -36.958  23.004   3.091  0.00  0.00    +0.273 C 
ATOM     19  H   UNL     1     -36.998  21.652   4.619  0.00  0.00    +0.169 HD
ENDROOT
BRANCH   3  20
ATOM     20  C   UNL     1     -35.389  26.723   1.649  0.00  0.00    +0.208 C 
BRANCH  20  22
ATOM     21  O   UNL     1     -36.562  28.826   1.555  0.00  0.00    -0.248 OA
ATOM     22  C   UNL     1     -36.579  27.626   1.794  0.00  0.00    +0.335 C 
BRANCH  22  23
ATOM     23  O   UNL     1     -37.690  26.964   2.209  0.00  0.00    -0.479 OA
ATOM     24  H   UNL     1     -38.354  26.733   1.591  0.00  0.00    +0.295 HD
ENDBRANCH  22  23
ENDBRANCH  20  22
ENDBRANCH   3  20
TORSDOF 3
ENDMDL
MODEL 4
REMARK VINA RESULT:      -6.1      1.397      3.780
REMARK  Name = 192986
REMARK  3 active torsions:
REMARK  status: ('A' for Active; 'I' for Inactive)
REMARK    1  A    between atoms: N_3  and  C_20
REMARK    2  A    between atoms: C_20  and  C_22
REMARK    3  A    between atoms: C_22  and  O_23
REMARK                            x       y       z     vdW  Elec       q    Type
REMARK                         _______ _______ _______ _____ _____    ______ ____
ROOT
ATOM      1  O   UNL     1     -35.908  24.162   5.201  0.00  0.00    -0.266 OA
ATOM      2  O   UNL     1     -39.791  25.724   3.303  0.00  0.00    -0.193 OA
ATOM      3  N   UNL     1     -37.713  22.112   1.213  0.00  0.00    -0.247 N 
ATOM      4  N   UNL     1     -35.759  22.300   3.256  0.00  0.00    -0.396 NA
ATOM      5  N   UNL     1     -38.782  23.960   2.278  0.00  0.00    -0.303 NA
ATOM      6  N   UNL     1     -37.876  24.968   4.256  0.00  0.00    -0.196 N 
ATOM      7  C   UNL     1     -36.626  21.211   1.223  0.00  0.00    +0.080 C 
ATOM      8  C   UNL     1     -35.666  21.324   2.249  0.00  0.00    +0.127 C 
ATOM      9  C   UNL     1     -37.823  23.085   2.199  0.00  0.00    +0.236 C 
ATOM     10  C   UNL     1     -36.444  20.200   0.261  0.00  0.00    +0.012 C 
ATOM     11  C   UNL     1     -35.350  19.332   0.316  0.00  0.00    -0.028 C 
ATOM     12  C   UNL     1     -34.414  19.456   1.333  0.00  0.00    -0.041 C 
ATOM     13  C   UNL     1     -36.751  23.130   3.253  0.00  0.00    +0.230 C 
ATOM     14  C   UNL     1     -34.571  20.448   2.295  0.00  0.00    +0.082 C 
ATOM     15  C   UNL     1     -35.209  18.278  -0.734  0.00  0.00    +0.030 C 
ATOM     16  C   UNL     1     -36.784  24.139   4.354  0.00  0.00    +0.293 C 
ATOM     17  C   UNL     1     -33.234  18.543   1.413  0.00  0.00    +0.026 C 
ATOM     18  C   UNL     1     -38.862  24.914   3.270  0.00  0.00    +0.273 C 
ATOM     19  H   UNL     1     -37.970  25.665   4.945  0.00  0.00    +0.169 HD
ENDROOT
BRANCH   3  20
ATOM     20  C   UNL     1     -38.703  21.986   0.144  0.00  0.00    +0.208 C 
BRANCH  20  22
ATOM     21  O   UNL     1     -40.221  20.149  -0.212  0.00  0.00    -0.248 OA
ATOM     22  C   UNL     1     -39.742  20.980   0.547  0.00  0.00    +0.335 C 
BRANCH  22  23
ATOM     23  O   UNL     1     -40.085  21.080   1.857  0.00  0.00    -0.479 OA
ATOM     24  H   UNL     1     -39.578  21.615   2.434  0.00  0.00    +0.295 HD
ENDBRANCH  22  23
ENDBRANCH  20  22
ENDBRANCH   3  20
TORSDOF 3
ENDMDL
MODEL 5
REMARK VINA RESULT:      -6.0      4.756      7.926
REMARK  Name = 192986
REMARK  3 active torsions:
REMARK  status: ('A' for Active; 'I' for Inactive)
REMARK    1  A    between atoms: N_3  and  C_20
REMARK    2  A    between atoms: C_20  and  C_22
REMARK    3  A    between atoms: C_22  and  O_23
REMARK                            x       y       z     vdW  Elec       q    Type
REMARK                         _______ _______ _______ _____ _____    ______ ____
ROOT
ATOM      1  O   UNL     1     -33.310  26.409   5.804  0.00  0.00    -0.266 OA
ATOM      2  O   UNL     1     -36.107  22.763   5.894  0.00  0.00    -0.193 OA
ATOM      3  N   UNL     1     -36.951  26.003   2.651  0.00  0.00    -0.247 N 
ATOM      4  N   UNL     1     -34.725  27.387   3.726  0.00  0.00    -0.396 NA
ATOM      5  N   UNL     1     -36.524  24.341   4.308  0.00  0.00    -0.303 NA
ATOM      6  N   UNL     1     -34.715  24.554   5.867  0.00  0.00    -0.196 N 
ATOM      7  C   UNL     1     -36.562  27.240   2.091  0.00  0.00    +0.080 C 
ATOM      8  C   UNL     1     -35.451  27.910   2.644  0.00  0.00    +0.127 C 
ATOM      9  C   UNL     1     -36.246  25.469   3.723  0.00  0.00    +0.236 C 
ATOM     10  C   UNL     1     -37.223  27.847   1.008  0.00  0.00    +0.012 C 
ATOM     11  C   UNL     1     -36.798  29.073   0.489  0.00  0.00    -0.028 C 
ATOM     12  C   UNL     1     -35.702  29.720   1.044  0.00  0.00    -0.041 C 
ATOM     13  C   UNL     1     -35.075  26.255   4.245  0.00  0.00    +0.230 C 
ATOM     14  C   UNL     1     -35.032  29.141   2.117  0.00  0.00    +0.082 C 
ATOM     15  C   UNL     1     -37.540  29.670  -0.662  0.00  0.00    +0.030 C 
ATOM     16  C   UNL     1     -34.257  25.761   5.393  0.00  0.00    +0.293 C 
ATOM     17  C   UNL     1     -35.228  31.032   0.511  0.00  0.00    +0.026 C 
ATOM     18  C   UNL     1     -35.804  23.838   5.371  0.00  0.00    +0.273 C 
ATOM     19  H   UNL     1     -34.228  24.160   6.627  0.00  0.00    +0.169 HD
ENDROOT
BRANCH   3  20
ATOM     20  C   UNL     1     -38.105  25.317   2.071  0.00  0.00    +0.208 C 
BRANCH  20  22
ATOM     21  O   UNL     1     -40.076  26.593   2.614  0.00  0.00    -0.248 OA
ATOM     22  C   UNL     1     -39.332  25.654   2.866  0.00  0.00    +0.335 C 
BRANCH  22  23
ATOM     23  O   UNL     1     -39.542  24.792   3.894  0.00  0.00    -0.479 OA
ATOM     24  H   UNL     1     -39.248  23.906   3.829  0.00  0.00    +0.295 HD
ENDBRANCH  22  23
ENDBRANCH  20  22
ENDBRANCH   3  20
TORSDOF 3
ENDMDL
MODEL 6
REMARK VINA RESULT:      -5.9      2.534      7.015
REMARK  Name = 192986
REMARK  3 active torsions:
REMARK  status: ('A' for Active; 'I' for Inactive)
REMARK    1  A    between atoms: N_3  and  C_20
REMARK    2  A    between atoms: C_20  and  C_22
REMARK    3  A    between atoms: C_22  and  O_23
REMARK                            x       y       z     vdW  Elec       q    Type
REMARK                         _______ _______ _______ _____ _____    ______ ____
ROOT
ATOM      1  O   UNL     1     -36.170  23.890   5.251  0.00  0.00    -0.266 OA
ATOM      2  O   UNL     1     -34.931  20.641   2.245  0.00  0.00    -0.193 OA
ATOM      3  N   UNL     1     -38.839  23.008   1.318  0.00  0.00    -0.247 N 
ATOM      4  N   UNL     1     -38.326  24.421   3.720  0.00  0.00    -0.396 NA
ATOM      5  N   UNL     1     -36.840  21.793   1.787  0.00  0.00    -0.303 NA
ATOM      6  N   UNL     1     -35.525  22.240   3.741  0.00  0.00    -0.196 N 
ATOM      7  C   UNL     1     -39.730  24.021   1.735  0.00  0.00    +0.080 C 
ATOM      8  C   UNL     1     -39.454  24.710   2.934  0.00  0.00    +0.127 C 
ATOM      9  C   UNL     1     -37.718  22.706   2.082  0.00  0.00    +0.236 C 
ATOM     10  C   UNL     1     -40.885  24.384   1.019  0.00  0.00    +0.012 C 
ATOM     11  C   UNL     1     -41.736  25.396   1.475  0.00  0.00    -0.028 C 
ATOM     12  C   UNL     1     -41.450  26.065   2.656  0.00  0.00    -0.041 C 
ATOM     13  C   UNL     1     -37.505  23.494   3.346  0.00  0.00    +0.230 C 
ATOM     14  C   UNL     1     -40.314  25.723   3.383  0.00  0.00    +0.082 C 
ATOM     15  C   UNL     1     -42.949  25.737   0.672  0.00  0.00    +0.030 C 
ATOM     16  C   UNL     1     -36.329  23.242   4.230  0.00  0.00    +0.293 C 
ATOM     17  C   UNL     1     -42.343  27.148   3.166  0.00  0.00    +0.026 C 
ATOM     18  C   UNL     1     -35.736  21.518   2.567  0.00  0.00    +0.273 C 
ATOM     19  H   UNL     1     -34.726  22.012   4.269  0.00  0.00    +0.169 HD
ENDROOT
BRANCH   3  20
ATOM     20  C   UNL     1     -39.135  22.299   0.074  0.00  0.00    +0.208 C 
BRANCH  20  22
ATOM     21  O   UNL     1     -40.953  20.844   0.696  0.00  0.00    -0.248 OA
ATOM     22  C   UNL     1     -39.774  20.979   0.397  0.00  0.00    +0.335 C 
BRANCH  22  23
ATOM     23  O   UNL     1     -38.904  19.941   0.305  0.00  0.00    -0.479 OA
ATOM     24  H   UNL     1     -39.195  19.115  -0.025  0.00  0.00    +0.295 HD
ENDBRANCH  22  23
ENDBRANCH  20  22
ENDBRANCH   3  20
TORSDOF 3
ENDMDL
MODEL 7
REMARK VINA RESULT:      -5.8      9.570     11.557
REMARK  Name = 192986
REMARK  3 active torsions:
REMARK  status: ('A' for Active; 'I' for Inactive)
REMARK    1  A    between atoms: N_3  and  C_20
REMARK    2  A    between atoms: C_20  and  C_22
REMARK    3  A    between atoms: C_22  and  O_23
REMARK                            x       y       z     vdW  Elec       q    Type
REMARK                         _______ _______ _______ _____ _____    ______ ____
ROOT
ATOM      1  O   UNL     1     -47.136  28.143   8.969  0.00  0.00    -0.266 OA
ATOM      2  O   UNL     1     -43.978  31.207   7.642  0.00  0.00    -0.193 OA
ATOM      3  N   UNL     1     -44.912  27.714   4.699  0.00  0.00    -0.247 N 
ATOM      4  N   UNL     1     -46.764  26.821   6.648  0.00  0.00    -0.396 NA
ATOM      5  N   UNL     1     -44.429  29.504   6.201  0.00  0.00    -0.303 NA
ATOM      6  N   UNL     1     -45.540  29.706   8.316  0.00  0.00    -0.196 N 
ATOM      7  C   UNL     1     -45.667  26.546   4.459  0.00  0.00    +0.080 C 
ATOM      8  C   UNL     1     -46.583  26.121   5.444  0.00  0.00    +0.127 C 
ATOM      9  C   UNL     1     -45.076  28.421   5.885  0.00  0.00    +0.236 C 
ATOM     10  C   UNL     1     -45.558  25.776   3.287  0.00  0.00    +0.012 C 
ATOM     11  C   UNL     1     -46.330  24.626   3.096  0.00  0.00    -0.028 C 
ATOM     12  C   UNL     1     -47.228  24.221   4.075  0.00  0.00    -0.041 C 
ATOM     13  C   UNL     1     -46.075  27.892   6.876  0.00  0.00    +0.230 C 
ATOM     14  C   UNL     1     -47.353  24.966   5.243  0.00  0.00    +0.082 C 
ATOM     15  C   UNL     1     -46.171  23.847   1.831  0.00  0.00    +0.030 C 
ATOM     16  C   UNL     1     -46.322  28.584   8.176  0.00  0.00    +0.293 C 
ATOM     17  C   UNL     1     -48.063  22.996   3.898  0.00  0.00    +0.026 C 
ATOM     18  C   UNL     1     -44.615  30.183   7.387  0.00  0.00    +0.273 C 
ATOM     19  H   UNL     1     -45.642  30.219   9.150  0.00  0.00    +0.169 HD
ENDROOT
BRANCH   3  20
ATOM     20  C   UNL     1     -43.964  28.146   3.672  0.00  0.00    +0.208 C 
BRANCH  20  22
ATOM     21  O   UNL     1     -42.103  26.634   3.911  0.00  0.00    -0.248 OA
ATOM     22  C   UNL     1     -42.576  27.750   4.082  0.00  0.00    +0.335 C 
BRANCH  22  23
ATOM     23  O   UNL     1     -41.888  28.771   4.653  0.00  0.00    -0.479 OA
ATOM     24  H   UNL     1     -42.350  29.495   5.027  0.00  0.00    +0.295 HD
ENDBRANCH  22  23
ENDBRANCH  20  22
ENDBRANCH   3  20
TORSDOF 3
ENDMDL
MODEL 8
REMARK VINA RESULT:      -5.7     11.101     15.442
REMARK  Name = 192986
REMARK  3 active torsions:
REMARK  status: ('A' for Active; 'I' for Inactive)
REMARK    1  A    between atoms: N_3  and  C_20
REMARK    2  A    between atoms: C_20  and  C_22
REMARK    3  A    between atoms: C_22  and  O_23
REMARK                            x       y       z     vdW  Elec       q    Type
REMARK                         _______ _______ _______ _____ _____    ______ ____
ROOT
ATOM      1  O   UNL     1     -45.326  28.099   6.867  0.00  0.00    -0.266 OA
ATOM      2  O   UNL     1     -43.134  28.692   2.872  0.00  0.00    -0.193 OA
ATOM      3  N   UNL     1     -45.527  32.329   4.537  0.00  0.00    -0.247 N 
ATOM      4  N   UNL     1     -46.204  30.645   6.712  0.00  0.00    -0.396 NA
ATOM      5  N   UNL     1     -44.300  30.472   3.680  0.00  0.00    -0.303 NA
ATOM      6  N   UNL     1     -44.208  28.379   4.846  0.00  0.00    -0.196 N 
ATOM      7  C   UNL     1     -46.346  32.826   5.574  0.00  0.00    +0.080 C 
ATOM      8  C   UNL     1     -46.669  31.969   6.646  0.00  0.00    +0.127 C 
ATOM      9  C   UNL     1     -45.057  31.023   4.583  0.00  0.00    +0.236 C 
ATOM     10  C   UNL     1     -46.862  34.135   5.601  0.00  0.00    +0.012 C 
ATOM     11  C   UNL     1     -47.669  34.578   6.653  0.00  0.00    -0.028 C 
ATOM     12  C   UNL     1     -47.978  33.723   7.701  0.00  0.00    -0.041 C 
ATOM     13  C   UNL     1     -45.454  30.183   5.765  0.00  0.00    +0.230 C 
ATOM     14  C   UNL     1     -47.480  32.423   7.697  0.00  0.00    +0.082 C 
ATOM     15  C   UNL     1     -48.189  35.979   6.626  0.00  0.00    +0.030 C 
ATOM     16  C   UNL     1     -44.996  28.768   5.903  0.00  0.00    +0.293 C 
ATOM     17  C   UNL     1     -48.839  34.170   8.836  0.00  0.00    +0.026 C 
ATOM     18  C   UNL     1     -43.850  29.171   3.754  0.00  0.00    +0.273 C 
ATOM     19  H   UNL     1     -43.866  27.456   4.860  0.00  0.00    +0.169 HD
ENDROOT
BRANCH   3  20
ATOM     20  C   UNL     1     -45.198  33.227   3.430  0.00  0.00    +0.208 C 
BRANCH  20  22
ATOM     21  O   UNL     1     -43.321  34.081   4.677  0.00  0.00    -0.248 OA
ATOM     22  C   UNL     1     -43.796  33.733   3.604  0.00  0.00    +0.335 C 
BRANCH  22  23
ATOM     23  O   UNL     1     -43.098  33.751   2.439  0.00  0.00    -0.479 OA
ATOM     24  H   UNL     1     -43.551  33.692   1.621  0.00  0.00    +0.295 HD
ENDBRANCH  22  23
ENDBRANCH  20  22
ENDBRANCH   3  20
TORSDOF 3
ENDMDL
MODEL 9
REMARK VINA RESULT:      -5.6      7.286      9.568
REMARK  Name = 192986
REMARK  3 active torsions:
REMARK  status: ('A' for Active; 'I' for Inactive)
REMARK    1  A    between atoms: N_3  and  C_20
REMARK    2  A    between atoms: C_20  and  C_22
REMARK    3  A    between atoms: C_22  and  O_23
REMARK                            x       y       z     vdW  Elec       q    Type
REMARK                         _______ _______ _______ _____ _____    ______ ____
ROOT
ATOM      1  O   UNL     1     -36.707  26.826   2.345  0.00  0.00    -0.266 OA
ATOM      2  O   UNL     1     -34.063  24.047   4.875  0.00  0.00    -0.193 OA
ATOM      3  N   UNL     1     -32.563  28.417   4.258  0.00  0.00    -0.247 N 
ATOM      4  N   UNL     1     -34.914  28.805   2.725  0.00  0.00    -0.396 NA
ATOM      5  N   UNL     1     -33.325  26.179   4.577  0.00  0.00    -0.303 NA
ATOM      6  N   UNL     1     -35.383  25.402   3.623  0.00  0.00    -0.196 N 
ATOM      7  C   UNL     1     -32.814  29.677   3.673  0.00  0.00    +0.080 C 
ATOM      8  C   UNL     1     -33.991  29.846   2.914  0.00  0.00    +0.127 C 
ATOM      9  C   UNL     1     -33.464  27.374   4.083  0.00  0.00    +0.236 C 
ATOM     10  C   UNL     1     -31.952  30.782   3.802  0.00  0.00    +0.012 C 
ATOM     11  C   UNL     1     -32.246  32.010   3.203  0.00  0.00    -0.028 C 
ATOM     12  C   UNL     1     -33.408  32.160   2.460  0.00  0.00    -0.041 C 
ATOM     13  C   UNL     1     -34.692  27.647   3.258  0.00  0.00    +0.230 C 
ATOM     14  C   UNL     1     -34.277  31.083   2.316  0.00  0.00    +0.082 C 
ATOM     15  C   UNL     1     -31.292  33.147   3.375  0.00  0.00    +0.030 C 
ATOM     16  C   UNL     1     -35.717  26.589   3.015  0.00  0.00    +0.293 C 
ATOM     17  C   UNL     1     -33.746  33.461   1.807  0.00  0.00    +0.026 C 
ATOM     18  C   UNL     1     -34.238  25.164   4.385  0.00  0.00    +0.273 C 
ATOM     19  H   UNL     1     -36.009  24.651   3.510  0.00  0.00    +0.169 HD
ENDROOT
BRANCH   3  20
ATOM     20  C   UNL     1     -31.340  28.253   5.042  0.00  0.00    +0.208 C 
BRANCH  20  22
ATOM     21  O   UNL     1     -31.812  29.414   7.100  0.00  0.00    -0.248 OA
ATOM     22  C   UNL     1     -31.671  28.356   6.503  0.00  0.00    +0.335 C 
BRANCH  22  23
ATOM     23  O   UNL     1     -31.813  27.141   7.093  0.00  0.00    -0.479 OA
ATOM     24  H   UNL     1     -31.485  27.001   7.959  0.00  0.00    +0.295 HD
ENDBRANCH  22  23
ENDBRANCH  20  22
ENDBRANCH   3  20
TORSDOF 3
ENDMDL
