MODEL 1
REMARK VINA RESULT:      -6.2      0.000      0.000
REMARK  Name = 54612739
REMARK  5 active torsions:
REMARK  status: ('A' for Active; 'I' for Inactive)
REMARK    1  A    between atoms: C_4  and  O_21
REMARK    2  A    between atoms: C_5  and  O_23
REMARK    3  A    between atoms: C_7  and  O_25
REMARK    4  A    between atoms: C_13  and  O_27
REMARK    5  A    between atoms: C_18  and  C_29
REMARK                            x       y       z     vdW  Elec       q    Type
REMARK                         _______ _______ _______ _____ _____    ______ ____
ROOT
ATOM      1  O   UNL     1     -38.580  24.049   0.111  0.00  0.00    -0.327 OA
ATOM      2  O   UNL     1     -39.814  23.988   3.186  0.00  0.00    -0.286 OA
ATOM      3  C   UNL     1     -37.971  21.740   0.305  0.00  0.00    +0.083 C 
ATOM      4  C   UNL     1     -39.535  21.891   0.350  0.00  0.00    +0.146 C 
ATOM      5  C   UNL     1     -37.343  21.672   1.790  0.00  0.00    +0.138 C 
ATOM      6  C   UNL     1     -40.315  21.596  -1.010  0.00  0.00    +0.028 C 
ATOM      7  C   UNL     1     -39.587  23.340   0.858  0.00  0.00    +0.264 C 
ATOM      8  C   UNL     1     -37.509  20.537  -0.537  0.00  0.00    +0.008 C 
ATOM      9  C   UNL     1     -37.582  23.098  -0.319  0.00  0.00    +0.150 C 
ATOM     10  C   UNL     1     -39.759  20.292  -1.633  0.00  0.00    +0.002 C 
ATOM     11  C   UNL     1     -37.796  22.858   2.626  0.00  0.00    +0.040 C 
ATOM     12  C   UNL     1     -38.255  20.333  -1.848  0.00  0.00    +0.000 C 
ATOM     13  C   UNL     1     -35.786  21.565   1.839  0.00  0.00    +0.140 C 
ATOM     14  C   UNL     1     -39.134  23.446   2.318  0.00  0.00    +0.224 C 
ATOM     15  C   UNL     1     -41.829  21.337  -0.757  0.00  0.00    +0.003 C 
ATOM     16  C   UNL     1     -40.267  22.717  -2.077  0.00  0.00    +0.003 C 
ATOM     17  C   UNL     1     -35.254  21.730   3.273  0.00  0.00    +0.040 C 
ATOM     18  C   UNL     1     -35.629  23.092   3.895  0.00  0.00    +0.039 C 
ATOM     19  C   UNL     1     -37.043  23.495   3.539  0.00  0.00    -0.022 C 
ATOM     20  C   UNL     1     -34.681  24.191   3.381  0.00  0.00    +0.009 C 
ENDROOT
BRANCH   4  21
ATOM     21  O   UNL     1     -40.083  20.999   1.325  0.00  0.00    -0.381 OA
ATOM     22  H   UNL     1     -41.051  21.024   1.280  0.00  0.00    +0.210 HD
ENDBRANCH   4  21
BRANCH   5  23
ATOM     23  O   UNL     1     -37.812  20.482   2.454  0.00  0.00    -0.380 OA
ATOM     24  H   UNL     1     -37.594  20.531   3.398  0.00  0.00    +0.211 HD
ENDBRANCH   5  23
BRANCH   7  25
ATOM     25  O   UNL     1     -40.857  23.944   0.751  0.00  0.00    -0.356 OA
ATOM     26  H   UNL     1     -40.754  24.868   0.473  0.00  0.00    +0.213 HD
ENDBRANCH   7  25
BRANCH  13  27
ATOM     27  O   UNL     1     -35.331  20.295   1.370  0.00  0.00    -0.382 OA
ATOM     28  H   UNL     1     -36.087  19.778   1.052  0.00  0.00    +0.210 HD
ENDBRANCH  13  27
BRANCH  18  29
ATOM     29  C   UNL     1     -35.476  22.985   5.391  0.00  0.00    -0.023 C 
ATOM     30  C   UNL     1     -35.254  21.838   6.042  0.00  0.00    -0.005 C 
ENDBRANCH  18  29
TORSDOF 5
ENDMDL
MODEL 2
REMARK VINA RESULT:      -6.1      2.081      4.074
REMARK  Name = 54612739
REMARK  5 active torsions:
REMARK  status: ('A' for Active; 'I' for Inactive)
REMARK    1  A    between atoms: C_4  and  O_21
REMARK    2  A    between atoms: C_5  and  O_23
REMARK    3  A    between atoms: C_7  and  O_25
REMARK    4  A    between atoms: C_13  and  O_27
REMARK    5  A    between atoms: C_18  and  C_29
REMARK                            x       y       z     vdW  Elec       q    Type
REMARK                         _______ _______ _______ _____ _____    ______ ____
ROOT
ATOM      1  O   UNL     1     -37.842  21.990   2.698  0.00  0.00    -0.327 OA
ATOM      2  O   UNL     1     -35.187  21.000   4.416  0.00  0.00    -0.286 OA
ATOM      3  C   UNL     1     -36.426  23.235   1.219  0.00  0.00    +0.083 C 
ATOM      4  C   UNL     1     -36.133  21.696   1.079  0.00  0.00    +0.146 C 
ATOM      5  C   UNL     1     -35.395  23.940   2.240  0.00  0.00    +0.138 C 
ATOM      6  C   UNL     1     -36.815  20.955  -0.157  0.00  0.00    +0.028 C 
ATOM      7  C   UNL     1     -36.617  21.268   2.474  0.00  0.00    +0.264 C 
ATOM      8  C   UNL     1     -36.439  23.968  -0.134  0.00  0.00    +0.008 C 
ATOM      9  C   UNL     1     -37.814  23.190   1.895  0.00  0.00    +0.150 C 
ATOM     10  C   UNL     1     -36.620  21.819  -1.428  0.00  0.00    +0.002 C 
ATOM     11  C   UNL     1     -35.378  23.220   3.579  0.00  0.00    +0.040 C 
ATOM     12  C   UNL     1     -37.146  23.236  -1.266  0.00  0.00    +0.000 C 
ATOM     13  C   UNL     1     -35.642  25.464   2.473  0.00  0.00    +0.140 C 
ATOM     14  C   UNL     1     -35.671  21.755   3.576  0.00  0.00    +0.224 C 
ATOM     15  C   UNL     1     -36.126  19.592  -0.459  0.00  0.00    +0.003 C 
ATOM     16  C   UNL     1     -38.319  20.625  -0.007  0.00  0.00    +0.003 C 
ATOM     17  C   UNL     1     -34.769  26.009   3.617  0.00  0.00    +0.040 C 
ATOM     18  C   UNL     1     -35.040  25.302   4.962  0.00  0.00    +0.039 C 
ATOM     19  C   UNL     1     -35.239  23.813   4.777  0.00  0.00    -0.022 C 
ATOM     20  C   UNL     1     -36.313  25.871   5.616  0.00  0.00    +0.009 C 
ENDROOT
BRANCH   4  21
ATOM     21  O   UNL     1     -34.725  21.478   0.949  0.00  0.00    -0.381 OA
ATOM     22  H   UNL     1     -34.397  21.007   1.731  0.00  0.00    +0.210 HD
ENDBRANCH   4  21
BRANCH   5  23
ATOM     23  O   UNL     1     -34.061  23.863   1.702  0.00  0.00    -0.380 OA
ATOM     24  H   UNL     1     -33.526  24.590   2.057  0.00  0.00    +0.211 HD
ENDBRANCH   5  23
BRANCH   7  25
ATOM     25  O   UNL     1     -36.781  19.875   2.625  0.00  0.00    -0.356 OA
ATOM     26  H   UNL     1     -36.911  19.468   1.754  0.00  0.00    +0.213 HD
ENDBRANCH   7  25
BRANCH  13  27
ATOM     27  O   UNL     1     -35.328  26.231   1.310  0.00  0.00    -0.382 OA
ATOM     28  H   UNL     1     -34.368  26.228   1.169  0.00  0.00    +0.210 HD
ENDBRANCH  13  27
BRANCH  18  29
ATOM     29  C   UNL     1     -33.870  25.563   5.877  0.00  0.00    -0.023 C 
ATOM     30  C   UNL     1     -33.312  26.766   6.055  0.00  0.00    -0.005 C 
ENDBRANCH  18  29
TORSDOF 5
ENDMDL
MODEL 3
REMARK VINA RESULT:      -6.1      2.224      5.756
REMARK  Name = 54612739
REMARK  5 active torsions:
REMARK  status: ('A' for Active; 'I' for Inactive)
REMARK    1  A    between atoms: C_4  and  O_21
REMARK    2  A    between atoms: C_5  and  O_23
REMARK    3  A    between atoms: C_7  and  O_25
REMARK    4  A    between atoms: C_13  and  O_27
REMARK    5  A    between atoms: C_18  and  C_29
REMARK                            x       y       z     vdW  Elec       q    Type
REMARK                         _______ _______ _______ _____ _____    ______ ____
ROOT
ATOM      1  O   UNL     1     -37.719  22.350   0.358  0.00  0.00    -0.327 OA
ATOM      2  O   UNL     1     -40.259  21.507   2.312  0.00  0.00    -0.286 OA
ATOM      3  C   UNL     1     -37.293  24.266   1.732  0.00  0.00    +0.083 C 
ATOM      4  C   UNL     1     -37.037  22.948   2.550  0.00  0.00    +0.146 C 
ATOM      5  C   UNL     1     -38.778  24.842   1.992  0.00  0.00    +0.138 C 
ATOM      6  C   UNL     1     -35.518  22.483   2.685  0.00  0.00    +0.028 C 
ATOM      7  C   UNL     1     -37.958  22.022   1.740  0.00  0.00    +0.264 C 
ATOM      8  C   UNL     1     -36.234  25.351   1.997  0.00  0.00    +0.008 C 
ATOM      9  C   UNL     1     -37.240  23.711   0.292  0.00  0.00    +0.150 C 
ATOM     10  C   UNL     1     -34.649  23.710   3.054  0.00  0.00    +0.002 C 
ATOM     11  C   UNL     1     -39.828  23.774   1.731  0.00  0.00    +0.040 C 
ATOM     12  C   UNL     1     -34.796  24.857   2.067  0.00  0.00    +0.000 C 
ATOM     13  C   UNL     1     -39.133  26.129   1.183  0.00  0.00    +0.140 C 
ATOM     14  C   UNL     1     -39.436  22.352   1.968  0.00  0.00    +0.224 C 
ATOM     15  C   UNL     1     -35.332  21.464   3.848  0.00  0.00    +0.003 C 
ATOM     16  C   UNL     1     -34.904  21.794   1.442  0.00  0.00    +0.003 C 
ATOM     17  C   UNL     1     -40.624  26.484   1.313  0.00  0.00    +0.040 C 
ATOM     18  C   UNL     1     -41.551  25.362   0.798  0.00  0.00    +0.039 C 
ATOM     19  C   UNL     1     -41.039  23.994   1.192  0.00  0.00    -0.022 C 
ATOM     20  C   UNL     1     -41.639  25.408  -0.739  0.00  0.00    +0.009 C 
ENDROOT
BRANCH   4  21
ATOM     21  O   UNL     1     -37.528  23.100   3.885  0.00  0.00    -0.381 OA
ATOM     22  H   UNL     1     -37.483  24.034   4.142  0.00  0.00    +0.210 HD
ENDBRANCH   4  21
BRANCH   5  23
ATOM     23  O   UNL     1     -38.904  25.231   3.374  0.00  0.00    -0.380 OA
ATOM     24  H   UNL     1     -38.247  25.915   3.579  0.00  0.00    +0.211 HD
ENDBRANCH   5  23
BRANCH   7  25
ATOM     25  O   UNL     1     -37.772  20.649   2.004  0.00  0.00    -0.356 OA
ATOM     26  H   UNL     1     -37.119  20.541   2.712  0.00  0.00    +0.213 HD
ENDBRANCH   7  25
BRANCH  13  27
ATOM     27  O   UNL     1     -38.395  27.261   1.646  0.00  0.00    -0.382 OA
ATOM     28  H   UNL     1     -38.597  28.029   1.088  0.00  0.00    +0.210 HD
ENDBRANCH  13  27
BRANCH  18  29
ATOM     29  C   UNL     1     -42.929  25.589   1.366  0.00  0.00    -0.023 C 
ATOM     30  C   UNL     1     -43.179  26.338   2.446  0.00  0.00    -0.005 C 
ENDBRANCH  18  29
TORSDOF 5
ENDMDL
MODEL 4
REMARK VINA RESULT:      -6.0      4.487      7.026
REMARK  Name = 54612739
REMARK  5 active torsions:
REMARK  status: ('A' for Active; 'I' for Inactive)
REMARK    1  A    between atoms: C_4  and  O_21
REMARK    2  A    between atoms: C_5  and  O_23
REMARK    3  A    between atoms: C_7  and  O_25
REMARK    4  A    between atoms: C_13  and  O_27
REMARK    5  A    between atoms: C_18  and  C_29
REMARK                            x       y       z     vdW  Elec       q    Type
REMARK                         _______ _______ _______ _____ _____    ______ ____
ROOT
ATOM      1  O   UNL     1     -33.916  25.997   0.361  0.00  0.00    -0.327 OA
ATOM      2  O   UNL     1     -31.916  25.871   3.000  0.00  0.00    -0.286 OA
ATOM      3  C   UNL     1     -35.530  27.224   1.638  0.00  0.00    +0.083 C 
ATOM      4  C   UNL     1     -34.220  28.075   1.466  0.00  0.00    +0.146 C 
ATOM      5  C   UNL     1     -35.537  26.429   3.042  0.00  0.00    +0.138 C 
ATOM      6  C   UNL     1     -34.242  29.187   0.324  0.00  0.00    +0.028 C 
ATOM      7  C   UNL     1     -33.243  26.906   1.253  0.00  0.00    +0.264 C 
ATOM      8  C   UNL     1     -36.813  28.060   1.480  0.00  0.00    +0.008 C 
ATOM      9  C   UNL     1     -35.340  26.193   0.504  0.00  0.00    +0.150 C 
ATOM     10  C   UNL     1     -35.574  29.972   0.415  0.00  0.00    +0.002 C 
ATOM     11  C   UNL     1     -34.272  25.600   3.202  0.00  0.00    +0.040 C 
ATOM     12  C   UNL     1     -36.797  29.072   0.344  0.00  0.00    +0.000 C 
ATOM     13  C   UNL     1     -36.786  25.522   3.276  0.00  0.00    +0.140 C 
ATOM     14  C   UNL     1     -33.031  26.103   2.539  0.00  0.00    +0.224 C 
ATOM     15  C   UNL     1     -33.112  30.239   0.526  0.00  0.00    +0.003 C 
ATOM     16  C   UNL     1     -34.064  28.676  -1.127  0.00  0.00    +0.003 C 
ATOM     17  C   UNL     1     -36.613  24.634   4.521  0.00  0.00    +0.040 C 
ATOM     18  C   UNL     1     -35.392  23.695   4.419  0.00  0.00    +0.039 C 
ATOM     19  C   UNL     1     -34.205  24.394   3.791  0.00  0.00    -0.022 C 
ATOM     20  C   UNL     1     -35.733  22.470   3.550  0.00  0.00    +0.009 C 
ENDROOT
BRANCH   4  21
ATOM     21  O   UNL     1     -33.921  28.760   2.685  0.00  0.00    -0.381 OA
ATOM     22  H   UNL     1     -33.271  29.460   2.513  0.00  0.00    +0.210 HD
ENDBRANCH   4  21
BRANCH   5  23
ATOM     23  O   UNL     1     -35.562  27.375   4.127  0.00  0.00    -0.380 OA
ATOM     24  H   UNL     1     -36.473  27.682   4.268  0.00  0.00    +0.211 HD
ENDBRANCH   5  23
BRANCH   7  25
ATOM     25  O   UNL     1     -31.977  27.294   0.767  0.00  0.00    -0.356 OA
ATOM     26  H   UNL     1     -31.447  26.504   0.580  0.00  0.00    +0.213 HD
ENDBRANCH   7  25
BRANCH  13  27
ATOM     27  O   UNL     1     -37.967  26.297   3.480  0.00  0.00    -0.382 OA
ATOM     28  H   UNL     1     -38.546  25.844   4.113  0.00  0.00    +0.210 HD
ENDBRANCH  13  27
BRANCH  18  29
ATOM     29  C   UNL     1     -35.044  23.220   5.807  0.00  0.00    -0.023 C 
ATOM     30  C   UNL     1     -35.560  22.125   6.375  0.00  0.00    -0.005 C 
ENDBRANCH  18  29
TORSDOF 5
ENDMDL
MODEL 5
REMARK VINA RESULT:      -6.0      4.040      6.146
REMARK  Name = 54612739
REMARK  5 active torsions:
REMARK  status: ('A' for Active; 'I' for Inactive)
REMARK    1  A    between atoms: C_4  and  O_21
REMARK    2  A    between atoms: C_5  and  O_23
REMARK    3  A    between atoms: C_7  and  O_25
REMARK    4  A    between atoms: C_13  and  O_27
REMARK    5  A    between atoms: C_18  and  C_29
REMARK                            x       y       z     vdW  Elec       q    Type
REMARK                         _______ _______ _______ _____ _____    ______ ____
ROOT
ATOM      1  O   UNL     1     -35.430  25.684   0.740  0.00  0.00    -0.327 OA
ATOM      2  O   UNL     1     -37.082  28.498   1.314  0.00  0.00    -0.286 OA
ATOM      3  C   UNL     1     -35.208  25.328   3.099  0.00  0.00    +0.083 C 
ATOM      4  C   UNL     1     -36.722  25.256   2.683  0.00  0.00    +0.146 C 
ATOM      5  C   UNL     1     -34.813  26.798   3.634  0.00  0.00    +0.138 C 
ATOM      6  C   UNL     1     -37.337  23.797   2.496  0.00  0.00    +0.028 C 
ATOM      7  C   UNL     1     -36.627  26.117   1.413  0.00  0.00    +0.264 C 
ATOM      8  C   UNL     1     -34.817  24.251   4.127  0.00  0.00    +0.008 C 
ATOM      9  C   UNL     1     -34.535  25.122   1.724  0.00  0.00    +0.150 C 
ATOM     10  C   UNL     1     -36.901  22.913   3.691  0.00  0.00    +0.002 C 
ATOM     11  C   UNL     1     -35.197  27.866   2.622  0.00  0.00    +0.040 C 
ATOM     12  C   UNL     1     -35.392  22.866   3.872  0.00  0.00    +0.000 C 
ATOM     13  C   UNL     1     -33.312  26.971   4.029  0.00  0.00    +0.140 C 
ATOM     14  C   UNL     1     -36.375  27.591   1.745  0.00  0.00    +0.224 C 
ATOM     15  C   UNL     1     -38.894  23.822   2.530  0.00  0.00    +0.003 C 
ATOM     16  C   UNL     1     -36.972  23.069   1.180  0.00  0.00    +0.003 C 
ATOM     17  C   UNL     1     -32.969  28.444   4.313  0.00  0.00    +0.040 C 
ATOM     18  C   UNL     1     -33.220  29.360   3.095  0.00  0.00    +0.039 C 
ATOM     19  C   UNL     1     -34.494  28.983   2.370  0.00  0.00    -0.022 C 
ATOM     20  C   UNL     1     -32.055  29.246   2.095  0.00  0.00    +0.009 C 
ENDROOT
BRANCH   4  21
ATOM     21  O   UNL     1     -37.529  25.906   3.669  0.00  0.00    -0.381 OA
ATOM     22  H   UNL     1     -37.886  26.731   3.303  0.00  0.00    +0.210 HD
ENDBRANCH   4  21
BRANCH   5  23
ATOM     23  O   UNL     1     -35.544  27.079   4.843  0.00  0.00    -0.380 OA
ATOM     24  H   UNL     1     -36.306  27.644   4.637  0.00  0.00    +0.211 HD
ENDBRANCH   5  23
BRANCH   7  25
ATOM     25  O   UNL     1     -37.765  26.047   0.582  0.00  0.00    -0.356 OA
ATOM     26  H   UNL     1     -38.264  25.240   0.784  0.00  0.00    +0.213 HD
ENDBRANCH   7  25
BRANCH  13  27
ATOM     27  O   UNL     1     -32.991  26.235   5.209  0.00  0.00    -0.382 OA
ATOM     28  H   UNL     1     -32.967  25.288   5.004  0.00  0.00    +0.210 HD
ENDBRANCH  13  27
BRANCH  18  29
ATOM     29  C   UNL     1     -33.298  30.784   3.584  0.00  0.00    -0.023 C 
ATOM     30  C   UNL     1     -33.643  31.822   2.815  0.00  0.00    -0.005 C 
ENDBRANCH  18  29
TORSDOF 5
ENDMDL
MODEL 6
REMARK VINA RESULT:      -6.0      2.719      4.334
REMARK  Name = 54612739
REMARK  5 active torsions:
REMARK  status: ('A' for Active; 'I' for Inactive)
REMARK    1  A    between atoms: C_4  and  O_21
REMARK    2  A    between atoms: C_5  and  O_23
REMARK    3  A    between atoms: C_7  and  O_25
REMARK    4  A    between atoms: C_13  and  O_27
REMARK    5  A    between atoms: C_18  and  C_29
REMARK                            x       y       z     vdW  Elec       q    Type
REMARK                         _______ _______ _______ _____ _____    ______ ____
ROOT
ATOM      1  O   UNL     1     -35.510  23.084   1.854  0.00  0.00    -0.327 OA
ATOM      2  O   UNL     1     -35.390  20.536   3.970  0.00  0.00    -0.286 OA
ATOM      3  C   UNL     1     -36.673  21.716   0.267  0.00  0.00    +0.083 C 
ATOM      4  C   UNL     1     -37.560  21.929   1.547  0.00  0.00    +0.146 C 
ATOM      5  C   UNL     1     -35.854  20.328   0.342  0.00  0.00    +0.138 C 
ATOM      6  C   UNL     1     -38.690  23.049   1.447  0.00  0.00    +0.028 C 
ATOM      7  C   UNL     1     -36.421  22.206   2.542  0.00  0.00    +0.264 C 
ATOM      8  C   UNL     1     -37.478  21.803  -1.042  0.00  0.00    +0.008 C 
ATOM      9  C   UNL     1     -35.666  22.876   0.434  0.00  0.00    +0.150 C 
ATOM     10  C   UNL     1     -39.439  22.886   0.102  0.00  0.00    +0.002 C 
ATOM     11  C   UNL     1     -35.055  20.237   1.632  0.00  0.00    +0.040 C 
ATOM     12  C   UNL     1     -38.510  22.921  -1.100  0.00  0.00    +0.000 C 
ATOM     13  C   UNL     1     -34.911  20.057  -0.873  0.00  0.00    +0.140 C 
ATOM     14  C   UNL     1     -35.601  20.944   2.830  0.00  0.00    +0.224 C 
ATOM     15  C   UNL     1     -39.767  22.876   2.559  0.00  0.00    +0.003 C 
ATOM     16  C   UNL     1     -38.209  24.515   1.574  0.00  0.00    +0.003 C 
ATOM     17  C   UNL     1     -34.007  18.837  -0.624  0.00  0.00    +0.040 C 
ATOM     18  C   UNL     1     -33.102  19.008   0.615  0.00  0.00    +0.039 C 
ATOM     19  C   UNL     1     -33.841  19.675   1.755  0.00  0.00    -0.022 C 
ATOM     20  C   UNL     1     -31.883  19.883   0.267  0.00  0.00    +0.009 C 
ENDROOT
BRANCH   4  21
ATOM     21  O   UNL     1     -38.232  20.711   1.882  0.00  0.00    -0.381 OA
ATOM     22  H   UNL     1     -39.188  20.829   1.770  0.00  0.00    +0.210 HD
ENDBRANCH   4  21
BRANCH   5  23
ATOM     23  O   UNL     1     -36.781  19.225   0.340  0.00  0.00    -0.380 OA
ATOM     24  H   UNL     1     -36.880  18.883   1.243  0.00  0.00    +0.211 HD
ENDBRANCH   5  23
BRANCH   7  25
ATOM     25  O   UNL     1     -36.849  22.738   3.776  0.00  0.00    -0.356 OA
ATOM     26  H   UNL     1     -36.164  23.326   4.130  0.00  0.00    +0.213 HD
ENDBRANCH   7  25
BRANCH  13  27
ATOM     27  O   UNL     1     -35.652  19.788  -2.064  0.00  0.00    -0.382 OA
ATOM     28  H   UNL     1     -35.130  19.216  -2.648  0.00  0.00    +0.210 HD
ENDBRANCH  13  27
BRANCH  18  29
ATOM     29  C   UNL     1     -32.612  17.645   1.034  0.00  0.00    -0.023 C 
ATOM     30  C   UNL     1     -32.328  16.656   0.180  0.00  0.00    -0.005 C 
ENDBRANCH  18  29
TORSDOF 5
ENDMDL
MODEL 7
REMARK VINA RESULT:      -5.9      2.622      4.849
REMARK  Name = 54612739
REMARK  5 active torsions:
REMARK  status: ('A' for Active; 'I' for Inactive)
REMARK    1  A    between atoms: C_4  and  O_21
REMARK    2  A    between atoms: C_5  and  O_23
REMARK    3  A    between atoms: C_7  and  O_25
REMARK    4  A    between atoms: C_13  and  O_27
REMARK    5  A    between atoms: C_18  and  C_29
REMARK                            x       y       z     vdW  Elec       q    Type
REMARK                         _______ _______ _______ _____ _____    ______ ____
ROOT
ATOM      1  O   UNL     1     -35.579  20.838  -1.388  0.00  0.00    -0.327 OA
ATOM      2  O   UNL     1     -38.832  20.290  -1.080  0.00  0.00    -0.286 OA
ATOM      3  C   UNL     1     -35.233  20.073   0.857  0.00  0.00    +0.083 C 
ATOM      4  C   UNL     1     -35.752  18.892  -0.042  0.00  0.00    +0.146 C 
ATOM      5  C   UNL     1     -36.444  20.782   1.654  0.00  0.00    +0.138 C 
ATOM      6  C   UNL     1     -34.649  17.876  -0.585  0.00  0.00    +0.028 C 
ATOM      7  C   UNL     1     -36.469  19.742  -1.104  0.00  0.00    +0.264 C 
ATOM      8  C   UNL     1     -34.120  19.642   1.828  0.00  0.00    +0.008 C 
ATOM      9  C   UNL     1     -34.738  21.050  -0.233  0.00  0.00    +0.150 C 
ATOM     10  C   UNL     1     -33.700  17.499   0.580  0.00  0.00    +0.002 C 
ATOM     11  C   UNL     1     -37.546  21.211   0.698  0.00  0.00    +0.040 C 
ATOM     12  C   UNL     1     -33.067  18.711   1.243  0.00  0.00    +0.000 C 
ATOM     13  C   UNL     1     -36.022  21.997   2.539  0.00  0.00    +0.140 C 
ATOM     14  C   UNL     1     -37.732  20.402  -0.544  0.00  0.00    +0.224 C 
ATOM     15  C   UNL     1     -35.287  16.540  -1.065  0.00  0.00    +0.003 C 
ATOM     16  C   UNL     1     -33.798  18.371  -1.779  0.00  0.00    +0.003 C 
ATOM     17  C   UNL     1     -37.248  22.750   3.084  0.00  0.00    +0.040 C 
ATOM     18  C   UNL     1     -38.152  23.307   1.963  0.00  0.00    +0.039 C 
ATOM     19  C   UNL     1     -38.287  22.325   0.820  0.00  0.00    -0.022 C 
ATOM     20  C   UNL     1     -37.559  24.611   1.398  0.00  0.00    +0.009 C 
ENDROOT
BRANCH   4  21
ATOM     21  O   UNL     1     -36.697  18.103   0.688  0.00  0.00    -0.381 OA
ATOM     22  H   UNL     1     -37.055  17.411   0.110  0.00  0.00    +0.210 HD
ENDBRANCH   4  21
BRANCH   5  23
ATOM     23  O   UNL     1     -37.025  19.841   2.576  0.00  0.00    -0.380 OA
ATOM     24  H   UNL     1     -37.489  19.147   2.081  0.00  0.00    +0.211 HD
ENDBRANCH   5  23
BRANCH   7  25
ATOM     25  O   UNL     1     -36.828  19.029  -2.267  0.00  0.00    -0.356 OA
ATOM     26  H   UNL     1     -36.946  18.092  -2.049  0.00  0.00    +0.213 HD
ENDBRANCH   7  25
BRANCH  13  27
ATOM     27  O   UNL     1     -35.254  21.582   3.669  0.00  0.00    -0.382 OA
ATOM     28  H   UNL     1     -34.592  20.931   3.389  0.00  0.00    +0.210 HD
ENDBRANCH  13  27
BRANCH  18  29
ATOM     29  C   UNL     1     -39.505  23.610   2.555  0.00  0.00    -0.023 C 
ATOM     30  C   UNL     1     -39.780  24.702   3.275  0.00  0.00    -0.005 C 
ENDBRANCH  18  29
TORSDOF 5
ENDMDL
MODEL 8
REMARK VINA RESULT:      -5.9      2.483      6.430
REMARK  Name = 54612739
REMARK  5 active torsions:
REMARK  status: ('A' for Active; 'I' for Inactive)
REMARK    1  A    between atoms: C_4  and  O_21
REMARK    2  A    between atoms: C_5  and  O_23
REMARK    3  A    between atoms: C_7  and  O_25
REMARK    4  A    between atoms: C_13  and  O_27
REMARK    5  A    between atoms: C_18  and  C_29
REMARK                            x       y       z     vdW  Elec       q    Type
REMARK                         _______ _______ _______ _____ _____    ______ ____
ROOT
ATOM      1  O   UNL     1     -37.298  23.265   1.019  0.00  0.00    -0.327 OA
ATOM      2  O   UNL     1     -40.055  22.231   2.538  0.00  0.00    -0.286 OA
ATOM      3  C   UNL     1     -37.668  25.482   1.848  0.00  0.00    +0.083 C 
ATOM      4  C   UNL     1     -37.388  24.499   3.042  0.00  0.00    +0.146 C 
ATOM      5  C   UNL     1     -39.251  25.681   1.607  0.00  0.00    +0.138 C 
ATOM      6  C   UNL     1     -35.905  24.501   3.629  0.00  0.00    +0.028 C 
ATOM      7  C   UNL     1     -37.840  23.203   2.352  0.00  0.00    +0.264 C 
ATOM      8  C   UNL     1     -36.967  26.842   2.014  0.00  0.00    +0.008 C 
ATOM      9  C   UNL     1     -37.105  24.653   0.672  0.00  0.00    +0.150 C 
ATOM     10  C   UNL     1     -35.440  25.967   3.811  0.00  0.00    +0.002 C 
ATOM     11  C   UNL     1     -39.948  24.340   1.442  0.00  0.00    +0.040 C 
ATOM     12  C   UNL     1     -35.537  26.781   2.530  0.00  0.00    +0.000 C 
ATOM     13  C   UNL     1     -39.620  26.611   0.408  0.00  0.00    +0.140 C 
ATOM     14  C   UNL     1     -39.358  23.166   2.152  0.00  0.00    +0.224 C 
ATOM     15  C   UNL     1     -35.848  23.857   5.045  0.00  0.00    +0.003 C 
ATOM     16  C   UNL     1     -34.844  23.743   2.796  0.00  0.00    +0.003 C 
ATOM     17  C   UNL     1     -41.128  26.572   0.107  0.00  0.00    +0.040 C 
ATOM     18  C   UNL     1     -41.628  25.156  -0.254  0.00  0.00    +0.039 C 
ATOM     19  C   UNL     1     -40.980  24.100   0.615  0.00  0.00    -0.022 C 
ATOM     20  C   UNL     1     -41.292  24.831  -1.721  0.00  0.00    +0.009 C 
ENDROOT
BRANCH   4  21
ATOM     21  O   UNL     1     -38.252  24.809   4.140  0.00  0.00    -0.381 OA
ATOM     22  H   UNL     1     -37.718  25.016   4.923  0.00  0.00    +0.210 HD
ENDBRANCH   4  21
BRANCH   5  23
ATOM     23  O   UNL     1     -39.833  26.321   2.759  0.00  0.00    -0.380 OA
ATOM     24  H   UNL     1     -39.457  27.210   2.860  0.00  0.00    +0.211 HD
ENDBRANCH   5  23
BRANCH   7  25
ATOM     25  O   UNL     1     -37.461  22.025   3.029  0.00  0.00    -0.356 OA
ATOM     26  H   UNL     1     -36.605  22.163   3.464  0.00  0.00    +0.213 HD
ENDBRANCH   7  25
BRANCH  13  27
ATOM     27  O   UNL     1     -39.285  27.973   0.676  0.00  0.00    -0.382 OA
ATOM     28  H   UNL     1     -39.989  28.551   0.342  0.00  0.00    +0.210 HD
ENDBRANCH  13  27
BRANCH  18  29
ATOM     29  C   UNL     1     -43.126  25.127  -0.084  0.00  0.00    -0.023 C 
ATOM     30  C   UNL     1     -43.743  25.013   1.097  0.00  0.00    -0.005 C 
ENDBRANCH  18  29
TORSDOF 5
ENDMDL
MODEL 9
REMARK VINA RESULT:      -5.9      3.997      5.851
REMARK  Name = 54612739
REMARK  5 active torsions:
REMARK  status: ('A' for Active; 'I' for Inactive)
REMARK    1  A    between atoms: C_4  and  O_21
REMARK    2  A    between atoms: C_5  and  O_23
REMARK    3  A    between atoms: C_7  and  O_25
REMARK    4  A    between atoms: C_13  and  O_27
REMARK    5  A    between atoms: C_18  and  C_29
REMARK                            x       y       z     vdW  Elec       q    Type
REMARK                         _______ _______ _______ _____ _____    ______ ____
ROOT
ATOM      1  O   UNL     1     -35.712  26.286   0.484  0.00  0.00    -0.327 OA
ATOM      2  O   UNL     1     -36.653  29.296   1.503  0.00  0.00    -0.286 OA
ATOM      3  C   UNL     1     -35.721  25.512   2.752  0.00  0.00    +0.083 C 
ATOM      4  C   UNL     1     -37.180  25.891   2.305  0.00  0.00    +0.146 C 
ATOM      5  C   UNL     1     -35.010  26.729   3.536  0.00  0.00    +0.138 C 
ATOM      6  C   UNL     1     -38.122  24.683   1.863  0.00  0.00    +0.028 C 
ATOM      7  C   UNL     1     -36.803  26.893   1.202  0.00  0.00    +0.264 C 
ATOM      8  C   UNL     1     -35.667  24.220   3.587  0.00  0.00    +0.008 C 
ATOM      9  C   UNL     1     -35.041  25.366   1.372  0.00  0.00    +0.150 C 
ATOM     10  C   UNL     1     -37.987  23.538   2.896  0.00  0.00    +0.002 C 
ATOM     11  C   UNL     1     -35.060  28.007   2.714  0.00  0.00    +0.040 C 
ATOM     12  C   UNL     1     -36.549  23.083   3.091  0.00  0.00    +0.000 C 
ATOM     13  C   UNL     1     -33.538  26.453   3.978  0.00  0.00    +0.140 C 
ATOM     14  C   UNL     1     -36.216  28.182   1.784  0.00  0.00    +0.224 C 
ATOM     15  C   UNL     1     -39.624  25.093   1.875  0.00  0.00    +0.003 C 
ATOM     16  C   UNL     1     -37.871  24.108   0.447  0.00  0.00    +0.003 C 
ATOM     17  C   UNL     1     -32.862  27.726   4.515  0.00  0.00    +0.040 C 
ATOM     18  C   UNL     1     -32.809  28.860   3.467  0.00  0.00    +0.039 C 
ATOM     19  C   UNL     1     -34.091  28.937   2.667  0.00  0.00    -0.022 C 
ATOM     20  C   UNL     1     -31.651  28.619   2.481  0.00  0.00    +0.009 C 
ENDROOT
BRANCH   4  21
ATOM     21  O   UNL     1     -37.859  26.556   3.375  0.00  0.00    -0.381 OA
ATOM     22  H   UNL     1     -37.877  25.980   4.155  0.00  0.00    +0.210 HD
ENDBRANCH   4  21
BRANCH   5  23
ATOM     23  O   UNL     1     -35.719  26.987   4.763  0.00  0.00    -0.380 OA
ATOM     24  H   UNL     1     -35.102  27.331   5.428  0.00  0.00    +0.211 HD
ENDBRANCH   5  23
BRANCH   7  25
ATOM     25  O   UNL     1     -37.873  27.246   0.353  0.00  0.00    -0.356 OA
ATOM     26  H   UNL     1     -38.708  27.188   0.843  0.00  0.00    +0.213 HD
ENDBRANCH   7  25
BRANCH  13  27
ATOM     27  O   UNL     1     -33.477  25.480   5.021  0.00  0.00    -0.382 OA
ATOM     28  H   UNL     1     -33.120  24.649   4.669  0.00  0.00    +0.210 HD
ENDBRANCH  13  27
BRANCH  18  29
ATOM     29  C   UNL     1     -32.563  30.159   4.190  0.00  0.00    -0.023 C 
ATOM     30  C   UNL     1     -32.038  30.247   5.417  0.00  0.00    -0.005 C 
ENDBRANCH  18  29
TORSDOF 5
ENDMDL
