MODEL 1
REMARK VINA RESULT:      -6.4      0.000      0.000
REMARK  Name = 5472392
REMARK  6 active torsions:
REMARK  status: ('A' for Active; 'I' for Inactive)
REMARK    1  A    between atoms: C_3  and  C_19
REMARK    2  A    between atoms: C_5  and  O_16
REMARK    3  A    between atoms: C_12  and  O_22
REMARK    4  A    between atoms: C_14  and  C_24
REMARK    5  A    between atoms: C_19  and  O_20
REMARK    6  A    between atoms: C_24  and  O_25
REMARK                            x       y       z     vdW  Elec       q    Type
REMARK                         _______ _______ _______ _____ _____    ______ ____
ROOT
ATOM      1  O   UNL     1     -37.782  24.860   3.930  0.00  0.00    -0.453 OA
ATOM      2  O   UNL     1     -38.377  21.422   1.818  0.00  0.00    -0.286 OA
ATOM      3  C   UNL     1     -36.020  21.515   3.458  0.00  0.00    +0.115 C 
ATOM      4  C   UNL     1     -37.022  22.638   3.328  0.00  0.00    +0.083 A 
ATOM      5  C   UNL     1     -35.047  21.650   4.653  0.00  0.00    +0.140 C 
ATOM      6  C   UNL     1     -36.908  23.793   4.009  0.00  0.00    +0.149 A 
ATOM      7  C   UNL     1     -38.198  22.463   2.437  0.00  0.00    +0.205 A 
ATOM      8  C   UNL     1     -34.953  23.032   5.235  0.00  0.00    +0.040 C 
ATOM      9  C   UNL     1     -39.127  23.601   2.350  0.00  0.00    +0.107 A 
ATOM     10  C   UNL     1     -35.806  24.014   4.915  0.00  0.00    +0.041 C 
ATOM     11  C   UNL     1     -38.870  24.745   3.102  0.00  0.00    +0.151 A 
ATOM     12  C   UNL     1     -40.255  23.541   1.525  0.00  0.00    +0.139 C 
ATOM     13  C   UNL     1     -39.736  25.837   3.035  0.00  0.00    +0.036 C 
ATOM     14  C   UNL     1     -40.861  25.779   2.213  0.00  0.00    +0.013 C 
ATOM     15  C   UNL     1     -41.119  24.634   1.459  0.00  0.00    +0.035 C 
ENDROOT
BRANCH   5  16
ATOM     16  O   UNL     1     -35.447  20.753   5.692  0.00  0.00    -0.505 OA
ATOM     17  H   UNL     1     -36.069  21.202   6.286  0.00  0.00    +0.292 HD
ENDBRANCH   5  16
BRANCH   3  19
ATOM     18  O   UNL     1     -34.662  22.490   1.722  0.00  0.00    -0.245 OA
ATOM     19  C   UNL     1     -35.235  21.510   2.177  0.00  0.00    +0.344 C 
BRANCH  19  20
ATOM     20  O   UNL     1     -35.268  20.263   1.627  0.00  0.00    -0.441 OA
ATOM     21  C   UNL     1     -34.006  19.593   1.545  0.00  0.00    +0.256 C 
ENDBRANCH  19  20
ENDBRANCH   3  19
BRANCH  12  22
ATOM     22  O   UNL     1     -40.554  22.448   0.769  0.00  0.00    -0.505 OA
ATOM     23  H   UNL     1     -40.372  22.449  -0.150  0.00  0.00    +0.292 HD
ENDBRANCH  12  22
BRANCH  14  24
ATOM     24  C   UNL     1     -41.790  26.944   2.141  0.00  0.00    +0.164 C 
BRANCH  24  25
ATOM     25  O   UNL     1     -41.716  27.683   3.354  0.00  0.00    -0.377 OA
ATOM     26  H   UNL     1     -41.482  27.086   4.083  0.00  0.00    +0.211 HD
ENDBRANCH  24  25
ENDBRANCH  14  24
TORSDOF 6
ENDMDL
MODEL 2
REMARK VINA RESULT:      -6.2      3.948      6.926
REMARK  Name = 5472392
REMARK  6 active torsions:
REMARK  status: ('A' for Active; 'I' for Inactive)
REMARK    1  A    between atoms: C_3  and  C_19
REMARK    2  A    between atoms: C_5  and  O_16
REMARK    3  A    between atoms: C_12  and  O_22
REMARK    4  A    between atoms: C_14  and  C_24
REMARK    5  A    between atoms: C_19  and  O_20
REMARK    6  A    between atoms: C_24  and  O_25
REMARK                            x       y       z     vdW  Elec       q    Type
REMARK                         _______ _______ _______ _____ _____    ______ ____
ROOT
ATOM      1  O   UNL     1     -34.657  24.933   1.602  0.00  0.00    -0.453 OA
ATOM      2  O   UNL     1     -34.615  25.517   5.639  0.00  0.00    -0.286 OA
ATOM      3  C   UNL     1     -34.005  27.807   4.016  0.00  0.00    +0.115 C 
ATOM      4  C   UNL     1     -34.324  26.433   3.477  0.00  0.00    +0.083 A 
ATOM      5  C   UNL     1     -34.067  28.944   2.968  0.00  0.00    +0.140 C 
ATOM      6  C   UNL     1     -34.379  26.167   2.159  0.00  0.00    +0.149 A 
ATOM      7  C   UNL     1     -34.616  25.330   4.428  0.00  0.00    +0.205 A 
ATOM      8  C   UNL     1     -34.010  28.487   1.539  0.00  0.00    +0.040 C 
ATOM      9  C   UNL     1     -34.907  24.015   3.835  0.00  0.00    +0.107 A 
ATOM     10  C   UNL     1     -34.137  27.201   1.182  0.00  0.00    +0.041 C 
ATOM     11  C   UNL     1     -34.912  23.884   2.448  0.00  0.00    +0.151 A 
ATOM     12  C   UNL     1     -35.177  22.909   4.647  0.00  0.00    +0.139 C 
ATOM     13  C   UNL     1     -35.185  22.647   1.862  0.00  0.00    +0.036 C 
ATOM     14  C   UNL     1     -35.455  21.542   2.670  0.00  0.00    +0.013 C 
ATOM     15  C   UNL     1     -35.450  21.674   4.059  0.00  0.00    +0.035 C 
ENDROOT
BRANCH   5  16
ATOM     16  O   UNL     1     -35.271  29.692   3.152  0.00  0.00    -0.505 OA
ATOM     17  H   UNL     1     -35.072  30.641   3.112  0.00  0.00    +0.292 HD
ENDBRANCH   5  16
BRANCH   3  19
ATOM     18  O   UNL     1     -31.646  27.312   3.942  0.00  0.00    -0.245 OA
ATOM     19  C   UNL     1     -32.612  27.722   4.572  0.00  0.00    +0.344 C 
BRANCH  19  20
ATOM     20  O   UNL     1     -32.608  28.166   5.861  0.00  0.00    -0.441 OA
ATOM     21  C   UNL     1     -31.773  29.300   6.119  0.00  0.00    +0.256 C 
ENDBRANCH  19  20
ENDBRANCH   3  19
BRANCH  12  22
ATOM     22  O   UNL     1     -35.187  22.981   6.007  0.00  0.00    -0.505 OA
ATOM     23  H   UNL     1     -34.391  23.147   6.473  0.00  0.00    +0.292 HD
ENDBRANCH  12  22
BRANCH  14  24
ATOM     24  C   UNL     1     -35.749  20.220   2.047  0.00  0.00    +0.164 C 
BRANCH  24  25
ATOM     25  O   UNL     1     -36.932  19.679   2.623  0.00  0.00    -0.377 OA
ATOM     26  H   UNL     1     -37.363  20.355   3.170  0.00  0.00    +0.211 HD
ENDBRANCH  24  25
ENDBRANCH  14  24
TORSDOF 6
ENDMDL
MODEL 3
REMARK VINA RESULT:      -5.9      8.312     10.681
REMARK  Name = 5472392
REMARK  6 active torsions:
REMARK  status: ('A' for Active; 'I' for Inactive)
REMARK    1  A    between atoms: C_3  and  C_19
REMARK    2  A    between atoms: C_5  and  O_16
REMARK    3  A    between atoms: C_12  and  O_22
REMARK    4  A    between atoms: C_14  and  C_24
REMARK    5  A    between atoms: C_19  and  O_20
REMARK    6  A    between atoms: C_24  and  O_25
REMARK                            x       y       z     vdW  Elec       q    Type
REMARK                         _______ _______ _______ _____ _____    ______ ____
ROOT
ATOM      1  O   UNL     1     -46.082  27.433   6.411  0.00  0.00    -0.453 OA
ATOM      2  O   UNL     1     -43.326  29.457   4.188  0.00  0.00    -0.286 OA
ATOM      3  C   UNL     1     -44.002  30.608   6.732  0.00  0.00    +0.115 C 
ATOM      4  C   UNL     1     -44.598  29.336   6.179  0.00  0.00    +0.083 A 
ATOM      5  C   UNL     1     -44.242  30.832   8.244  0.00  0.00    +0.140 C 
ATOM      6  C   UNL     1     -45.495  28.600   6.861  0.00  0.00    +0.149 A 
ATOM      7  C   UNL     1     -44.165  28.851   4.843  0.00  0.00    +0.205 A 
ATOM      8  C   UNL     1     -45.353  30.012   8.833  0.00  0.00    +0.040 C 
ATOM      9  C   UNL     1     -44.795  27.611   4.361  0.00  0.00    +0.107 A 
ATOM     10  C   UNL     1     -45.934  28.997   8.178  0.00  0.00    +0.041 C 
ATOM     11  C   UNL     1     -45.725  26.964   5.173  0.00  0.00    +0.151 A 
ATOM     12  C   UNL     1     -44.467  27.084   3.108  0.00  0.00    +0.139 C 
ATOM     13  C   UNL     1     -46.334  25.787   4.737  0.00  0.00    +0.036 C 
ATOM     14  C   UNL     1     -46.010  25.259   3.487  0.00  0.00    +0.013 C 
ATOM     15  C   UNL     1     -45.078  25.907   2.675  0.00  0.00    +0.035 C 
ENDROOT
BRANCH   5  16
ATOM     16  O   UNL     1     -43.041  30.542   8.961  0.00  0.00    -0.505 OA
ATOM     17  H   UNL     1     -42.527  29.876   8.476  0.00  0.00    +0.292 HD
ENDBRANCH   5  16
BRANCH   3  19
ATOM     18  O   UNL     1     -45.841  31.891   5.845  0.00  0.00    -0.245 OA
ATOM     19  C   UNL     1     -44.633  31.731   5.958  0.00  0.00    +0.344 C 
BRANCH  19  20
ATOM     20  O   UNL     1     -43.658  32.519   5.421  0.00  0.00    -0.441 OA
ATOM     21  C   UNL     1     -44.120  33.606   4.614  0.00  0.00    +0.256 C 
ENDBRANCH  19  20
ENDBRANCH   3  19
BRANCH  12  22
ATOM     22  O   UNL     1     -43.565  27.674   2.276  0.00  0.00    -0.505 OA
ATOM     23  H   UNL     1     -43.828  27.954   1.422  0.00  0.00    +0.292 HD
ENDBRANCH  12  22
BRANCH  14  24
ATOM     24  C   UNL     1     -46.659  24.001   3.020  0.00  0.00    +0.164 C 
BRANCH  24  25
ATOM     25  O   UNL     1     -47.611  23.573   3.987  0.00  0.00    -0.377 OA
ATOM     26  H   UNL     1     -47.311  23.831   4.873  0.00  0.00    +0.211 HD
ENDBRANCH  24  25
ENDBRANCH  14  24
TORSDOF 6
ENDMDL
MODEL 4
REMARK VINA RESULT:      -5.8      3.287      5.145
REMARK  Name = 5472392
REMARK  6 active torsions:
REMARK  status: ('A' for Active; 'I' for Inactive)
REMARK    1  A    between atoms: C_3  and  C_19
REMARK    2  A    between atoms: C_5  and  O_16
REMARK    3  A    between atoms: C_12  and  O_22
REMARK    4  A    between atoms: C_14  and  C_24
REMARK    5  A    between atoms: C_19  and  O_20
REMARK    6  A    between atoms: C_24  and  O_25
REMARK                            x       y       z     vdW  Elec       q    Type
REMARK                         _______ _______ _______ _____ _____    ______ ____
ROOT
ATOM      1  O   UNL     1     -35.790  23.821   1.516  0.00  0.00    -0.453 OA
ATOM      2  O   UNL     1     -35.445  20.029   2.978  0.00  0.00    -0.286 OA
ATOM      3  C   UNL     1     -35.730  20.273   0.129  0.00  0.00    +0.115 C 
ATOM      4  C   UNL     1     -35.710  21.435   1.094  0.00  0.00    +0.083 A 
ATOM      5  C   UNL     1     -35.530  20.660  -1.356  0.00  0.00    +0.140 C 
ATOM      6  C   UNL     1     -35.795  22.715   0.688  0.00  0.00    +0.149 A 
ATOM      7  C   UNL     1     -35.563  21.169   2.548  0.00  0.00    +0.205 A 
ATOM      8  C   UNL     1     -35.769  22.110  -1.666  0.00  0.00    +0.040 C 
ATOM      9  C   UNL     1     -35.562  22.347   3.431  0.00  0.00    +0.107 A 
ATOM     10  C   UNL     1     -35.907  23.043  -0.714  0.00  0.00    +0.041 C 
ATOM     11  C   UNL     1     -35.677  23.616   2.867  0.00  0.00    +0.151 A 
ATOM     12  C   UNL     1     -35.447  22.200   4.817  0.00  0.00    +0.139 C 
ATOM     13  C   UNL     1     -35.679  24.747   3.685  0.00  0.00    +0.036 C 
ATOM     14  C   UNL     1     -35.565  24.604   5.067  0.00  0.00    +0.013 C 
ATOM     15  C   UNL     1     -35.449  23.333   5.632  0.00  0.00    +0.035 C 
ENDROOT
BRANCH   5  16
ATOM     16  O   UNL     1     -34.198  20.330  -1.755  0.00  0.00    -0.505 OA
ATOM     17  H   UNL     1     -33.651  20.181  -0.967  0.00  0.00    +0.292 HD
ENDBRANCH   5  16
BRANCH   3  19
ATOM     18  O   UNL     1     -38.131  20.233   0.346  0.00  0.00    -0.245 OA
ATOM     19  C   UNL     1     -37.073  19.621   0.295  0.00  0.00    +0.344 C 
BRANCH  19  20
ATOM     20  O   UNL     1     -36.916  18.269   0.375  0.00  0.00    -0.441 OA
ATOM     21  C   UNL     1     -37.693  17.503  -0.551  0.00  0.00    +0.256 C 
ENDBRANCH  19  20
ENDBRANCH   3  19
BRANCH  12  22
ATOM     22  O   UNL     1     -35.331  20.985   5.420  0.00  0.00    -0.505 OA
ATOM     23  H   UNL     1     -35.983  20.700   6.029  0.00  0.00    +0.292 HD
ENDBRANCH  12  22
BRANCH  14  24
ATOM     24  C   UNL     1     -35.565  25.811   5.943  0.00  0.00    +0.164 C 
BRANCH  24  25
ATOM     25  O   UNL     1     -36.687  26.625   5.625  0.00  0.00    -0.377 OA
ATOM     26  H   UNL     1     -37.499  26.190   5.931  0.00  0.00    +0.211 HD
ENDBRANCH  24  25
ENDBRANCH  14  24
TORSDOF 6
ENDMDL
MODEL 5
REMARK VINA RESULT:      -5.8      2.702      5.597
REMARK  Name = 5472392
REMARK  6 active torsions:
REMARK  status: ('A' for Active; 'I' for Inactive)
REMARK    1  A    between atoms: C_3  and  C_19
REMARK    2  A    between atoms: C_5  and  O_16
REMARK    3  A    between atoms: C_12  and  O_22
REMARK    4  A    between atoms: C_14  and  C_24
REMARK    5  A    between atoms: C_19  and  O_20
REMARK    6  A    between atoms: C_24  and  O_25
REMARK                            x       y       z     vdW  Elec       q    Type
REMARK                         _______ _______ _______ _____ _____    ______ ____
ROOT
ATOM      1  O   UNL     1     -34.068  23.923   2.089  0.00  0.00    -0.453 OA
ATOM      2  O   UNL     1     -37.559  24.332   4.157  0.00  0.00    -0.286 OA
ATOM      3  C   UNL     1     -37.395  22.090   2.369  0.00  0.00    +0.115 C 
ATOM      4  C   UNL     1     -36.297  23.105   2.577  0.00  0.00    +0.083 A 
ATOM      5  C   UNL     1     -36.951  20.794   1.648  0.00  0.00    +0.140 C 
ATOM      6  C   UNL     1     -35.109  23.026   1.949  0.00  0.00    +0.149 A 
ATOM      7  C   UNL     1     -36.513  24.225   3.529  0.00  0.00    +0.205 A 
ATOM      8  C   UNL     1     -35.653  20.903   0.901  0.00  0.00    +0.040 C 
ATOM      9  C   UNL     1     -35.405  25.183   3.675  0.00  0.00    +0.107 A 
ATOM     10  C   UNL     1     -34.823  21.946   1.036  0.00  0.00    +0.041 C 
ATOM     11  C   UNL     1     -34.237  24.983   2.944  0.00  0.00    +0.151 A 
ATOM     12  C   UNL     1     -35.519  26.281   4.533  0.00  0.00    +0.139 C 
ATOM     13  C   UNL     1     -33.173  25.878   3.065  0.00  0.00    +0.036 C 
ATOM     14  C   UNL     1     -33.284  26.974   3.920  0.00  0.00    +0.013 C 
ATOM     15  C   UNL     1     -34.455  27.175   4.652  0.00  0.00    +0.035 C 
ENDROOT
BRANCH   5  16
ATOM     16  O   UNL     1     -36.832  19.738   2.604  0.00  0.00    -0.505 OA
ATOM     17  H   UNL     1     -37.631  19.708   3.154  0.00  0.00    +0.292 HD
ENDBRANCH   5  16
BRANCH   3  19
ATOM     18  O   UNL     1     -38.265  23.195   0.411  0.00  0.00    -0.245 OA
ATOM     19  C   UNL     1     -38.447  22.779   1.547  0.00  0.00    +0.344 C 
BRANCH  19  20
ATOM     20  O   UNL     1     -39.605  22.858   2.262  0.00  0.00    -0.441 OA
ATOM     21  C   UNL     1     -40.367  24.053   2.069  0.00  0.00    +0.256 C 
ENDBRANCH  19  20
ENDBRANCH   3  19
BRANCH  12  22
ATOM     22  O   UNL     1     -36.638  26.524   5.271  0.00  0.00    -0.505 OA
ATOM     23  H   UNL     1     -36.798  27.382   5.612  0.00  0.00    +0.292 HD
ENDBRANCH  12  22
BRANCH  14  24
ATOM     24  C   UNL     1     -32.149  27.932   4.053  0.00  0.00    +0.164 C 
BRANCH  24  25
ATOM     25  O   UNL     1     -32.479  28.925   5.016  0.00  0.00    -0.377 OA
ATOM     26  H   UNL     1     -32.512  28.522   5.898  0.00  0.00    +0.211 HD
ENDBRANCH  24  25
ENDBRANCH  14  24
TORSDOF 6
ENDMDL
MODEL 6
REMARK VINA RESULT:      -5.7      2.440      6.241
REMARK  Name = 5472392
REMARK  6 active torsions:
REMARK  status: ('A' for Active; 'I' for Inactive)
REMARK    1  A    between atoms: C_3  and  C_19
REMARK    2  A    between atoms: C_5  and  O_16
REMARK    3  A    between atoms: C_12  and  O_22
REMARK    4  A    between atoms: C_14  and  C_24
REMARK    5  A    between atoms: C_19  and  O_20
REMARK    6  A    between atoms: C_24  and  O_25
REMARK                            x       y       z     vdW  Elec       q    Type
REMARK                         _______ _______ _______ _____ _____    ______ ____
ROOT
ATOM      1  O   UNL     1     -35.187  20.701   3.257  0.00  0.00    -0.453 OA
ATOM      2  O   UNL     1     -35.496  24.095   1.016  0.00  0.00    -0.286 OA
ATOM      3  C   UNL     1     -35.796  24.414   3.856  0.00  0.00    +0.115 C 
ATOM      4  C   UNL     1     -35.546  23.097   3.161  0.00  0.00    +0.083 A 
ATOM      5  C   UNL     1     -35.563  24.393   5.386  0.00  0.00    +0.140 C 
ATOM      6  C   UNL     1     -35.409  21.938   3.831  0.00  0.00    +0.149 A 
ATOM      7  C   UNL     1     -35.416  23.069   1.681  0.00  0.00    +0.205 A 
ATOM      8  C   UNL     1     -35.545  23.023   6.001  0.00  0.00    +0.040 C 
ATOM      9  C   UNL     1     -35.184  21.751   1.069  0.00  0.00    +0.107 A 
ATOM     10  C   UNL     1     -35.492  21.900   5.272  0.00  0.00    +0.041 C 
ATOM     11  C   UNL     1     -35.082  20.631   1.892  0.00  0.00    +0.151 A 
ATOM     12  C   UNL     1     -35.066  21.618  -0.318  0.00  0.00    +0.139 C 
ATOM     13  C   UNL     1     -34.862  19.371   1.334  0.00  0.00    +0.036 C 
ATOM     14  C   UNL     1     -34.745  19.235  -0.049  0.00  0.00    +0.013 C 
ATOM     15  C   UNL     1     -34.847  20.357  -0.873  0.00  0.00    +0.035 C 
ENDROOT
BRANCH   5  16
ATOM     16  O   UNL     1     -34.322  25.036   5.683  0.00  0.00    -0.505 OA
ATOM     17  H   UNL     1     -34.436  25.998   5.634  0.00  0.00    +0.292 HD
ENDBRANCH   5  16
BRANCH   3  19
ATOM     18  O   UNL     1     -38.168  23.996   3.750  0.00  0.00    -0.245 OA
ATOM     19  C   UNL     1     -37.231  24.763   3.578  0.00  0.00    +0.344 C 
BRANCH  19  20
ATOM     20  O   UNL     1     -37.306  26.043   3.116  0.00  0.00    -0.441 OA
ATOM     21  C   UNL     1     -38.144  26.237   1.972  0.00  0.00    +0.256 C 
ENDBRANCH  19  20
ENDBRANCH   3  19
BRANCH  12  22
ATOM     22  O   UNL     1     -35.158  22.678  -1.168  0.00  0.00    -0.505 OA
ATOM     23  H   UNL     1     -34.564  22.754  -1.888  0.00  0.00    +0.292 HD
ENDBRANCH  12  22
BRANCH  14  24
ATOM     24  C   UNL     1     -34.508  17.890  -0.647  0.00  0.00    +0.164 C 
BRANCH  24  25
ATOM     25  O   UNL     1     -34.218  16.958   0.387  0.00  0.00    -0.377 OA
ATOM     26  H   UNL     1     -33.554  17.335   0.986  0.00  0.00    +0.211 HD
ENDBRANCH  24  25
ENDBRANCH  14  24
TORSDOF 6
ENDMDL
MODEL 7
REMARK VINA RESULT:      -5.7      4.476      7.229
REMARK  Name = 5472392
REMARK  6 active torsions:
REMARK  status: ('A' for Active; 'I' for Inactive)
REMARK    1  A    between atoms: C_3  and  C_19
REMARK    2  A    between atoms: C_5  and  O_16
REMARK    3  A    between atoms: C_12  and  O_22
REMARK    4  A    between atoms: C_14  and  C_24
REMARK    5  A    between atoms: C_19  and  O_20
REMARK    6  A    between atoms: C_24  and  O_25
REMARK                            x       y       z     vdW  Elec       q    Type
REMARK                         _______ _______ _______ _____ _____    ______ ____
ROOT
ATOM      1  O   UNL     1     -33.310  26.196   4.955  0.00  0.00    -0.453 OA
ATOM      2  O   UNL     1     -35.855  26.761   1.819  0.00  0.00    -0.286 OA
ATOM      3  C   UNL     1     -33.868  28.796   2.227  0.00  0.00    +0.115 C 
ATOM      4  C   UNL     1     -34.027  27.565   3.088  0.00  0.00    +0.083 A 
ATOM      5  C   UNL     1     -32.528  29.547   2.413  0.00  0.00    +0.140 C 
ATOM      6  C   UNL     1     -33.214  27.296   4.126  0.00  0.00    +0.149 A 
ATOM      7  C   UNL     1     -35.104  26.591   2.771  0.00  0.00    +0.205 A 
ATOM      8  C   UNL     1     -31.790  29.214   3.679  0.00  0.00    +0.040 C 
ATOM      9  C   UNL     1     -35.209  25.421   3.658  0.00  0.00    +0.107 A 
ATOM     10  C   UNL     1     -32.129  28.185   4.467  0.00  0.00    +0.041 C 
ATOM     11  C   UNL     1     -34.304  25.284   4.708  0.00  0.00    +0.151 A 
ATOM     12  C   UNL     1     -36.201  24.457   3.453  0.00  0.00    +0.139 C 
ATOM     13  C   UNL     1     -34.384  24.183   5.562  0.00  0.00    +0.036 C 
ATOM     14  C   UNL     1     -35.373  23.220   5.360  0.00  0.00    +0.013 C 
ATOM     15  C   UNL     1     -36.279  23.358   4.308  0.00  0.00    +0.035 C 
ENDROOT
BRANCH   5  16
ATOM     16  O   UNL     1     -31.670  29.264   1.306  0.00  0.00    -0.505 OA
ATOM     17  H   UNL     1     -32.205  29.000   0.541  0.00  0.00    +0.292 HD
ENDBRANCH   5  16
BRANCH   3  19
ATOM     18  O   UNL     1     -35.114  30.260   3.681  0.00  0.00    -0.245 OA
ATOM     19  C   UNL     1     -35.003  29.709   2.595  0.00  0.00    +0.344 C 
BRANCH  19  20
ATOM     20  O   UNL     1     -35.861  29.815   1.541  0.00  0.00    -0.441 OA
ATOM     21  C   UNL     1     -36.537  31.071   1.421  0.00  0.00    +0.256 C 
ENDBRANCH  19  20
ENDBRANCH   3  19
BRANCH  12  22
ATOM     22  O   UNL     1     -37.110  24.542   2.443  0.00  0.00    -0.505 OA
ATOM     23  H   UNL     1     -37.939  24.952   2.591  0.00  0.00    +0.292 HD
ENDBRANCH  12  22
BRANCH  14  24
ATOM     24  C   UNL     1     -35.460  22.042   6.270  0.00  0.00    +0.164 C 
BRANCH  24  25
ATOM     25  O   UNL     1     -35.242  20.851   5.523  0.00  0.00    -0.377 OA
ATOM     26  H   UNL     1     -35.150  21.072   4.583  0.00  0.00    +0.211 HD
ENDBRANCH  24  25
ENDBRANCH  14  24
TORSDOF 6
ENDMDL
MODEL 8
REMARK VINA RESULT:      -5.7      2.013      6.546
REMARK  Name = 5472392
REMARK  6 active torsions:
REMARK  status: ('A' for Active; 'I' for Inactive)
REMARK    1  A    between atoms: C_3  and  C_19
REMARK    2  A    between atoms: C_5  and  O_16
REMARK    3  A    between atoms: C_12  and  O_22
REMARK    4  A    between atoms: C_14  and  C_24
REMARK    5  A    between atoms: C_19  and  O_20
REMARK    6  A    between atoms: C_24  and  O_25
REMARK                            x       y       z     vdW  Elec       q    Type
REMARK                         _______ _______ _______ _____ _____    ______ ____
ROOT
ATOM      1  O   UNL     1     -38.086  22.414   2.210  0.00  0.00    -0.453 OA
ATOM      2  O   UNL     1     -38.751  26.369   2.949  0.00  0.00    -0.286 OA
ATOM      3  C   UNL     1     -40.310  25.189   0.845  0.00  0.00    +0.115 C 
ATOM      4  C   UNL     1     -39.279  24.453   1.667  0.00  0.00    +0.083 A 
ATOM      5  C   UNL     1     -41.262  24.278   0.034  0.00  0.00    +0.140 C 
ATOM      6  C   UNL     1     -39.019  23.143   1.499  0.00  0.00    +0.149 A 
ATOM      7  C   UNL     1     -38.535  25.185   2.724  0.00  0.00    +0.205 A 
ATOM      8  C   UNL     1     -40.775  22.870  -0.158  0.00  0.00    +0.040 C 
ATOM      9  C   UNL     1     -37.537  24.409   3.479  0.00  0.00    +0.107 A 
ATOM     10  C   UNL     1     -39.729  22.367   0.511  0.00  0.00    +0.041 C 
ATOM     11  C   UNL     1     -37.363  23.059   3.181  0.00  0.00    +0.151 A 
ATOM     12  C   UNL     1     -36.774  25.013   4.482  0.00  0.00    +0.139 C 
ATOM     13  C   UNL     1     -36.424  22.303   3.883  0.00  0.00    +0.036 C 
ATOM     14  C   UNL     1     -35.660  22.903   4.884  0.00  0.00    +0.013 C 
ATOM     15  C   UNL     1     -35.834  24.255   5.182  0.00  0.00    +0.035 C 
ENDROOT
BRANCH   5  16
ATOM     16  O   UNL     1     -42.535  24.228   0.682  0.00  0.00    -0.505 OA
ATOM     17  H   UNL     1     -43.237  24.385   0.030  0.00  0.00    +0.292 HD
ENDBRANCH   5  16
BRANCH   3  19
ATOM     18  O   UNL     1     -38.651  25.661  -0.840  0.00  0.00    -0.245 OA
ATOM     19  C   UNL     1     -39.538  26.065  -0.100  0.00  0.00    +0.344 C 
BRANCH  19  20
ATOM     20  O   UNL     1     -39.983  27.350   0.003  0.00  0.00    -0.441 OA
ATOM     21  C   UNL     1     -39.035  28.360  -0.356  0.00  0.00    +0.256 C 
ENDBRANCH  19  20
ENDBRANCH   3  19
BRANCH  12  22
ATOM     22  O   UNL     1     -36.903  26.327   4.814  0.00  0.00    -0.505 OA
ATOM     23  H   UNL     1     -37.497  26.875   4.339  0.00  0.00    +0.292 HD
ENDBRANCH  12  22
BRANCH  14  24
ATOM     24  C   UNL     1     -34.656  22.097   5.637  0.00  0.00    +0.164 C 
BRANCH  24  25
ATOM     25  O   UNL     1     -35.150  20.775   5.816  0.00  0.00    -0.377 OA
ATOM     26  H   UNL     1     -34.406  20.153   5.843  0.00  0.00    +0.211 HD
ENDBRANCH  24  25
ENDBRANCH  14  24
TORSDOF 6
ENDMDL
MODEL 9
REMARK VINA RESULT:      -5.6      2.597      4.971
REMARK  Name = 5472392
REMARK  6 active torsions:
REMARK  status: ('A' for Active; 'I' for Inactive)
REMARK    1  A    between atoms: C_3  and  C_19
REMARK    2  A    between atoms: C_5  and  O_16
REMARK    3  A    between atoms: C_12  and  O_22
REMARK    4  A    between atoms: C_14  and  C_24
REMARK    5  A    between atoms: C_19  and  O_20
REMARK    6  A    between atoms: C_24  and  O_25
REMARK                            x       y       z     vdW  Elec       q    Type
REMARK                         _______ _______ _______ _____ _____    ______ ____
ROOT
ATOM      1  O   UNL     1     -34.592  22.569   2.697  0.00  0.00    -0.453 OA
ATOM      2  O   UNL     1     -38.640  23.021   2.498  0.00  0.00    -0.286 OA
ATOM      3  C   UNL     1     -37.503  20.987   0.816  0.00  0.00    +0.115 C 
ATOM      4  C   UNL     1     -36.710  21.882   1.739  0.00  0.00    +0.083 A 
ATOM      5  C   UNL     1     -36.734  19.750   0.295  0.00  0.00    +0.140 C 
ATOM      6  C   UNL     1     -35.375  21.779   1.878  0.00  0.00    +0.149 A 
ATOM      7  C   UNL     1     -37.422  22.901   2.552  0.00  0.00    +0.205 A 
ATOM      8  C   UNL     1     -35.240  19.837   0.423  0.00  0.00    +0.040 C 
ATOM      9  C   UNL     1     -36.586  23.746   3.421  0.00  0.00    +0.107 A 
ATOM     10  C   UNL     1     -34.627  20.788   1.141  0.00  0.00    +0.041 C 
ATOM     11  C   UNL     1     -35.210  23.535   3.448  0.00  0.00    +0.151 A 
ATOM     12  C   UNL     1     -37.161  24.745   4.212  0.00  0.00    +0.139 C 
ATOM     13  C   UNL     1     -34.397  24.324   4.264  0.00  0.00    +0.036 C 
ATOM     14  C   UNL     1     -34.968  25.322   5.053  0.00  0.00    +0.013 C 
ATOM     15  C   UNL     1     -36.347  25.532   5.026  0.00  0.00    +0.035 C 
ENDROOT
BRANCH   5  16
ATOM     16  O   UNL     1     -37.177  18.587   0.999  0.00  0.00    -0.505 OA
ATOM     17  H   UNL     1     -36.855  17.792   0.545  0.00  0.00    +0.292 HD
ENDBRANCH   5  16
BRANCH   3  19
ATOM     18  O   UNL     1     -37.283  22.831  -0.721  0.00  0.00    -0.245 OA
ATOM     19  C   UNL     1     -37.906  21.846  -0.348  0.00  0.00    +0.344 C 
BRANCH  19  20
ATOM     20  O   UNL     1     -39.050  21.355  -0.902  0.00  0.00    -0.441 OA
ATOM     21  C   UNL     1     -40.165  21.240  -0.012  0.00  0.00    +0.256 C 
ENDBRANCH  19  20
ENDBRANCH   3  19
BRANCH  12  22
ATOM     22  O   UNL     1     -38.501  24.993   4.225  0.00  0.00    -0.505 OA
ATOM     23  H   UNL     1     -38.897  25.389   4.975  0.00  0.00    +0.292 HD
ENDBRANCH  12  22
BRANCH  14  24
ATOM     24  C   UNL     1     -34.102  26.165   5.927  0.00  0.00    +0.164 C 
BRANCH  24  25
ATOM     25  O   UNL     1     -33.649  27.297   5.193  0.00  0.00    -0.377 OA
ATOM     26  H   UNL     1     -32.950  27.024   4.578  0.00  0.00    +0.211 HD
ENDBRANCH  24  25
ENDBRANCH  14  24
TORSDOF 6
ENDMDL
