MODEL 1
REMARK VINA RESULT:      -5.4      0.000      0.000
REMARK  Name = 194087
REMARK  3 active torsions:
REMARK  status: ('A' for Active; 'I' for Inactive)
REMARK    1  A    between atoms: C_1  and  N_9
REMARK    2  A    between atoms: C_2  and  N_12
REMARK    3  A    between atoms: C_4  and  N_14
REMARK                            x       y       z     vdW  Elec       q    Type
REMARK                         _______ _______ _______ _____ _____    ______ ____
ROOT
ATOM      1  C   UNL     1     -35.689  22.992   4.654  0.00  0.00    +0.146 C 
ATOM      2  C   UNL     1     -37.178  24.796   4.049  0.00  0.00    +0.146 C 
ATOM      3  C   UNL     1     -36.852  23.440   4.027  0.00  0.00    +0.048 C 
ATOM      4  C   UNL     1     -35.178  25.256   5.325  0.00  0.00    +0.097 C 
ATOM      5  C   UNL     1     -34.852  23.900   5.303  0.00  0.00    +0.044 C 
ATOM      6  C   UNL     1     -36.341  25.704   4.698  0.00  0.00    +0.044 C 
ENDROOT
BRANCH   1   9
ATOM      7  O   UNL     1     -35.038  21.045   5.704  0.00  0.00    -0.126 OA
ATOM      8  O   UNL     1     -35.391  20.996   3.537  0.00  0.00    -0.126 OA
ATOM      9  N   UNL     1     -35.357  21.611   4.631  0.00  0.00    +0.058 N 
ENDBRANCH   1   9
BRANCH   2  12
ATOM     10  O   UNL     1     -39.401  24.556   3.487  0.00  0.00    -0.126 OA
ATOM     11  O   UNL     1     -38.334  26.342   2.787  0.00  0.00    -0.126 OA
ATOM     12  N   UNL     1     -38.361  25.253   3.411  0.00  0.00    +0.058 N 
ENDBRANCH   2  12
BRANCH   4  14
ATOM     13  O   UNL     1     -32.679  27.048   4.557  0.00  0.00    -0.210 OA
ATOM     14  N   UNL     1     -34.339  26.166   5.976  0.00  0.00    -0.167 NA
ATOM     15  C   UNL     1     -33.508  26.608   5.265  0.00  0.00    +0.240 C 
ENDBRANCH   4  14
TORSDOF 3
ENDMDL
MODEL 2
REMARK VINA RESULT:      -5.4      0.064      3.857
REMARK  Name = 194087
REMARK  3 active torsions:
REMARK  status: ('A' for Active; 'I' for Inactive)
REMARK    1  A    between atoms: C_1  and  N_9
REMARK    2  A    between atoms: C_2  and  N_12
REMARK    3  A    between atoms: C_4  and  N_14
REMARK                            x       y       z     vdW  Elec       q    Type
REMARK                         _______ _______ _______ _____ _____    ______ ____
ROOT
ATOM      1  C   UNL     1     -37.195  24.757   4.022  0.00  0.00    +0.146 C 
ATOM      2  C   UNL     1     -35.698  22.953   4.608  0.00  0.00    +0.146 C 
ATOM      3  C   UNL     1     -36.860  23.404   3.980  0.00  0.00    +0.048 C 
ATOM      4  C   UNL     1     -35.208  25.210   5.320  0.00  0.00    +0.097 C 
ATOM      5  C   UNL     1     -36.370  25.660   4.693  0.00  0.00    +0.044 C 
ATOM      6  C   UNL     1     -34.873  23.856   5.277  0.00  0.00    +0.044 C 
ENDROOT
BRANCH   1   9
ATOM      7  O   UNL     1     -38.354  26.312   2.774  0.00  0.00    -0.126 OA
ATOM      8  O   UNL     1     -39.416  24.512   3.448  0.00  0.00    -0.126 OA
ATOM      9  N   UNL     1     -38.378  25.216   3.384  0.00  0.00    +0.058 N 
ENDBRANCH   1   9
BRANCH   2  12
ATOM     10  O   UNL     1     -35.443  20.961   3.476  0.00  0.00    -0.126 OA
ATOM     11  O   UNL     1     -34.978  21.010   5.621  0.00  0.00    -0.126 OA
ATOM     12  N   UNL     1     -35.356  21.576   4.565  0.00  0.00    +0.058 N 
ENDBRANCH   2  12
BRANCH   4  14
ATOM     13  O   UNL     1     -32.727  27.044   4.591  0.00  0.00    -0.210 OA
ATOM     14  N   UNL     1     -34.380  26.115   5.991  0.00  0.00    -0.167 NA
ATOM     15  C   UNL     1     -33.553  26.580   5.290  0.00  0.00    +0.240 C 
ENDBRANCH   4  14
TORSDOF 3
ENDMDL
MODEL 3
REMARK VINA RESULT:      -5.3      1.251      4.768
REMARK  Name = 194087
REMARK  3 active torsions:
REMARK  status: ('A' for Active; 'I' for Inactive)
REMARK    1  A    between atoms: C_1  and  N_9
REMARK    2  A    between atoms: C_2  and  N_12
REMARK    3  A    between atoms: C_4  and  N_14
REMARK                            x       y       z     vdW  Elec       q    Type
REMARK                         _______ _______ _______ _____ _____    ______ ____
ROOT
ATOM      1  C   UNL     1     -34.644  25.688   4.788  0.00  0.00    +0.146 C 
ATOM      2  C   UNL     1     -35.553  23.451   4.870  0.00  0.00    +0.146 C 
ATOM      3  C   UNL     1     -34.666  24.413   5.353  0.00  0.00    +0.048 C 
ATOM      4  C   UNL     1     -36.395  25.038   3.255  0.00  0.00    +0.097 C 
ATOM      5  C   UNL     1     -35.508  26.000   3.738  0.00  0.00    +0.044 C 
ATOM      6  C   UNL     1     -36.416  23.763   3.821  0.00  0.00    +0.044 C 
ENDROOT
BRANCH   1   9
ATOM      7  O   UNL     1     -33.157  26.462   6.371  0.00  0.00    -0.126 OA
ATOM      8  O   UNL     1     -33.553  27.712   4.609  0.00  0.00    -0.126 OA
ATOM      9  N   UNL     1     -33.742  26.668   5.280  0.00  0.00    +0.058 N 
ENDBRANCH   1   9
BRANCH   2  12
ATOM     10  O   UNL     1     -35.187  21.177   4.759  0.00  0.00    -0.126 OA
ATOM     11  O   UNL     1     -35.984  22.017   6.624  0.00  0.00    -0.126 OA
ATOM     12  N   UNL     1     -35.575  22.153   5.445  0.00  0.00    +0.058 N 
ENDBRANCH   2  12
BRANCH   4  14
ATOM     13  O   UNL     1     -39.226  26.427   2.934  0.00  0.00    -0.210 OA
ATOM     14  N   UNL     1     -37.262  25.352   2.203  0.00  0.00    -0.167 NA
ATOM     15  C   UNL     1     -38.245  25.890   2.569  0.00  0.00    +0.240 C 
ENDBRANCH   4  14
TORSDOF 3
ENDMDL
MODEL 4
REMARK VINA RESULT:      -5.3      1.275      4.107
REMARK  Name = 194087
REMARK  3 active torsions:
REMARK  status: ('A' for Active; 'I' for Inactive)
REMARK    1  A    between atoms: C_1  and  N_9
REMARK    2  A    between atoms: C_2  and  N_12
REMARK    3  A    between atoms: C_4  and  N_14
REMARK                            x       y       z     vdW  Elec       q    Type
REMARK                         _______ _______ _______ _____ _____    ______ ____
ROOT
ATOM      1  C   UNL     1     -34.520  26.153   4.924  0.00  0.00    +0.146 C 
ATOM      2  C   UNL     1     -36.505  25.673   3.633  0.00  0.00    +0.146 C 
ATOM      3  C   UNL     1     -35.439  26.518   3.941  0.00  0.00    +0.048 C 
ATOM      4  C   UNL     1     -35.734  24.096   5.293  0.00  0.00    +0.097 C 
ATOM      5  C   UNL     1     -34.668  24.941   5.601  0.00  0.00    +0.044 C 
ATOM      6  C   UNL     1     -36.652  24.463   4.309  0.00  0.00    +0.044 C 
ENDROOT
BRANCH   1   9
ATOM      7  O   UNL     1     -33.227  28.017   4.516  0.00  0.00    -0.126 OA
ATOM      8  O   UNL     1     -32.715  26.746   6.231  0.00  0.00    -0.126 OA
ATOM      9  N   UNL     1     -33.435  27.013   5.238  0.00  0.00    +0.058 N 
ENDBRANCH   1   9
BRANCH   2  12
ATOM     10  O   UNL     1     -38.614  26.330   2.973  0.00  0.00    -0.126 OA
ATOM     11  O   UNL     1     -37.069  26.078   1.434  0.00  0.00    -0.126 OA
ATOM     12  N   UNL     1     -37.441  26.045   2.633  0.00  0.00    +0.058 N 
ENDBRANCH   2  12
BRANCH   4  14
ATOM     13  O   UNL     1     -35.078  21.046   4.730  0.00  0.00    -0.210 OA
ATOM     14  N   UNL     1     -35.881  22.881   5.970  0.00  0.00    -0.167 NA
ATOM     15  C   UNL     1     -35.479  21.963   5.349  0.00  0.00    +0.240 C 
ENDBRANCH   4  14
TORSDOF 3
ENDMDL
MODEL 5
REMARK VINA RESULT:      -5.3      1.253      3.995
REMARK  Name = 194087
REMARK  3 active torsions:
REMARK  status: ('A' for Active; 'I' for Inactive)
REMARK    1  A    between atoms: C_1  and  N_9
REMARK    2  A    between atoms: C_2  and  N_12
REMARK    3  A    between atoms: C_4  and  N_14
REMARK                            x       y       z     vdW  Elec       q    Type
REMARK                         _______ _______ _______ _____ _____    ______ ____
ROOT
ATOM      1  C   UNL     1     -35.535  23.339   4.848  0.00  0.00    +0.146 C 
ATOM      2  C   UNL     1     -34.686  25.595   4.685  0.00  0.00    +0.146 C 
ATOM      3  C   UNL     1     -34.685  24.346   5.306  0.00  0.00    +0.048 C 
ATOM      4  C   UNL     1     -36.388  24.831   3.150  0.00  0.00    +0.097 C 
ATOM      5  C   UNL     1     -36.387  23.582   3.770  0.00  0.00    +0.044 C 
ATOM      6  C   UNL     1     -35.537  25.838   3.608  0.00  0.00    +0.044 C 
ENDROOT
BRANCH   1   9
ATOM      7  O   UNL     1     -35.975  21.970   6.651  0.00  0.00    -0.126 OA
ATOM      8  O   UNL     1     -35.095  21.075   4.849  0.00  0.00    -0.126 OA
ATOM      9  N   UNL     1     -35.535  22.067   5.480  0.00  0.00    +0.058 N 
ENDBRANCH   1   9
BRANCH   2  12
ATOM     10  O   UNL     1     -33.707  27.672   4.478  0.00  0.00    -0.126 OA
ATOM     11  O   UNL     1     -33.194  26.446   6.225  0.00  0.00    -0.126 OA
ATOM     12  N   UNL     1     -33.821  26.621   5.151  0.00  0.00    +0.058 N 
ENDBRANCH   2  12
BRANCH   4  14
ATOM     13  O   UNL     1     -39.008  26.534   2.615  0.00  0.00    -0.210 OA
ATOM     14  N   UNL     1     -37.241  25.074   2.069  0.00  0.00    -0.167 NA
ATOM     15  C   UNL     1     -38.125  25.805   2.343  0.00  0.00    +0.240 C 
ENDBRANCH   4  14
TORSDOF 3
ENDMDL
MODEL 6
REMARK VINA RESULT:      -5.3      1.276      4.860
REMARK  Name = 194087
REMARK  3 active torsions:
REMARK  status: ('A' for Active; 'I' for Inactive)
REMARK    1  A    between atoms: C_1  and  N_9
REMARK    2  A    between atoms: C_2  and  N_12
REMARK    3  A    between atoms: C_4  and  N_14
REMARK                            x       y       z     vdW  Elec       q    Type
REMARK                         _______ _______ _______ _____ _____    ______ ____
ROOT
ATOM      1  C   UNL     1     -36.516  25.657   3.606  0.00  0.00    +0.146 C 
ATOM      2  C   UNL     1     -34.530  26.153   4.889  0.00  0.00    +0.146 C 
ATOM      3  C   UNL     1     -35.452  26.508   3.905  0.00  0.00    +0.048 C 
ATOM      4  C   UNL     1     -35.734  24.094   5.274  0.00  0.00    +0.097 C 
ATOM      5  C   UNL     1     -36.657  24.449   4.290  0.00  0.00    +0.044 C 
ATOM      6  C   UNL     1     -34.671  24.946   5.573  0.00  0.00    +0.044 C 
ENDROOT
BRANCH   1   9
ATOM      7  O   UNL     1     -38.615  26.349   2.949  0.00  0.00    -0.126 OA
ATOM      8  O   UNL     1     -37.098  25.999   1.401  0.00  0.00    -0.126 OA
ATOM      9  N   UNL     1     -37.455  26.019   2.604  0.00  0.00    +0.058 N 
ENDBRANCH   1   9
BRANCH   2  12
ATOM     10  O   UNL     1     -33.265  28.038   4.486  0.00  0.00    -0.126 OA
ATOM     11  O   UNL     1     -32.699  26.740   6.164  0.00  0.00    -0.126 OA
ATOM     12  N   UNL     1     -33.446  27.019   5.194  0.00  0.00    +0.058 N 
ENDBRANCH   2  12
BRANCH   4  14
ATOM     13  O   UNL     1     -35.090  21.039   4.724  0.00  0.00    -0.210 OA
ATOM     14  N   UNL     1     -35.876  22.884   5.961  0.00  0.00    -0.167 NA
ATOM     15  C   UNL     1     -35.482  21.961   5.342  0.00  0.00    +0.240 C 
ENDBRANCH   4  14
TORSDOF 3
ENDMDL
MODEL 7
REMARK VINA RESULT:      -5.0      1.729      4.237
REMARK  Name = 194087
REMARK  3 active torsions:
REMARK  status: ('A' for Active; 'I' for Inactive)
REMARK    1  A    between atoms: C_1  and  N_9
REMARK    2  A    between atoms: C_2  and  N_12
REMARK    3  A    between atoms: C_4  and  N_14
REMARK                            x       y       z     vdW  Elec       q    Type
REMARK                         _______ _______ _______ _____ _____    ______ ____
ROOT
ATOM      1  C   UNL     1     -35.938  22.702   4.018  0.00  0.00    +0.146 C 
ATOM      2  C   UNL     1     -35.808  25.098   4.294  0.00  0.00    +0.146 C 
ATOM      3  C   UNL     1     -35.298  23.824   4.542  0.00  0.00    +0.048 C 
ATOM      4  C   UNL     1     -37.600  24.127   2.996  0.00  0.00    +0.097 C 
ATOM      5  C   UNL     1     -37.090  22.853   3.245  0.00  0.00    +0.044 C 
ATOM      6  C   UNL     1     -36.959  25.249   3.521  0.00  0.00    +0.044 C 
ENDROOT
BRANCH   1   9
ATOM      7  O   UNL     1     -35.065  21.109   5.438  0.00  0.00    -0.126 OA
ATOM      8  O   UNL     1     -35.329  20.589   3.321  0.00  0.00    -0.126 OA
ATOM      9  N   UNL     1     -35.419  21.405   4.271  0.00  0.00    +0.058 N 
ENDBRANCH   1   9
BRANCH   2  12
ATOM     10  O   UNL     1     -35.067  27.275   4.123  0.00  0.00    -0.126 OA
ATOM     11  O   UNL     1     -34.688  26.186   5.991  0.00  0.00    -0.126 OA
ATOM     12  N   UNL     1     -35.157  26.242   4.828  0.00  0.00    +0.058 N 
ENDBRANCH   2  12
BRANCH   4  14
ATOM     13  O   UNL     1     -40.120  22.359   2.238  0.00  0.00    -0.210 OA
ATOM     14  N   UNL     1     -38.754  24.278   2.221  0.00  0.00    -0.167 NA
ATOM     15  C   UNL     1     -39.438  23.317   2.230  0.00  0.00    +0.240 C 
ENDBRANCH   4  14
TORSDOF 3
ENDMDL
MODEL 8
REMARK VINA RESULT:      -5.0      2.505      4.898
REMARK  Name = 194087
REMARK  3 active torsions:
REMARK  status: ('A' for Active; 'I' for Inactive)
REMARK    1  A    between atoms: C_1  and  N_9
REMARK    2  A    between atoms: C_2  and  N_12
REMARK    3  A    between atoms: C_4  and  N_14
REMARK                            x       y       z     vdW  Elec       q    Type
REMARK                         _______ _______ _______ _____ _____    ______ ____
ROOT
ATOM      1  C   UNL     1     -34.479  25.339   4.420  0.00  0.00    +0.146 C 
ATOM      2  C   UNL     1     -35.141  23.031   4.691  0.00  0.00    +0.146 C 
ATOM      3  C   UNL     1     -34.761  24.252   5.248  0.00  0.00    +0.048 C 
ATOM      4  C   UNL     1     -34.955  23.983   2.478  0.00  0.00    +0.097 C 
ATOM      5  C   UNL     1     -34.575  25.204   3.035  0.00  0.00    +0.044 C 
ATOM      6  C   UNL     1     -35.237  22.896   3.306  0.00  0.00    +0.044 C 
ENDROOT
BRANCH   1   9
ATOM      7  O   UNL     1     -33.719  26.614   6.185  0.00  0.00    -0.126 OA
ATOM      8  O   UNL     1     -34.134  27.614   4.275  0.00  0.00    -0.126 OA
ATOM      9  N   UNL     1     -34.092  26.582   4.987  0.00  0.00    +0.058 N 
ENDBRANCH   1   9
BRANCH   2  12
ATOM     10  O   UNL     1     -35.059  20.778   5.179  0.00  0.00    -0.126 OA
ATOM     11  O   UNL     1     -36.043  22.122   6.609  0.00  0.00    -0.126 OA
ATOM     12  N   UNL     1     -35.427  21.924   5.533  0.00  0.00    +0.058 N 
ENDBRANCH   2  12
BRANCH   4  14
ATOM     13  O   UNL     1     -33.613  22.191   0.234  0.00  0.00    -0.210 OA
ATOM     14  N   UNL     1     -35.053  23.848   1.089  0.00  0.00    -0.167 NA
ATOM     15  C   UNL     1     -34.332  23.018   0.661  0.00  0.00    +0.240 C 
ENDBRANCH   4  14
TORSDOF 3
ENDMDL
MODEL 9
REMARK VINA RESULT:      -4.8      2.678      4.881
REMARK  Name = 194087
REMARK  3 active torsions:
REMARK  status: ('A' for Active; 'I' for Inactive)
REMARK    1  A    between atoms: C_1  and  N_9
REMARK    2  A    between atoms: C_2  and  N_12
REMARK    3  A    between atoms: C_4  and  N_14
REMARK                            x       y       z     vdW  Elec       q    Type
REMARK                         _______ _______ _______ _____ _____    ______ ____
ROOT
ATOM      1  C   UNL     1     -38.306  24.834   2.650  0.00  0.00    +0.146 C 
ATOM      2  C   UNL     1     -38.557  22.480   2.167  0.00  0.00    +0.146 C 
ATOM      3  C   UNL     1     -39.022  23.791   2.063  0.00  0.00    +0.048 C 
ATOM      4  C   UNL     1     -36.660  23.255   3.448  0.00  0.00    +0.097 C 
ATOM      5  C   UNL     1     -37.125  24.566   3.343  0.00  0.00    +0.044 C 
ATOM      6  C   UNL     1     -37.377  22.212   2.860  0.00  0.00    +0.044 C 
ENDROOT
BRANCH   1   9
ATOM      7  O   UNL     1     -39.870  26.471   3.085  0.00  0.00    -0.126 OA
ATOM      8  O   UNL     1     -38.093  27.009   1.913  0.00  0.00    -0.126 OA
ATOM      9  N   UNL     1     -38.780  26.168   2.544  0.00  0.00    +0.058 N 
ENDBRANCH   1   9
BRANCH   2  12
ATOM     10  O   UNL     1     -38.782  20.806   0.598  0.00  0.00    -0.126 OA
ATOM     11  O   UNL     1     -40.415  21.120   2.031  0.00  0.00    -0.126 OA
ATOM     12  N   UNL     1     -39.286  21.418   1.570  0.00  0.00    +0.058 N 
ENDBRANCH   2  12
BRANCH   4  14
ATOM     13  O   UNL     1     -35.859  22.283   6.357  0.00  0.00    -0.210 OA
ATOM     14  N   UNL     1     -35.476  22.987   4.141  0.00  0.00    -0.167 NA
ATOM     15  C   UNL     1     -35.668  22.635   5.250  0.00  0.00    +0.240 C 
ENDBRANCH   4  14
TORSDOF 3
ENDMDL
