MODEL 1
REMARK VINA RESULT:      -6.4      0.000      0.000
REMARK  Name = 6029
REMARK  5 active torsions:
REMARK  status: ('A' for Active; 'I' for Inactive)
REMARK    1  A    between atoms: C2*_2  and  O2*_15
REMARK    2  A    between atoms: C3*_3  and  O3*_17
REMARK    3  A    between atoms: C1*_4  and  N1_8
REMARK    4  A    between atoms: C4*_5  and  C5*_19
REMARK    5  A    between atoms: C5*_19  and  O5*_20
REMARK                            x       y       z     vdW  Elec       q    Type
REMARK                         _______ _______ _______ _____ _____    ______ ____
ROOT
ATOM      1  O4* U   A   1     -35.241  22.893   3.969  0.00  0.00    -0.333 OA
ATOM      2  C2* U   A   1     -36.660  24.652   4.682  0.00  0.00    +0.187 C 
ATOM      3  C3* U   A   1     -35.390  24.690   5.506  0.00  0.00    +0.171 C 
ATOM      4  C1* U   A   1     -36.238  23.811   3.490  0.00  0.00    +0.229 C 
ATOM      5  C4* U   A   1     -34.833  23.289   5.296  0.00  0.00    +0.175 C 
ENDROOT
BRANCH   4   8
ATOM      6  O2  U   A   1     -36.098  21.086   2.759  0.00  0.00    -0.252 OA
ATOM      7  O4  U   A   1     -40.486  21.051   1.350  0.00  0.00    -0.270 OA
ATOM      8  N1  U   A   1     -37.329  23.065   2.931  0.00  0.00    -0.217 N 
ATOM      9  N3  U   A   1     -38.283  21.071   2.058  0.00  0.00    -0.236 N 
ATOM     10  C2  U   A   1     -37.154  21.701   2.597  0.00  0.00    +0.315 C 
ATOM     11  C6  U   A   1     -38.555  23.684   2.717  0.00  0.00    +0.076 C 
ATOM     12  C5  U   A   1     -39.622  23.071   2.202  0.00  0.00    +0.074 C 
ATOM     13  C4  U   A   1     -39.525  21.645   1.826  0.00  0.00    +0.254 C 
ATOM     14  H3  U   A   1     -38.185  20.122   1.817  0.00  0.00    +0.159 HD
ENDBRANCH   4   8
BRANCH   2  15
ATOM     15  O2* U   A   1     -37.096  25.944   4.309  0.00  0.00    -0.378 OA
ATOM     16  H2* U   A   1     -36.326  26.512   4.154  0.00  0.00    +0.211 HD
ENDBRANCH   2  15
BRANCH   3  17
ATOM     17  O3* U   A   1     -34.463  25.620   4.944  0.00  0.00    -0.379 OA
ATOM     18  H3* U   A   1     -34.949  26.317   4.476  0.00  0.00    +0.211 HD
ENDBRANCH   3  17
BRANCH   5  19
ATOM     19  C5* U   A   1     -35.382  22.269   6.285  0.00  0.00    +0.169 C 
BRANCH  19  20
ATOM     20  O5* U   A   1     -35.312  20.982   5.695  0.00  0.00    -0.379 OA
ATOM     21  H5* U   A   1     -36.209  20.637   5.564  0.00  0.00    +0.211 HD
ENDBRANCH  19  20
ENDBRANCH   5  19
TORSDOF 5
ENDMDL
MODEL 2
REMARK VINA RESULT:      -6.3      1.455      2.179
REMARK  Name = 6029
REMARK  5 active torsions:
REMARK  status: ('A' for Active; 'I' for Inactive)
REMARK    1  A    between atoms: C2*_2  and  O2*_15
REMARK    2  A    between atoms: C3*_3  and  O3*_17
REMARK    3  A    between atoms: C1*_4  and  N1_8
REMARK    4  A    between atoms: C4*_5  and  C5*_19
REMARK    5  A    between atoms: C5*_19  and  O5*_20
REMARK                            x       y       z     vdW  Elec       q    Type
REMARK                         _______ _______ _______ _____ _____    ______ ____
ROOT
ATOM      1  O4* U   A   1     -35.317  23.401   3.792  0.00  0.00    -0.333 OA
ATOM      2  C2* U   A   1     -36.241  25.181   5.053  0.00  0.00    +0.187 C 
ATOM      3  C3* U   A   1     -34.975  24.709   5.737  0.00  0.00    +0.171 C 
ATOM      4  C1* U   A   1     -36.074  24.615   3.654  0.00  0.00    +0.229 C 
ATOM      5  C4* U   A   1     -34.784  23.326   5.132  0.00  0.00    +0.175 C 
ENDROOT
BRANCH   4   8
ATOM      6  O2  U   A   1     -37.840  26.553   2.605  0.00  0.00    -0.252 OA
ATOM      7  O4  U   A   1     -40.872  23.341   1.288  0.00  0.00    -0.270 OA
ATOM      8  N1  U   A   1     -37.330  24.313   3.031  0.00  0.00    -0.217 N 
ATOM      9  N3  U   A   1     -39.349  24.952   1.950  0.00  0.00    -0.236 N 
ATOM     10  C2  U   A   1     -38.144  25.360   2.538  0.00  0.00    +0.315 C 
ATOM     11  C6  U   A   1     -37.747  22.991   2.913  0.00  0.00    +0.076 C 
ATOM     12  C5  U   A   1     -38.898  22.618   2.351  0.00  0.00    +0.074 C 
ATOM     13  C4  U   A   1     -39.806  23.650   1.811  0.00  0.00    +0.254 C 
ATOM     14  H3  U   A   1     -39.932  25.663   1.601  0.00  0.00    +0.159 HD
ENDBRANCH   4   8
BRANCH   2  15
ATOM     15  O2* U   A   1     -36.360  26.590   5.059  0.00  0.00    -0.378 OA
ATOM     16  H2* U   A   1     -36.637  26.887   5.939  0.00  0.00    +0.211 HD
ENDBRANCH   2  15
BRANCH   3  17
ATOM     17  O3* U   A   1     -33.868  25.519   5.342  0.00  0.00    -0.379 OA
ATOM     18  H3* U   A   1     -33.936  25.720   4.395  0.00  0.00    +0.211 HD
ENDBRANCH   3  17
BRANCH   5  19
ATOM     19  C5* U   A   1     -35.534  22.232   5.880  0.00  0.00    +0.169 C 
BRANCH  19  20
ATOM     20  O5* U   A   1     -35.139  20.974   5.361  0.00  0.00    -0.379 OA
ATOM     21  H5* U   A   1     -34.259  21.051   4.961  0.00  0.00    +0.211 HD
ENDBRANCH  19  20
ENDBRANCH   5  19
TORSDOF 5
ENDMDL
MODEL 3
REMARK VINA RESULT:      -6.1      2.873      5.695
REMARK  Name = 6029
REMARK  5 active torsions:
REMARK  status: ('A' for Active; 'I' for Inactive)
REMARK    1  A    between atoms: C2*_2  and  O2*_15
REMARK    2  A    between atoms: C3*_3  and  O3*_17
REMARK    3  A    between atoms: C1*_4  and  N1_8
REMARK    4  A    between atoms: C4*_5  and  C5*_19
REMARK    5  A    between atoms: C5*_19  and  O5*_20
REMARK                            x       y       z     vdW  Elec       q    Type
REMARK                         _______ _______ _______ _____ _____    ______ ____
ROOT
ATOM      1  O4* U   A   1     -36.282  24.157   5.333  0.00  0.00    -0.333 OA
ATOM      2  C2* U   A   1     -35.191  23.718   3.276  0.00  0.00    +0.187 C 
ATOM      3  C3* U   A   1     -36.009  22.502   3.659  0.00  0.00    +0.171 C 
ATOM      4  C1* U   A   1     -35.814  24.802   4.137  0.00  0.00    +0.229 C 
ATOM      5  C4* U   A   1     -36.231  22.725   5.149  0.00  0.00    +0.175 C 
ENDROOT
BRANCH   4   8
ATOM      6  O2  U   A   1     -35.145  27.002   2.496  0.00  0.00    -0.252 OA
ATOM      7  O4  U   A   1     -32.190  28.665   5.618  0.00  0.00    -0.270 OA
ATOM      8  N1  U   A   1     -34.874  25.825   4.497  0.00  0.00    -0.217 N 
ATOM      9  N3  U   A   1     -33.674  27.828   4.052  0.00  0.00    -0.236 N 
ATOM     10  C2  U   A   1     -34.609  26.887   3.600  0.00  0.00    +0.315 C 
ATOM     11  C6  U   A   1     -34.226  25.771   5.725  0.00  0.00    +0.076 C 
ATOM     12  C5  U   A   1     -33.337  26.675   6.142  0.00  0.00    +0.074 C 
ATOM     13  C4  U   A   1     -33.003  27.816   5.266  0.00  0.00    +0.254 C 
ATOM     14  H3  U   A   1     -33.473  28.576   3.444  0.00  0.00    +0.159 HD
ENDBRANCH   4   8
BRANCH   2  15
ATOM     15  O2* U   A   1     -35.273  24.005   1.895  0.00  0.00    -0.378 OA
ATOM     16  H2* U   A   1     -34.705  23.392   1.403  0.00  0.00    +0.211 HD
ENDBRANCH   2  15
BRANCH   3  17
ATOM     17  O3* U   A   1     -37.282  22.540   3.014  0.00  0.00    -0.379 OA
ATOM     18  H3* U   A   1     -37.546  23.463   2.873  0.00  0.00    +0.211 HD
ENDBRANCH   3  17
BRANCH   5  19
ATOM     19  C5* U   A   1     -35.105  22.176   6.014  0.00  0.00    +0.169 C 
BRANCH  19  20
ATOM     20  O5* U   A   1     -35.116  20.761   5.929  0.00  0.00    -0.379 OA
ATOM     21  H5* U   A   1     -34.352  20.403   6.408  0.00  0.00    +0.211 HD
ENDBRANCH  19  20
ENDBRANCH   5  19
TORSDOF 5
ENDMDL
MODEL 4
REMARK VINA RESULT:      -5.9      2.366      5.397
REMARK  Name = 6029
REMARK  5 active torsions:
REMARK  status: ('A' for Active; 'I' for Inactive)
REMARK    1  A    between atoms: C2*_2  and  O2*_15
REMARK    2  A    between atoms: C3*_3  and  O3*_17
REMARK    3  A    between atoms: C1*_4  and  N1_8
REMARK    4  A    between atoms: C4*_5  and  C5*_19
REMARK    5  A    between atoms: C5*_19  and  O5*_20
REMARK                            x       y       z     vdW  Elec       q    Type
REMARK                         _______ _______ _______ _____ _____    ______ ____
ROOT
ATOM      1  O4* U   A   1     -34.667  20.222   2.272  0.00  0.00    -0.333 OA
ATOM      2  C2* U   A   1     -36.836  21.043   1.785  0.00  0.00    +0.187 C 
ATOM      3  C3* U   A   1     -36.491  19.962   0.783  0.00  0.00    +0.171 C 
ATOM      4  C1* U   A   1     -35.839  20.771   2.898  0.00  0.00    +0.229 C 
ATOM      5  C4* U   A   1     -34.975  19.890   0.901  0.00  0.00    +0.175 C 
ENDROOT
BRANCH   4   8
ATOM      6  O2  U   A   1     -35.350  20.882   5.678  0.00  0.00    -0.252 OA
ATOM      7  O4  U   A   1     -34.442  25.398   5.522  0.00  0.00    -0.270 OA
ATOM      8  N1  U   A   1     -35.472  21.962   3.609  0.00  0.00    -0.217 N 
ATOM      9  N3  U   A   1     -34.898  23.131   5.598  0.00  0.00    -0.236 N 
ATOM     10  C2  U   A   1     -35.250  21.911   5.005  0.00  0.00    +0.315 C 
ATOM     11  C6  U   A   1     -35.336  23.165   2.925  0.00  0.00    +0.076 C 
ATOM     12  C5  U   A   1     -35.001  24.320   3.503  0.00  0.00    +0.074 C 
ATOM     13  C4  U   A   1     -34.751  24.354   4.959  0.00  0.00    +0.254 C 
ATOM     14  H3  U   A   1     -34.739  23.120   6.569  0.00  0.00    +0.159 HD
ENDBRANCH   4   8
BRANCH   2  15
ATOM     15  O2* U   A   1     -38.177  20.959   2.224  0.00  0.00    -0.378 OA
ATOM     16  H2* U   A   1     -38.756  21.387   1.575  0.00  0.00    +0.211 HD
ENDBRANCH   2  15
BRANCH   3  17
ATOM     17  O3* U   A   1     -37.025  18.707   1.205  0.00  0.00    -0.379 OA
ATOM     18  H3* U   A   1     -37.146  18.715   2.168  0.00  0.00    +0.211 HD
ENDBRANCH   3  17
BRANCH   5  19
ATOM     19  C5* U   A   1     -34.253  20.884   0.000  0.00  0.00    +0.169 C 
BRANCH  19  20
ATOM     20  O5* U   A   1     -32.864  20.815   0.271  0.00  0.00    -0.379 OA
ATOM     21  H5* U   A   1     -32.493  21.712   0.288  0.00  0.00    +0.211 HD
ENDBRANCH  19  20
ENDBRANCH   5  19
TORSDOF 5
ENDMDL
MODEL 5
REMARK VINA RESULT:      -5.9      2.627      4.009
REMARK  Name = 6029
REMARK  5 active torsions:
REMARK  status: ('A' for Active; 'I' for Inactive)
REMARK    1  A    between atoms: C2*_2  and  O2*_15
REMARK    2  A    between atoms: C3*_3  and  O3*_17
REMARK    3  A    between atoms: C1*_4  and  N1_8
REMARK    4  A    between atoms: C4*_5  and  C5*_19
REMARK    5  A    between atoms: C5*_19  and  O5*_20
REMARK                            x       y       z     vdW  Elec       q    Type
REMARK                         _______ _______ _______ _____ _____    ______ ____
ROOT
ATOM      1  O4* U   A   1     -34.796  26.150   1.739  0.00  0.00    -0.333 OA
ATOM      2  C2* U   A   1     -35.041  26.305   4.090  0.00  0.00    +0.187 C 
ATOM      3  C3* U   A   1     -34.303  27.533   3.598  0.00  0.00    +0.171 C 
ATOM      4  C1* U   A   1     -35.679  25.787   2.813  0.00  0.00    +0.229 C 
ATOM      5  C4* U   A   1     -33.807  27.079   2.232  0.00  0.00    +0.175 C 
ENDROOT
BRANCH   4   8
ATOM      6  O2  U   A   1     -37.770  24.429   4.140  0.00  0.00    -0.252 OA
ATOM      7  O4  U   A   1     -36.206  20.313   2.779  0.00  0.00    -0.270 OA
ATOM      8  N1  U   A   1     -35.843  24.362   2.821  0.00  0.00    -0.217 N 
ATOM      9  N3  U   A   1     -36.990  22.381   3.461  0.00  0.00    -0.236 N 
ATOM     10  C2  U   A   1     -36.927  23.779   3.519  0.00  0.00    +0.315 C 
ATOM     11  C6  U   A   1     -34.935  23.555   2.143  0.00  0.00    +0.076 C 
ATOM     12  C5  U   A   1     -35.008  22.224   2.098  0.00  0.00    +0.074 C 
ATOM     13  C4  U   A   1     -36.110  21.536   2.800  0.00  0.00    +0.254 C 
ATOM     14  H3  U   A   1     -37.735  21.953   3.940  0.00  0.00    +0.159 HD
ENDBRANCH   4   8
BRANCH   2  15
ATOM     15  O2* U   A   1     -35.993  26.617   5.087  0.00  0.00    -0.378 OA
ATOM     16  H2* U   A   1     -35.541  26.769   5.931  0.00  0.00    +0.211 HD
ENDBRANCH   2  15
BRANCH   3  17
ATOM     17  O3* U   A   1     -35.216  28.612   3.398  0.00  0.00    -0.379 OA
ATOM     18  H3* U   A   1     -36.098  28.349   3.706  0.00  0.00    +0.211 HD
ENDBRANCH   3  17
BRANCH   5  19
ATOM     19  C5* U   A   1     -32.466  26.359   2.287  0.00  0.00    +0.169 C 
BRANCH  19  20
ATOM     20  O5* U   A   1     -31.672  26.954   3.299  0.00  0.00    -0.379 OA
ATOM     21  H5* U   A   1     -32.193  27.036   4.113  0.00  0.00    +0.211 HD
ENDBRANCH  19  20
ENDBRANCH   5  19
TORSDOF 5
ENDMDL
MODEL 6
REMARK VINA RESULT:      -5.9      2.201      3.365
REMARK  Name = 6029
REMARK  5 active torsions:
REMARK  status: ('A' for Active; 'I' for Inactive)
REMARK    1  A    between atoms: C2*_2  and  O2*_15
REMARK    2  A    between atoms: C3*_3  and  O3*_17
REMARK    3  A    between atoms: C1*_4  and  N1_8
REMARK    4  A    between atoms: C4*_5  and  C5*_19
REMARK    5  A    between atoms: C5*_19  and  O5*_20
REMARK                            x       y       z     vdW  Elec       q    Type
REMARK                         _______ _______ _______ _____ _____    ______ ____
ROOT
ATOM      1  O4* U   A   1     -36.729  24.212   4.630  0.00  0.00    -0.333 OA
ATOM      2  C2* U   A   1     -35.445  22.279   4.153  0.00  0.00    +0.187 C 
ATOM      3  C3* U   A   1     -35.224  22.661   5.601  0.00  0.00    +0.171 C 
ATOM      4  C1* U   A   1     -36.726  23.024   3.821  0.00  0.00    +0.229 C 
ATOM      5  C4* U   A   1     -35.683  24.113   5.620  0.00  0.00    +0.175 C 
ENDROOT
BRANCH   4   8
ATOM      6  O2  U   A   1     -37.760  21.379   1.772  0.00  0.00    -0.252 OA
ATOM      7  O4  U   A   1     -36.952  24.573  -1.451  0.00  0.00    -0.270 OA
ATOM      8  N1  U   A   1     -36.799  23.401   2.439  0.00  0.00    -0.217 N 
ATOM      9  N3  U   A   1     -37.357  22.970   0.169  0.00  0.00    -0.236 N 
ATOM     10  C2  U   A   1     -37.335  22.500   1.488  0.00  0.00    +0.315 C 
ATOM     11  C6  U   A   1     -36.341  24.650   2.035  0.00  0.00    +0.076 C 
ATOM     12  C5  U   A   1     -36.368  25.084   0.773  0.00  0.00    +0.074 C 
ATOM     13  C4  U   A   1     -36.913  24.205  -0.282  0.00  0.00    +0.254 C 
ATOM     14  H3  U   A   1     -37.726  22.361  -0.511  0.00  0.00    +0.159 HD
ENDBRANCH   4   8
BRANCH   2  15
ATOM     15  O2* U   A   1     -35.568  20.881   3.981  0.00  0.00    -0.378 OA
ATOM     16  H2* U   A   1     -34.933  20.427   4.556  0.00  0.00    +0.211 HD
ENDBRANCH   2  15
BRANCH   3  17
ATOM     17  O3* U   A   1     -36.097  21.914   6.449  0.00  0.00    -0.379 OA
ATOM     18  H3* U   A   1     -36.354  22.459   7.209  0.00  0.00    +0.211 HD
ENDBRANCH   3  17
BRANCH   5  19
ATOM     19  C5* U   A   1     -34.582  25.097   5.246  0.00  0.00    +0.169 C 
BRANCH  19  20
ATOM     20  O5* U   A   1     -35.089  26.414   5.372  0.00  0.00    -0.379 OA
ATOM     21  H5* U   A   1     -35.892  26.504   4.834  0.00  0.00    +0.211 HD
ENDBRANCH  19  20
ENDBRANCH   5  19
TORSDOF 5
ENDMDL
MODEL 7
REMARK VINA RESULT:      -5.8      2.296      5.295
REMARK  Name = 6029
REMARK  5 active torsions:
REMARK  status: ('A' for Active; 'I' for Inactive)
REMARK    1  A    between atoms: C2*_2  and  O2*_15
REMARK    2  A    between atoms: C3*_3  and  O3*_17
REMARK    3  A    between atoms: C1*_4  and  N1_8
REMARK    4  A    between atoms: C4*_5  and  C5*_19
REMARK    5  A    between atoms: C5*_19  and  O5*_20
REMARK                            x       y       z     vdW  Elec       q    Type
REMARK                         _______ _______ _______ _____ _____    ______ ____
ROOT
ATOM      1  O4* U   A   1     -37.532  23.031   3.266  0.00  0.00    -0.333 OA
ATOM      2  C2* U   A   1     -36.448  23.967   1.379  0.00  0.00    +0.187 C 
ATOM      3  C3* U   A   1     -37.205  22.731   0.939  0.00  0.00    +0.171 C 
ATOM      4  C1* U   A   1     -37.109  24.286   2.708  0.00  0.00    +0.229 C 
ATOM      5  C4* U   A   1     -37.418  22.003   2.259  0.00  0.00    +0.175 C 
ENDROOT
BRANCH   4   8
ATOM      6  O2  U   A   1     -36.420  27.024   2.617  0.00  0.00    -0.252 OA
ATOM      7  O4  U   A   1     -33.654  26.636   6.283  0.00  0.00    -0.270 OA
ATOM      8  N1  U   A   1     -36.212  24.927   3.627  0.00  0.00    -0.217 N 
ATOM      9  N3  U   A   1     -35.043  26.829   4.442  0.00  0.00    -0.236 N 
ATOM     10  C2  U   A   1     -35.932  26.307   3.493  0.00  0.00    +0.315 C 
ATOM     11  C6  U   A   1     -35.620  24.190   4.646  0.00  0.00    +0.076 C 
ATOM     12  C5  U   A   1     -34.774  24.701   5.543  0.00  0.00    +0.074 C 
ATOM     13  C4  U   A   1     -34.428  26.135   5.474  0.00  0.00    +0.254 C 
ATOM     14  H3  U   A   1     -34.832  27.787   4.369  0.00  0.00    +0.159 HD
ENDBRANCH   4   8
BRANCH   2  15
ATOM     15  O2* U   A   1     -36.561  25.024   0.447  0.00  0.00    -0.378 OA
ATOM     16  H2* U   A   1     -37.007  24.704  -0.352  0.00  0.00    +0.211 HD
ENDBRANCH   2  15
BRANCH   3  17
ATOM     17  O3* U   A   1     -38.487  23.093   0.425  0.00  0.00    -0.379 OA
ATOM     18  H3* U   A   1     -38.831  22.370  -0.123  0.00  0.00    +0.211 HD
ENDBRANCH   3  17
BRANCH   5  19
ATOM     19  C5* U   A   1     -36.258  21.093   2.639  0.00  0.00    +0.169 C 
BRANCH  19  20
ATOM     20  O5* U   A   1     -36.712  19.751   2.632  0.00  0.00    -0.379 OA
ATOM     21  H5* U   A   1     -37.612  19.716   2.272  0.00  0.00    +0.211 HD
ENDBRANCH  19  20
ENDBRANCH   5  19
TORSDOF 5
ENDMDL
MODEL 8
REMARK VINA RESULT:      -5.8      2.233      5.551
REMARK  Name = 6029
REMARK  5 active torsions:
REMARK  status: ('A' for Active; 'I' for Inactive)
REMARK    1  A    between atoms: C2*_2  and  O2*_15
REMARK    2  A    between atoms: C3*_3  and  O3*_17
REMARK    3  A    between atoms: C1*_4  and  N1_8
REMARK    4  A    between atoms: C4*_5  and  C5*_19
REMARK    5  A    between atoms: C5*_19  and  O5*_20
REMARK                            x       y       z     vdW  Elec       q    Type
REMARK                         _______ _______ _______ _____ _____    ______ ____
ROOT
ATOM      1  O4* U   A   1     -37.632  25.063   2.018  0.00  0.00    -0.333 OA
ATOM      2  C2* U   A   1     -37.475  22.978   3.133  0.00  0.00    +0.187 C 
ATOM      3  C3* U   A   1     -38.711  22.968   2.258  0.00  0.00    +0.171 C 
ATOM      4  C1* U   A   1     -36.676  24.123   2.537  0.00  0.00    +0.229 C 
ATOM      5  C4* U   A   1     -38.941  24.453   2.014  0.00  0.00    +0.175 C 
ENDROOT
BRANCH   4   8
ATOM      6  O2  U   A   1     -33.959  24.787   2.143  0.00  0.00    -0.252 OA
ATOM      7  O4  U   A   1     -33.617  26.653   6.343  0.00  0.00    -0.270 OA
ATOM      8  N1  U   A   1     -35.854  24.784   3.510  0.00  0.00    -0.217 N 
ATOM      9  N3  U   A   1     -33.791  25.716   4.234  0.00  0.00    -0.236 N 
ATOM     10  C2  U   A   1     -34.501  25.071   3.213  0.00  0.00    +0.315 C 
ATOM     11  C6  U   A   1     -36.388  25.139   4.743  0.00  0.00    +0.076 C 
ATOM     12  C5  U   A   1     -35.699  25.753   5.707  0.00  0.00    +0.074 C 
ATOM     13  C4  U   A   1     -34.279  26.089   5.478  0.00  0.00    +0.254 C 
ATOM     14  H3  U   A   1     -32.847  25.925   4.051  0.00  0.00    +0.159 HD
ENDBRANCH   4   8
BRANCH   2  15
ATOM     15  O2* U   A   1     -36.779  21.749   3.091  0.00  0.00    -0.378 OA
ATOM     16  H2* U   A   1     -37.007  21.276   2.276  0.00  0.00    +0.211 HD
ENDBRANCH   2  15
BRANCH   3  17
ATOM     17  O3* U   A   1     -38.422  22.355   1.001  0.00  0.00    -0.379 OA
ATOM     18  H3* U   A   1     -37.497  22.525   0.764  0.00  0.00    +0.211 HD
ENDBRANCH   3  17
BRANCH   5  19
ATOM     19  C5* U   A   1     -39.777  25.119   3.099  0.00  0.00    +0.169 C 
BRANCH  19  20
ATOM     20  O5* U   A   1     -39.278  26.427   3.318  0.00  0.00    -0.379 OA
ATOM     21  H5* U   A   1     -40.001  27.005   3.606  0.00  0.00    +0.211 HD
ENDBRANCH  19  20
ENDBRANCH   5  19
TORSDOF 5
ENDMDL
MODEL 9
REMARK VINA RESULT:      -5.7      2.273      5.190
REMARK  Name = 6029
REMARK  5 active torsions:
REMARK  status: ('A' for Active; 'I' for Inactive)
REMARK    1  A    between atoms: C2*_2  and  O2*_15
REMARK    2  A    between atoms: C3*_3  and  O3*_17
REMARK    3  A    between atoms: C1*_4  and  N1_8
REMARK    4  A    between atoms: C4*_5  and  C5*_19
REMARK    5  A    between atoms: C5*_19  and  O5*_20
REMARK                            x       y       z     vdW  Elec       q    Type
REMARK                         _______ _______ _______ _____ _____    ______ ____
ROOT
ATOM      1  O4* U   A   1     -35.712  21.200   3.433  0.00  0.00    -0.333 OA
ATOM      2  C2* U   A   1     -36.842  22.556   1.853  0.00  0.00    +0.187 C 
ATOM      3  C3* U   A   1     -37.066  21.102   1.492  0.00  0.00    +0.171 C 
ATOM      4  C1* U   A   1     -36.397  22.456   3.301  0.00  0.00    +0.229 C 
ATOM      5  C4* U   A   1     -35.939  20.410   2.245  0.00  0.00    +0.175 C 
ENDROOT
BRANCH   4   8
ATOM      6  O2  U   A   1     -35.940  23.296   5.959  0.00  0.00    -0.252 OA
ATOM      7  O4  U   A   1     -32.951  26.537   4.615  0.00  0.00    -0.270 OA
ATOM      8  N1  U   A   1     -35.504  23.516   3.674  0.00  0.00    -0.217 N 
ATOM      9  N3  U   A   1     -34.452  24.909   5.287  0.00  0.00    -0.236 N 
ATOM     10  C2  U   A   1     -35.347  23.860   5.037  0.00  0.00    +0.315 C 
ATOM     11  C6  U   A   1     -34.795  24.203   2.695  0.00  0.00    +0.076 C 
ATOM     12  C5  U   A   1     -33.946  25.201   2.949  0.00  0.00    +0.074 C 
ATOM     13  C4  U   A   1     -33.724  25.623   4.347  0.00  0.00    +0.254 C 
ATOM     14  H3  U   A   1     -34.327  25.166   6.229  0.00  0.00    +0.159 HD
ENDBRANCH   4   8
BRANCH   2  15
ATOM     15  O2* U   A   1     -38.012  23.333   1.695  0.00  0.00    -0.378 OA
ATOM     16  H2* U   A   1     -38.118  23.917   2.462  0.00  0.00    +0.211 HD
ENDBRANCH   2  15
BRANCH   3  17
ATOM     17  O3* U   A   1     -38.304  20.643   2.034  0.00  0.00    -0.379 OA
ATOM     18  H3* U   A   1     -39.003  20.737   1.368  0.00  0.00    +0.211 HD
ENDBRANCH   3  17
BRANCH   5  19
ATOM     19  C5* U   A   1     -34.636  20.351   1.459  0.00  0.00    +0.169 C 
BRANCH  19  20
ATOM     20  O5* U   A   1     -34.043  19.080   1.659  0.00  0.00    -0.379 OA
ATOM     21  H5* U   A   1     -33.878  18.945   2.605  0.00  0.00    +0.211 HD
ENDBRANCH  19  20
ENDBRANCH   5  19
TORSDOF 5
ENDMDL
