MODEL 1
REMARK VINA RESULT:      -4.8      0.000      0.000
REMARK  Name = 191409
REMARK  7 active torsions:
REMARK  status: ('A' for Active; 'I' for Inactive)
REMARK    1  A    between atoms: C_2  and  C_5
REMARK    2  A    between atoms: C_3  and  C_13
REMARK    3  A    between atoms: C_6  and  C_7
REMARK    4  A    between atoms: C_7  and  O_8
REMARK    5  A    between atoms: O_8  and  S_9
REMARK    6  A    between atoms: C_13  and  O_14
REMARK    7  A    between atoms: O_14  and  S_15
REMARK                            x       y       z     vdW  Elec       q    Type
REMARK                         _______ _______ _______ _____ _____    ______ ____
ROOT
ATOM      1  O   UNL     1     -34.515  27.162   4.477  0.00  0.00    -0.348 OA
ATOM      2  C   UNL     1     -33.373  27.058   5.337  0.00  0.00    +0.174 C 
ATOM      3  C   UNL     1     -33.767  25.941   4.415  0.00  0.00    +0.177 C 
ENDROOT
BRANCH   2   5
ATOM      4  O   UNL     1     -32.620  29.408   5.153  0.00  0.00    -0.348 OA
ATOM      5  C   UNL     1     -32.263  28.025   5.029  0.00  0.00    +0.174 C 
ATOM      6  C   UNL     1     -31.643  28.906   6.069  0.00  0.00    +0.177 C 
BRANCH   6   7
ATOM      7  C   UNL     1     -30.281  29.472   5.851  0.00  0.00    +0.204 C 
BRANCH   7   8
ATOM      8  O   UNL     1     -29.529  29.370   7.049  0.00  0.00    -0.239 OA
BRANCH   8   9
ATOM      9  S   UNL     1     -28.268  28.331   7.100  0.00  0.00    -0.005 S 
ATOM     10  O   UNL     1     -27.415  28.664   8.222  0.00  0.00    -0.072 OA
ATOM     11  O   UNL     1     -28.747  26.983   6.872  0.00  0.00    -0.072 OA
ATOM     12  C   UNL     1     -27.475  28.894   5.616  0.00  0.00    +0.181 C 
ENDBRANCH   8   9
ENDBRANCH   7   8
ENDBRANCH   6   7
ENDBRANCH   2   5
BRANCH   3  13
ATOM     13  C   UNL     1     -34.500  24.764   4.934  0.00  0.00    +0.204 C 
BRANCH  13  14
ATOM     14  O   UNL     1     -34.636  23.787   3.907  0.00  0.00    -0.239 OA
BRANCH  14  15
ATOM     15  S   UNL     1     -35.757  22.614   4.089  0.00  0.00    -0.005 S 
ATOM     16  O   UNL     1     -37.078  23.208   4.108  0.00  0.00    -0.072 OA
ATOM     17  O   UNL     1     -35.428  21.497   3.227  0.00  0.00    -0.072 OA
ATOM     18  C   UNL     1     -35.324  22.175   5.753  0.00  0.00    +0.181 C 
ENDBRANCH  14  15
ENDBRANCH  13  14
ENDBRANCH   3  13
TORSDOF 7
ENDMDL
MODEL 2
REMARK VINA RESULT:      -4.8      2.424      8.370
REMARK  Name = 191409
REMARK  7 active torsions:
REMARK  status: ('A' for Active; 'I' for Inactive)
REMARK    1  A    between atoms: C_2  and  C_5
REMARK    2  A    between atoms: C_3  and  C_13
REMARK    3  A    between atoms: C_6  and  C_7
REMARK    4  A    between atoms: C_7  and  O_8
REMARK    5  A    between atoms: O_8  and  S_9
REMARK    6  A    between atoms: C_13  and  O_14
REMARK    7  A    between atoms: O_14  and  S_15
REMARK                            x       y       z     vdW  Elec       q    Type
REMARK                         _______ _______ _______ _____ _____    ______ ____
ROOT
ATOM      1  O   UNL     1     -35.670  26.523   5.225  0.00  0.00    -0.348 OA
ATOM      2  C   UNL     1     -35.299  25.621   4.175  0.00  0.00    +0.174 C 
ATOM      3  C   UNL     1     -34.337  25.997   5.265  0.00  0.00    +0.177 C 
ENDROOT
BRANCH   2   5
ATOM      4  O   UNL     1     -37.469  24.451   4.398  0.00  0.00    -0.348 OA
ATOM      5  C   UNL     1     -36.061  24.324   4.162  0.00  0.00    +0.174 C 
ATOM      6  C   UNL     1     -37.069  23.985   3.108  0.00  0.00    +0.177 C 
BRANCH   6   7
ATOM      7  C   UNL     1     -37.432  22.562   2.853  0.00  0.00    +0.204 C 
BRANCH   7   8
ATOM      8  O   UNL     1     -36.659  22.062   1.773  0.00  0.00    -0.239 OA
BRANCH   8   9
ATOM      9  S   UNL     1     -35.803  20.687   1.990  0.00  0.00    -0.005 S 
ATOM     10  O   UNL     1     -35.386  20.593   3.374  0.00  0.00    -0.072 OA
ATOM     11  O   UNL     1     -36.471  19.594   1.313  0.00  0.00    -0.072 OA
ATOM     12  C   UNL     1     -34.396  21.161   1.019  0.00  0.00    +0.181 C 
ENDBRANCH   8   9
ENDBRANCH   7   8
ENDBRANCH   6   7
ENDBRANCH   2   5
BRANCH   3  13
ATOM     13  C   UNL     1     -33.287  27.010   5.019  0.00  0.00    +0.204 C 
BRANCH  13  14
ATOM     14  O   UNL     1     -32.819  27.533   6.258  0.00  0.00    -0.239 OA
BRANCH  14  15
ATOM     15  S   UNL     1     -31.525  28.526   6.249  0.00  0.00    -0.005 S 
ATOM     16  O   UNL     1     -31.719  29.583   7.220  0.00  0.00    -0.072 OA
ATOM     17  O   UNL     1     -30.312  27.735   6.206  0.00  0.00    -0.072 OA
ATOM     18  C   UNL     1     -31.800  29.204   4.632  0.00  0.00    +0.181 C 
ENDBRANCH  14  15
ENDBRANCH  13  14
ENDBRANCH   3  13
TORSDOF 7
ENDMDL
MODEL 3
REMARK VINA RESULT:      -4.8      1.104      8.276
REMARK  Name = 191409
REMARK  7 active torsions:
REMARK  status: ('A' for Active; 'I' for Inactive)
REMARK    1  A    between atoms: C_2  and  C_5
REMARK    2  A    between atoms: C_3  and  C_13
REMARK    3  A    between atoms: C_6  and  C_7
REMARK    4  A    between atoms: C_7  and  O_8
REMARK    5  A    between atoms: O_8  and  S_9
REMARK    6  A    between atoms: C_13  and  O_14
REMARK    7  A    between atoms: O_14  and  S_15
REMARK                            x       y       z     vdW  Elec       q    Type
REMARK                         _______ _______ _______ _____ _____    ______ ____
ROOT
ATOM      1  O   UNL     1     -32.501  29.380   5.338  0.00  0.00    -0.348 OA
ATOM      2  C   UNL     1     -32.187  27.981   5.304  0.00  0.00    +0.174 C 
ATOM      3  C   UNL     1     -31.620  28.889   6.356  0.00  0.00    +0.177 C 
ENDROOT
BRANCH   2   5
ATOM      4  O   UNL     1     -34.426  27.194   4.601  0.00  0.00    -0.348 OA
ATOM      5  C   UNL     1     -33.358  27.068   5.548  0.00  0.00    +0.174 C 
ATOM      6  C   UNL     1     -33.722  25.950   4.622  0.00  0.00    +0.177 C 
BRANCH   6   7
ATOM      7  C   UNL     1     -34.546  24.811   5.117  0.00  0.00    +0.204 C 
BRANCH   7   8
ATOM      8  O   UNL     1     -34.631  23.815   4.109  0.00  0.00    -0.239 OA
BRANCH   8   9
ATOM      9  S   UNL     1     -35.788  22.667   4.234  0.00  0.00    -0.005 S 
ATOM     10  O   UNL     1     -35.404  21.511   3.450  0.00  0.00    -0.072 OA
ATOM     11  O   UNL     1     -36.205  22.554   5.617  0.00  0.00    -0.072 OA
ATOM     12  C   UNL     1     -37.048  23.545   3.346  0.00  0.00    +0.181 C 
ENDBRANCH   8   9
ENDBRANCH   7   8
ENDBRANCH   6   7
ENDBRANCH   2   5
BRANCH   3  13
ATOM     13  C   UNL     1     -30.233  29.393   6.241  0.00  0.00    +0.204 C 
BRANCH  13  14
ATOM     14  O   UNL     1     -29.680  29.588   7.539  0.00  0.00    -0.239 OA
BRANCH  14  15
ATOM     15  S   UNL     1     -28.077  29.369   7.747  0.00  0.00    -0.005 S 
ATOM     16  O   UNL     1     -27.604  30.235   8.808  0.00  0.00    -0.072 OA
ATOM     17  O   UNL     1     -27.777  27.952   7.719  0.00  0.00    -0.072 OA
ATOM     18  C   UNL     1     -27.573  30.070   6.196  0.00  0.00    +0.181 C 
ENDBRANCH  14  15
ENDBRANCH  13  14
ENDBRANCH   3  13
TORSDOF 7
ENDMDL
MODEL 4
REMARK VINA RESULT:      -4.8      2.629      8.847
REMARK  Name = 191409
REMARK  7 active torsions:
REMARK  status: ('A' for Active; 'I' for Inactive)
REMARK    1  A    between atoms: C_2  and  C_5
REMARK    2  A    between atoms: C_3  and  C_13
REMARK    3  A    between atoms: C_6  and  C_7
REMARK    4  A    between atoms: C_7  and  O_8
REMARK    5  A    between atoms: O_8  and  S_9
REMARK    6  A    between atoms: C_13  and  O_14
REMARK    7  A    between atoms: O_14  and  S_15
REMARK                            x       y       z     vdW  Elec       q    Type
REMARK                         _______ _______ _______ _____ _____    ______ ____
ROOT
ATOM      1  O   UNL     1     -33.237  25.082   4.593  0.00  0.00    -0.348 OA
ATOM      2  C   UNL     1     -34.524  24.877   5.191  0.00  0.00    +0.174 C 
ATOM      3  C   UNL     1     -33.890  26.237   5.136  0.00  0.00    +0.177 C 
ENDROOT
BRANCH   2   5
ATOM      4  O   UNL     1     -36.641  23.647   4.829  0.00  0.00    -0.348 OA
ATOM      5  C   UNL     1     -35.597  24.431   4.236  0.00  0.00    +0.174 C 
ATOM      6  C   UNL     1     -37.007  24.928   4.311  0.00  0.00    +0.177 C 
BRANCH   6   7
ATOM      7  C   UNL     1     -37.889  24.851   3.111  0.00  0.00    +0.204 C 
BRANCH   7   8
ATOM      8  O   UNL     1     -38.753  23.732   3.229  0.00  0.00    -0.239 OA
BRANCH   8   9
ATOM      9  S   UNL     1     -39.057  22.831   1.899  0.00  0.00    -0.005 S 
ATOM     10  O   UNL     1     -40.211  21.989   2.143  0.00  0.00    -0.072 OA
ATOM     11  O   UNL     1     -38.950  23.665   0.719  0.00  0.00    -0.072 OA
ATOM     12  C   UNL     1     -37.604  21.819   1.996  0.00  0.00    +0.181 C 
ENDBRANCH   8   9
ENDBRANCH   7   8
ENDBRANCH   6   7
ENDBRANCH   2   5
BRANCH   3  13
ATOM     13  C   UNL     1     -33.217  26.798   6.329  0.00  0.00    +0.204 C 
BRANCH  13  14
ATOM     14  O   UNL     1     -31.950  27.334   5.963  0.00  0.00    -0.239 OA
BRANCH  14  15
ATOM     15  S   UNL     1     -31.766  28.955   5.932  0.00  0.00    -0.005 S 
ATOM     16  O   UNL     1     -32.656  29.522   4.939  0.00  0.00    -0.072 OA
ATOM     17  O   UNL     1     -31.706  29.459   7.289  0.00  0.00    -0.072 OA
ATOM     18  C   UNL     1     -30.120  28.961   5.267  0.00  0.00    +0.181 C 
ENDBRANCH  14  15
ENDBRANCH  13  14
ENDBRANCH   3  13
TORSDOF 7
ENDMDL
MODEL 5
REMARK VINA RESULT:      -4.7      6.960     10.256
REMARK  Name = 191409
REMARK  7 active torsions:
REMARK  status: ('A' for Active; 'I' for Inactive)
REMARK    1  A    between atoms: C_2  and  C_5
REMARK    2  A    between atoms: C_3  and  C_13
REMARK    3  A    between atoms: C_6  and  C_7
REMARK    4  A    between atoms: C_7  and  O_8
REMARK    5  A    between atoms: O_8  and  S_9
REMARK    6  A    between atoms: C_13  and  O_14
REMARK    7  A    between atoms: O_14  and  S_15
REMARK                            x       y       z     vdW  Elec       q    Type
REMARK                         _______ _______ _______ _____ _____    ______ ____
ROOT
ATOM      1  O   UNL     1     -39.607  25.201   1.757  0.00  0.00    -0.348 OA
ATOM      2  C   UNL     1     -40.330  25.534   2.950  0.00  0.00    +0.174 C 
ATOM      3  C   UNL     1     -38.846  25.734   2.849  0.00  0.00    +0.177 C 
ENDROOT
BRANCH   2   5
ATOM      4  O   UNL     1     -42.696  26.258   2.916  0.00  0.00    -0.348 OA
ATOM      5  C   UNL     1     -41.324  26.652   2.792  0.00  0.00    +0.174 C 
ATOM      6  C   UNL     1     -42.182  27.139   3.917  0.00  0.00    +0.177 C 
BRANCH   6   7
ATOM      7  C   UNL     1     -42.775  28.506   3.865  0.00  0.00    +0.204 C 
BRANCH   7   8
ATOM      8  O   UNL     1     -42.469  29.202   5.063  0.00  0.00    -0.239 OA
BRANCH   8   9
ATOM      9  S   UNL     1     -43.648  30.068   5.792  0.00  0.00    -0.005 S 
ATOM     10  O   UNL     1     -43.343  30.205   7.202  0.00  0.00    -0.072 OA
ATOM     11  O   UNL     1     -43.986  31.209   4.965  0.00  0.00    -0.072 OA
ATOM     12  C   UNL     1     -44.934  28.858   5.619  0.00  0.00    +0.181 C 
ENDBRANCH   8   9
ENDBRANCH   7   8
ENDBRANCH   6   7
ENDBRANCH   2   5
BRANCH   3  13
ATOM     13  C   UNL     1     -37.915  24.759   3.461  0.00  0.00    +0.204 C 
BRANCH  13  14
ATOM     14  O   UNL     1     -36.961  25.441   4.268  0.00  0.00    -0.239 OA
BRANCH  14  15
ATOM     15  S   UNL     1     -35.763  24.577   4.961  0.00  0.00    -0.005 S 
ATOM     16  O   UNL     1     -34.993  25.436   5.838  0.00  0.00    -0.072 OA
ATOM     17  O   UNL     1     -36.282  23.298   5.399  0.00  0.00    -0.072 OA
ATOM     18  C   UNL     1     -34.821  24.313   3.480  0.00  0.00    +0.181 C 
ENDBRANCH  14  15
ENDBRANCH  13  14
ENDBRANCH   3  13
TORSDOF 7
ENDMDL
MODEL 6
REMARK VINA RESULT:      -4.7      9.141     10.865
REMARK  Name = 191409
REMARK  7 active torsions:
REMARK  status: ('A' for Active; 'I' for Inactive)
REMARK    1  A    between atoms: C_2  and  C_5
REMARK    2  A    between atoms: C_3  and  C_13
REMARK    3  A    between atoms: C_6  and  C_7
REMARK    4  A    between atoms: C_7  and  O_8
REMARK    5  A    between atoms: O_8  and  S_9
REMARK    6  A    between atoms: C_13  and  O_14
REMARK    7  A    between atoms: O_14  and  S_15
REMARK                            x       y       z     vdW  Elec       q    Type
REMARK                         _______ _______ _______ _____ _____    ______ ____
ROOT
ATOM      1  O   UNL     1     -40.119  26.826   2.750  0.00  0.00    -0.348 OA
ATOM      2  C   UNL     1     -41.500  26.490   2.942  0.00  0.00    +0.174 C 
ATOM      3  C   UNL     1     -40.410  25.475   3.130  0.00  0.00    +0.177 C 
ENDROOT
BRANCH   2   5
ATOM      4  O   UNL     1     -41.500  28.391   4.527  0.00  0.00    -0.348 OA
ATOM      5  C   UNL     1     -42.167  27.201   4.087  0.00  0.00    +0.174 C 
ATOM      6  C   UNL     1     -42.796  28.553   3.946  0.00  0.00    +0.177 C 
BRANCH   6   7
ATOM      7  C   UNL     1     -43.831  28.999   4.923  0.00  0.00    +0.204 C 
BRANCH   7   8
ATOM      8  O   UNL     1     -43.259  29.932   5.826  0.00  0.00    -0.239 OA
BRANCH   8   9
ATOM      9  S   UNL     1     -44.120  30.383   7.139  0.00  0.00    -0.005 S 
ATOM     10  O   UNL     1     -43.326  30.170   8.332  0.00  0.00    -0.072 OA
ATOM     11  O   UNL     1     -44.779  31.645   6.871  0.00  0.00    -0.072 OA
ATOM     12  C   UNL     1     -45.334  29.093   7.046  0.00  0.00    +0.181 C 
ENDBRANCH   8   9
ENDBRANCH   7   8
ENDBRANCH   6   7
ENDBRANCH   2   5
BRANCH   3  13
ATOM     13  C   UNL     1     -40.121  24.482   2.070  0.00  0.00    +0.204 C 
BRANCH  13  14
ATOM     14  O   UNL     1     -39.669  23.266   2.658  0.00  0.00    -0.239 OA
BRANCH  14  15
ATOM     15  S   UNL     1     -39.497  21.953   1.703  0.00  0.00    -0.005 S 
ATOM     16  O   UNL     1     -38.091  21.625   1.583  0.00  0.00    -0.072 OA
ATOM     17  O   UNL     1     -40.491  20.963   2.063  0.00  0.00    -0.072 OA
ATOM     18  C   UNL     1     -40.014  22.731   0.194  0.00  0.00    +0.181 C 
ENDBRANCH  14  15
ENDBRANCH  13  14
ENDBRANCH   3  13
TORSDOF 7
ENDMDL
MODEL 7
REMARK VINA RESULT:      -4.6      6.652      8.481
REMARK  Name = 191409
REMARK  7 active torsions:
REMARK  status: ('A' for Active; 'I' for Inactive)
REMARK    1  A    between atoms: C_2  and  C_5
REMARK    2  A    between atoms: C_3  and  C_13
REMARK    3  A    between atoms: C_6  and  C_7
REMARK    4  A    between atoms: C_7  and  O_8
REMARK    5  A    between atoms: O_8  and  S_9
REMARK    6  A    between atoms: C_13  and  O_14
REMARK    7  A    between atoms: O_14  and  S_15
REMARK                            x       y       z     vdW  Elec       q    Type
REMARK                         _______ _______ _______ _____ _____    ______ ____
ROOT
ATOM      1  O   UNL     1     -35.243  20.589   3.546  0.00  0.00    -0.348 OA
ATOM      2  C   UNL     1     -35.476  21.831   2.869  0.00  0.00    +0.174 C 
ATOM      3  C   UNL     1     -35.806  20.514   2.230  0.00  0.00    +0.177 C 
ENDROOT
BRANCH   2   5
ATOM      4  O   UNL     1     -36.291  22.978   4.905  0.00  0.00    -0.348 OA
ATOM      5  C   UNL     1     -36.509  22.714   3.513  0.00  0.00    +0.174 C 
ATOM      6  C   UNL     1     -36.202  24.091   4.013  0.00  0.00    +0.177 C 
BRANCH   6   7
ATOM      7  C   UNL     1     -37.301  25.083   4.191  0.00  0.00    +0.204 C 
BRANCH   7   8
ATOM      8  O   UNL     1     -37.376  25.917   3.046  0.00  0.00    -0.239 OA
BRANCH   8   9
ATOM      9  S   UNL     1     -38.606  25.698   1.993  0.00  0.00    -0.005 S 
ATOM     10  O   UNL     1     -39.133  26.987   1.593  0.00  0.00    -0.072 OA
ATOM     11  O   UNL     1     -38.235  24.686   1.025  0.00  0.00    -0.072 OA
ATOM     12  C   UNL     1     -39.741  24.971   3.146  0.00  0.00    +0.181 C 
ENDBRANCH   8   9
ENDBRANCH   7   8
ENDBRANCH   6   7
ENDBRANCH   2   5
BRANCH   3  13
ATOM     13  C   UNL     1     -34.895  19.921   1.223  0.00  0.00    +0.204 C 
BRANCH  13  14
ATOM     14  O   UNL     1     -33.882  19.161   1.875  0.00  0.00    -0.239 OA
BRANCH  14  15
ATOM     15  S   UNL     1     -32.554  18.741   1.027  0.00  0.00    -0.005 S 
ATOM     16  O   UNL     1     -31.893  19.935   0.542  0.00  0.00    -0.072 OA
ATOM     17  O   UNL     1     -31.838  17.700   1.737  0.00  0.00    -0.072 OA
ATOM     18  C   UNL     1     -33.410  17.991  -0.335  0.00  0.00    +0.181 C 
ENDBRANCH  14  15
ENDBRANCH  13  14
ENDBRANCH   3  13
TORSDOF 7
ENDMDL
MODEL 8
REMARK VINA RESULT:      -4.6      7.992      9.753
REMARK  Name = 191409
REMARK  7 active torsions:
REMARK  status: ('A' for Active; 'I' for Inactive)
REMARK    1  A    between atoms: C_2  and  C_5
REMARK    2  A    between atoms: C_3  and  C_13
REMARK    3  A    between atoms: C_6  and  C_7
REMARK    4  A    between atoms: C_7  and  O_8
REMARK    5  A    between atoms: O_8  and  S_9
REMARK    6  A    between atoms: C_13  and  O_14
REMARK    7  A    between atoms: O_14  and  S_15
REMARK                            x       y       z     vdW  Elec       q    Type
REMARK                         _______ _______ _______ _____ _____    ______ ____
ROOT
ATOM      1  O   UNL     1     -37.940  22.718   3.043  0.00  0.00    -0.348 OA
ATOM      2  C   UNL     1     -38.635  23.418   2.003  0.00  0.00    +0.174 C 
ATOM      3  C   UNL     1     -38.509  21.923   1.995  0.00  0.00    +0.177 C 
ENDROOT
BRANCH   2   5
ATOM      4  O   UNL     1     -39.816  24.678   3.776  0.00  0.00    -0.348 OA
ATOM      5  C   UNL     1     -39.879  24.137   2.450  0.00  0.00    +0.174 C 
ATOM      6  C   UNL     1     -39.918  25.612   2.699  0.00  0.00    +0.177 C 
BRANCH   6   7
ATOM      7  C   UNL     1     -41.219  26.339   2.667  0.00  0.00    +0.204 C 
BRANCH   7   8
ATOM      8  O   UNL     1     -41.396  27.049   3.883  0.00  0.00    -0.239 OA
BRANCH   8   9
ATOM      9  S   UNL     1     -42.662  28.073   4.019  0.00  0.00    -0.005 S 
ATOM     10  O   UNL     1     -43.859  27.319   4.330  0.00  0.00    -0.072 OA
ATOM     11  O   UNL     1     -42.262  29.232   4.791  0.00  0.00    -0.072 OA
ATOM     12  C   UNL     1     -42.733  28.544   2.310  0.00  0.00    +0.181 C 
ENDBRANCH   8   9
ENDBRANCH   7   8
ENDBRANCH   6   7
ENDBRANCH   2   5
BRANCH   3  13
ATOM     13  C   UNL     1     -37.504  21.260   1.134  0.00  0.00    +0.204 C 
BRANCH  13  14
ATOM     14  O   UNL     1     -36.730  20.348   1.907  0.00  0.00    -0.239 OA
BRANCH  14  15
ATOM     15  S   UNL     1     -35.257  20.819   2.428  0.00  0.00    -0.005 S 
ATOM     16  O   UNL     1     -34.936  22.113   1.861  0.00  0.00    -0.072 OA
ATOM     17  O   UNL     1     -35.139  20.550   3.846  0.00  0.00    -0.072 OA
ATOM     18  C   UNL     1     -34.328  19.586   1.553  0.00  0.00    +0.181 C 
ENDBRANCH  14  15
ENDBRANCH  13  14
ENDBRANCH   3  13
TORSDOF 7
ENDMDL
MODEL 9
REMARK VINA RESULT:      -4.6      7.158      9.958
REMARK  Name = 191409
REMARK  7 active torsions:
REMARK  status: ('A' for Active; 'I' for Inactive)
REMARK    1  A    between atoms: C_2  and  C_5
REMARK    2  A    between atoms: C_3  and  C_13
REMARK    3  A    between atoms: C_6  and  C_7
REMARK    4  A    between atoms: C_7  and  O_8
REMARK    5  A    between atoms: O_8  and  S_9
REMARK    6  A    between atoms: C_13  and  O_14
REMARK    7  A    between atoms: O_14  and  S_15
REMARK                            x       y       z     vdW  Elec       q    Type
REMARK                         _______ _______ _______ _____ _____    ______ ____
ROOT
ATOM      1  O   UNL     1     -41.833  27.893   3.114  0.00  0.00    -0.348 OA
ATOM      2  C   UNL     1     -41.481  26.582   3.574  0.00  0.00    +0.174 C 
ATOM      3  C   UNL     1     -42.882  26.918   3.154  0.00  0.00    +0.177 C 
ENDROOT
BRANCH   2   5
ATOM      4  O   UNL     1     -39.437  26.643   2.179  0.00  0.00    -0.348 OA
ATOM      5  C   UNL     1     -40.512  25.844   2.691  0.00  0.00    +0.174 C 
ATOM      6  C   UNL     1     -39.089  25.591   3.082  0.00  0.00    +0.177 C 
BRANCH   6   7
ATOM      7  C   UNL     1     -38.324  24.485   2.437  0.00  0.00    +0.204 C 
BRANCH   7   8
ATOM      8  O   UNL     1     -37.916  23.552   3.425  0.00  0.00    -0.239 OA
BRANCH   8   9
ATOM      9  S   UNL     1     -36.339  23.498   3.851  0.00  0.00    -0.005 S 
ATOM     10  O   UNL     1     -35.622  24.560   3.175  0.00  0.00    -0.072 OA
ATOM     11  O   UNL     1     -36.235  23.291   5.281  0.00  0.00    -0.072 OA
ATOM     12  C   UNL     1     -35.957  21.968   3.040  0.00  0.00    +0.181 C 
ENDBRANCH   8   9
ENDBRANCH   7   8
ENDBRANCH   6   7
ENDBRANCH   2   5
BRANCH   3  13
ATOM     13  C   UNL     1     -43.921  27.199   4.170  0.00  0.00    +0.204 C 
BRANCH  13  14
ATOM     14  O   UNL     1     -44.318  28.565   4.091  0.00  0.00    -0.239 OA
BRANCH  14  15
ATOM     15  S   UNL     1     -44.145  29.506   5.413  0.00  0.00    -0.005 S 
ATOM     16  O   UNL     1     -44.976  28.993   6.483  0.00  0.00    -0.072 OA
ATOM     17  O   UNL     1     -42.742  29.811   5.607  0.00  0.00    -0.072 OA
ATOM     18  C   UNL     1     -44.935  30.947   4.741  0.00  0.00    +0.181 C 
ENDBRANCH  14  15
ENDBRANCH  13  14
ENDBRANCH   3  13
TORSDOF 7
ENDMDL
