MODEL 1
REMARK VINA RESULT:      -7.6      0.000      0.000
REMARK  Name = 50909779
REMARK  12 active torsions:
REMARK  status: ('A' for Active; 'I' for Inactive)
REMARK    1  A    between atoms: N_2  and  C_22
REMARK    2  A    between atoms: C_3  and  C_6
REMARK    3  A    between atoms: C_7  and  C_10
REMARK    4  A    between atoms: N_9  and  C_12
REMARK    5  A    between atoms: C_12  and  C_13
REMARK    6  A    between atoms: C_13  and  C_14
REMARK    7  A    between atoms: C_19  and  O_20
REMARK    8  A    between atoms: C_22  and  C_25
REMARK    9  A    between atoms: C_22  and  C_34
REMARK   10  A    between atoms: N_24  and  C_27
REMARK   11  A    between atoms: C_27  and  C_28
REMARK   12  A    between atoms: C_34  and  C_35
REMARK                            x       y       z     vdW  Elec       q    Type
REMARK                         _______ _______ _______ _____ _____    ______ ____
ROOT
ATOM      1  O   UNL     1     -33.176  29.684   1.498  0.00  0.00    -0.272 OA
ATOM      2  N   UNL     1     -33.676  29.844   3.767  0.00  0.00    -0.296 N 
ATOM      3  C   UNL     1     -33.950  29.936   2.414  0.00  0.00    +0.253 C 
ATOM      4  H   UNL     1     -34.389  30.076   4.406  0.00  0.00    +0.150 HD
ENDROOT
BRANCH   3   6
ATOM      5  O   UNL     1     -35.941  31.139   3.164  0.00  0.00    -0.335 OA
ATOM      6  C   UNL     1     -35.338  30.388   2.101  0.00  0.00    +0.227 C 
ATOM      7  C   UNL     1     -35.635  31.854   1.959  0.00  0.00    +0.227 C 
BRANCH   7  10
ATOM      8  O   UNL     1     -37.922  31.815   1.516  0.00  0.00    -0.272 OA
ATOM      9  N   UNL     1     -36.577  33.234   0.250  0.00  0.00    -0.302 N 
ATOM     10  C   UNL     1     -36.829  32.291   1.228  0.00  0.00    +0.253 C 
ATOM     11  H   UNL     1     -35.650  33.535   0.118  0.00  0.00    +0.150 HD
BRANCH   9  12
ATOM     12  C   UNL     1     -37.611  33.797  -0.588  0.00  0.00    +0.094 C 
BRANCH  12  13
ATOM     13  C   UNL     1     -37.856  35.277  -0.301  0.00  0.00    +0.048 C 
BRANCH  13  14
ATOM     14  C   UNL     1     -38.870  35.505   0.793  0.00  0.00    -0.020 C 
ATOM     15  C   UNL     1     -40.219  35.657   0.473  0.00  0.00    -0.001 C 
ATOM     16  C   UNL     1     -38.458  35.562   2.124  0.00  0.00    -0.001 C 
ATOM     17  C   UNL     1     -41.156  35.865   1.484  0.00  0.00    +0.036 C 
ATOM     18  C   UNL     1     -39.395  35.770   3.136  0.00  0.00    +0.036 C 
ATOM     19  C   UNL     1     -40.744  35.921   2.816  0.00  0.00    +0.134 C 
BRANCH  19  20
ATOM     20  O   UNL     1     -41.659  36.123   3.803  0.00  0.00    -0.506 OA
ATOM     21  H   UNL     1     -41.384  36.449   4.637  0.00  0.00    +0.292 HD
ENDBRANCH  19  20
ENDBRANCH  13  14
ENDBRANCH  12  13
ENDBRANCH   9  12
ENDBRANCH   7  10
ENDBRANCH   3   6
BRANCH   2  22
ATOM     22  C   UNL     1     -32.399  29.425   4.289  0.00  0.00    +0.153 C 
BRANCH  22  25
ATOM     23  O   UNL     1     -31.921  27.096   3.822  0.00  0.00    -0.273 OA
ATOM     24  N   UNL     1     -33.218  27.624   5.673  0.00  0.00    -0.299 N 
ATOM     25  C   UNL     1     -32.483  27.923   4.535  0.00  0.00    +0.241 C 
ATOM     26  H   UNL     1     -33.629  28.365   6.174  0.00  0.00    +0.150 HD
BRANCH  24  27
ATOM     27  C   UNL     1     -33.411  26.278   6.163  0.00  0.00    +0.116 C 
BRANCH  27  28
ATOM     28  C   UNL     1     -34.476  25.548   5.397  0.00  0.00    -0.003 C 
ATOM     29  C   UNL     1     -34.162  24.374   4.713  0.00  0.00    -0.003 C 
ATOM     30  C   UNL     1     -35.779  26.044   5.369  0.00  0.00    -0.003 C 
ATOM     31  C   UNL     1     -35.151  23.695   4.001  0.00  0.00    -0.000 C 
ATOM     32  C   UNL     1     -36.768  25.366   4.657  0.00  0.00    -0.000 C 
ATOM     33  C   UNL     1     -36.455  24.191   3.973  0.00  0.00    -0.000 C 
ENDBRANCH  27  28
ENDBRANCH  24  27
ENDBRANCH  22  25
BRANCH  22  34
ATOM     34  C   UNL     1     -32.035  30.158   5.585  0.00  0.00    +0.055 C 
BRANCH  34  35
ATOM     35  C   UNL     1     -30.547  30.219   5.822  0.00  0.00    -0.020 C 
ATOM     36  C   UNL     1     -29.958  29.394   6.781  0.00  0.00    -0.004 C 
ATOM     37  C   UNL     1     -29.759  31.103   5.084  0.00  0.00    -0.004 C 
ATOM     38  C   UNL     1     -28.581  29.452   7.000  0.00  0.00    -0.000 C 
ATOM     39  C   UNL     1     -28.383  31.160   5.304  0.00  0.00    -0.000 C 
ATOM     40  C   UNL     1     -27.794  30.335   6.261  0.00  0.00    -0.000 C 
ENDBRANCH  34  35
ENDBRANCH  22  34
ENDBRANCH   2  22
TORSDOF 12
ENDMDL
MODEL 2
REMARK VINA RESULT:      -7.6      6.956      9.415
REMARK  Name = 50909779
REMARK  12 active torsions:
REMARK  status: ('A' for Active; 'I' for Inactive)
REMARK    1  A    between atoms: N_2  and  C_22
REMARK    2  A    between atoms: C_3  and  C_6
REMARK    3  A    between atoms: C_7  and  C_10
REMARK    4  A    between atoms: N_9  and  C_12
REMARK    5  A    between atoms: C_12  and  C_13
REMARK    6  A    between atoms: C_13  and  C_14
REMARK    7  A    between atoms: C_19  and  O_20
REMARK    8  A    between atoms: C_22  and  C_25
REMARK    9  A    between atoms: C_22  and  C_34
REMARK   10  A    between atoms: N_24  and  C_27
REMARK   11  A    between atoms: C_27  and  C_28
REMARK   12  A    between atoms: C_34  and  C_35
REMARK                            x       y       z     vdW  Elec       q    Type
REMARK                         _______ _______ _______ _____ _____    ______ ____
ROOT
ATOM      1  O   UNL     1     -37.787  25.878   2.633  0.00  0.00    -0.272 OA
ATOM      2  N   UNL     1     -38.177  23.612   3.004  0.00  0.00    -0.296 N 
ATOM      3  C   UNL     1     -38.540  24.940   2.868  0.00  0.00    +0.253 C 
ATOM      4  H   UNL     1     -38.882  22.951   3.194  0.00  0.00    +0.150 HD
ENDROOT
BRANCH   3   6
ATOM      5  O   UNL     1     -40.334  26.589   3.062  0.00  0.00    -0.335 OA
ATOM      6  C   UNL     1     -40.001  25.194   3.034  0.00  0.00    +0.227 C 
ATOM      7  C   UNL     1     -40.782  25.840   1.924  0.00  0.00    +0.227 C 
BRANCH   7  10
ATOM      8  O   UNL     1     -42.725  24.701   1.330  0.00  0.00    -0.272 OA
ATOM      9  N   UNL     1     -42.936  26.724   2.463  0.00  0.00    -0.302 N 
ATOM     10  C   UNL     1     -42.240  25.688   1.870  0.00  0.00    +0.253 C 
ATOM     11  H   UNL     1     -42.424  27.463   2.865  0.00  0.00    +0.150 HD
BRANCH   9  12
ATOM     12  C   UNL     1     -44.378  26.775   2.520  0.00  0.00    +0.094 C 
BRANCH  12  13
ATOM     13  C   UNL     1     -44.918  26.548   3.930  0.00  0.00    +0.048 C 
BRANCH  13  14
ATOM     14  C   UNL     1     -45.993  25.491   3.988  0.00  0.00    -0.020 C 
ATOM     15  C   UNL     1     -46.817  25.393   5.109  0.00  0.00    -0.001 C 
ATOM     16  C   UNL     1     -46.164  24.613   2.918  0.00  0.00    -0.001 C 
ATOM     17  C   UNL     1     -47.812  24.419   5.161  0.00  0.00    +0.036 C 
ATOM     18  C   UNL     1     -47.160  23.637   2.968  0.00  0.00    +0.036 C 
ATOM     19  C   UNL     1     -47.984  23.540   4.090  0.00  0.00    +0.134 C 
BRANCH  19  20
ATOM     20  O   UNL     1     -48.957  22.589   4.139  0.00  0.00    -0.506 OA
ATOM     21  H   UNL     1     -49.235  22.163   3.353  0.00  0.00    +0.292 HD
ENDBRANCH  19  20
ENDBRANCH  13  14
ENDBRANCH  12  13
ENDBRANCH   9  12
ENDBRANCH   7  10
ENDBRANCH   3   6
BRANCH   2  22
ATOM     22  C   UNL     1     -36.818  23.148   2.881  0.00  0.00    +0.153 C 
BRANCH  22  25
ATOM     23  O   UNL     1     -37.916  21.229   1.887  0.00  0.00    -0.273 OA
ATOM     24  N   UNL     1     -35.613  21.175   2.181  0.00  0.00    -0.299 N 
ATOM     25  C   UNL     1     -36.873  21.749   2.277  0.00  0.00    +0.241 C 
ATOM     26  H   UNL     1     -34.842  21.679   2.526  0.00  0.00    +0.150 HD
BRANCH  24  27
ATOM     27  C   UNL     1     -35.377  19.873   1.599  0.00  0.00    +0.116 C 
BRANCH  27  28
ATOM     28  C   UNL     1     -33.960  19.716   1.129  0.00  0.00    -0.003 C 
ATOM     29  C   UNL     1     -33.372  20.707   0.343  0.00  0.00    -0.003 C 
ATOM     30  C   UNL     1     -33.231  18.580   1.478  0.00  0.00    -0.003 C 
ATOM     31  C   UNL     1     -32.055  20.562  -0.093  0.00  0.00    -0.000 C 
ATOM     32  C   UNL     1     -31.915  18.433   1.041  0.00  0.00    -0.000 C 
ATOM     33  C   UNL     1     -31.327  19.424   0.255  0.00  0.00    -0.000 C 
ENDBRANCH  27  28
ENDBRANCH  24  27
ENDBRANCH  22  25
BRANCH  22  34
ATOM     34  C   UNL     1     -36.093  23.117   4.231  0.00  0.00    +0.055 C 
BRANCH  34  35
ATOM     35  C   UNL     1     -35.181  24.302   4.431  0.00  0.00    -0.020 C 
ATOM     36  C   UNL     1     -35.148  24.958   5.662  0.00  0.00    -0.004 C 
ATOM     37  C   UNL     1     -34.371  24.743   3.383  0.00  0.00    -0.004 C 
ATOM     38  C   UNL     1     -34.305  26.055   5.845  0.00  0.00    -0.000 C 
ATOM     39  C   UNL     1     -33.529  25.839   3.568  0.00  0.00    -0.000 C 
ATOM     40  C   UNL     1     -33.495  26.494   4.798  0.00  0.00    -0.000 C 
ENDBRANCH  34  35
ENDBRANCH  22  34
ENDBRANCH   2  22
TORSDOF 12
ENDMDL
MODEL 3
REMARK VINA RESULT:      -7.6      3.440      4.878
REMARK  Name = 50909779
REMARK  12 active torsions:
REMARK  status: ('A' for Active; 'I' for Inactive)
REMARK    1  A    between atoms: N_2  and  C_22
REMARK    2  A    between atoms: C_3  and  C_6
REMARK    3  A    between atoms: C_7  and  C_10
REMARK    4  A    between atoms: N_9  and  C_12
REMARK    5  A    between atoms: C_12  and  C_13
REMARK    6  A    between atoms: C_13  and  C_14
REMARK    7  A    between atoms: C_19  and  O_20
REMARK    8  A    between atoms: C_22  and  C_25
REMARK    9  A    between atoms: C_22  and  C_34
REMARK   10  A    between atoms: N_24  and  C_27
REMARK   11  A    between atoms: C_27  and  C_28
REMARK   12  A    between atoms: C_34  and  C_35
REMARK                            x       y       z     vdW  Elec       q    Type
REMARK                         _______ _______ _______ _____ _____    ______ ____
ROOT
ATOM      1  O   UNL     1     -36.974  29.794   1.118  0.00  0.00    -0.272 OA
ATOM      2  N   UNL     1     -35.192  29.127   2.460  0.00  0.00    -0.296 N 
ATOM      3  C   UNL     1     -36.017  30.048   1.841  0.00  0.00    +0.253 C 
ATOM      4  H   UNL     1     -34.452  29.461   3.018  0.00  0.00    +0.150 HD
ENDROOT
BRANCH   3   6
ATOM      5  O   UNL     1     -34.251  31.725   2.044  0.00  0.00    -0.335 OA
ATOM      6  C   UNL     1     -35.660  31.471   2.116  0.00  0.00    +0.227 C 
ATOM      7  C   UNL     1     -35.068  32.322   1.029  0.00  0.00    +0.227 C 
BRANCH   7  10
ATOM      8  O   UNL     1     -34.346  34.377   1.853  0.00  0.00    -0.272 OA
ATOM      9  N   UNL     1     -36.124  34.355   0.348  0.00  0.00    -0.302 N 
ATOM     10  C   UNL     1     -35.134  33.783   1.125  0.00  0.00    +0.253 C 
ATOM     11  H   UNL     1     -36.693  33.763  -0.195  0.00  0.00    +0.150 HD
BRANCH   9  12
ATOM     12  C   UNL     1     -36.363  35.778   0.296  0.00  0.00    +0.094 C 
BRANCH  12  13
ATOM     13  C   UNL     1     -37.762  36.120  -0.210  0.00  0.00    +0.048 C 
BRANCH  13  14
ATOM     14  C   UNL     1     -38.829  35.945   0.844  0.00  0.00    -0.020 C 
ATOM     15  C   UNL     1     -38.481  35.944   2.195  0.00  0.00    -0.001 C 
ATOM     16  C   UNL     1     -40.161  35.788   0.467  0.00  0.00    -0.001 C 
ATOM     17  C   UNL     1     -39.467  35.786   3.168  0.00  0.00    +0.036 C 
ATOM     18  C   UNL     1     -41.149  35.629   1.440  0.00  0.00    +0.036 C 
ATOM     19  C   UNL     1     -40.801  35.629   2.791  0.00  0.00    +0.134 C 
BRANCH  19  20
ATOM     20  O   UNL     1     -41.763  35.475   3.741  0.00  0.00    -0.506 OA
ATOM     21  H   UNL     1     -42.320  34.722   3.727  0.00  0.00    +0.292 HD
ENDBRANCH  19  20
ENDBRANCH  13  14
ENDBRANCH  12  13
ENDBRANCH   9  12
ENDBRANCH   7  10
ENDBRANCH   3   6
BRANCH   2  22
ATOM     22  C   UNL     1     -35.359  27.701   2.329  0.00  0.00    +0.153 C 
BRANCH  22  25
ATOM     23  O   UNL     1     -34.116  27.421   4.391  0.00  0.00    -0.273 OA
ATOM     24  N   UNL     1     -36.036  26.158   4.060  0.00  0.00    -0.299 N 
ATOM     25  C   UNL     1     -35.071  27.086   3.694  0.00  0.00    +0.241 C 
ATOM     26  H   UNL     1     -36.762  25.962   3.424  0.00  0.00    +0.150 HD
BRANCH  24  27
ATOM     27  C   UNL     1     -36.030  25.464   5.327  0.00  0.00    +0.116 C 
BRANCH  27  28
ATOM     28  C   UNL     1     -35.729  24.002   5.166  0.00  0.00    -0.003 C 
ATOM     29  C   UNL     1     -35.305  23.253   6.264  0.00  0.00    -0.003 C 
ATOM     30  C   UNL     1     -35.875  23.393   3.921  0.00  0.00    -0.003 C 
ATOM     31  C   UNL     1     -35.027  21.894   6.115  0.00  0.00    -0.000 C 
ATOM     32  C   UNL     1     -35.596  22.034   3.771  0.00  0.00    -0.000 C 
ATOM     33  C   UNL     1     -35.172  21.285   4.868  0.00  0.00    -0.000 C 
ENDBRANCH  27  28
ENDBRANCH  24  27
ENDBRANCH  22  25
BRANCH  22  34
ATOM     34  C   UNL     1     -34.427  27.104   1.269  0.00  0.00    +0.055 C 
BRANCH  34  35
ATOM     35  C   UNL     1     -34.805  25.694   0.887  0.00  0.00    -0.020 C 
ATOM     36  C   UNL     1     -36.108  25.407   0.478  0.00  0.00    -0.004 C 
ATOM     37  C   UNL     1     -33.851  24.677   0.944  0.00  0.00    -0.004 C 
ATOM     38  C   UNL     1     -36.456  24.103   0.125  0.00  0.00    -0.000 C 
ATOM     39  C   UNL     1     -34.200  23.374   0.590  0.00  0.00    -0.000 C 
ATOM     40  C   UNL     1     -35.502  23.087   0.181  0.00  0.00    -0.000 C 
ENDBRANCH  34  35
ENDBRANCH  22  34
ENDBRANCH   2  22
TORSDOF 12
ENDMDL
MODEL 4
REMARK VINA RESULT:      -7.5      7.480     13.309
REMARK  Name = 50909779
REMARK  12 active torsions:
REMARK  status: ('A' for Active; 'I' for Inactive)
REMARK    1  A    between atoms: N_2  and  C_22
REMARK    2  A    between atoms: C_3  and  C_6
REMARK    3  A    between atoms: C_7  and  C_10
REMARK    4  A    between atoms: N_9  and  C_12
REMARK    5  A    between atoms: C_12  and  C_13
REMARK    6  A    between atoms: C_13  and  C_14
REMARK    7  A    between atoms: C_19  and  O_20
REMARK    8  A    between atoms: C_22  and  C_25
REMARK    9  A    between atoms: C_22  and  C_34
REMARK   10  A    between atoms: N_24  and  C_27
REMARK   11  A    between atoms: C_27  and  C_28
REMARK   12  A    between atoms: C_34  and  C_35
REMARK                            x       y       z     vdW  Elec       q    Type
REMARK                         _______ _______ _______ _____ _____    ______ ____
ROOT
ATOM      1  O   UNL     1     -43.743  26.388   1.272  0.00  0.00    -0.272 OA
ATOM      2  N   UNL     1     -43.626  27.226   3.441  0.00  0.00    -0.296 N 
ATOM      3  C   UNL     1     -43.103  26.784   2.239  0.00  0.00    +0.253 C 
ATOM      4  H   UNL     1     -43.002  27.519   4.144  0.00  0.00    +0.150 HD
ENDROOT
BRANCH   3   6
ATOM      5  O   UNL     1     -40.994  27.045   3.447  0.00  0.00    -0.335 OA
ATOM      6  C   UNL     1     -41.612  26.816   2.173  0.00  0.00    +0.227 C 
ATOM      7  C   UNL     1     -40.807  25.750   2.861  0.00  0.00    +0.227 C 
BRANCH   7  10
ATOM      8  O   UNL     1     -39.196  24.688   1.556  0.00  0.00    -0.272 OA
ATOM      9  N   UNL     1     -38.484  26.237   3.143  0.00  0.00    -0.302 N 
ATOM     10  C   UNL     1     -39.423  25.498   2.448  0.00  0.00    +0.253 C 
ATOM     11  H   UNL     1     -38.799  26.857   3.840  0.00  0.00    +0.150 HD
BRANCH   9  12
ATOM     12  C   UNL     1     -37.064  26.141   2.896  0.00  0.00    +0.094 C 
BRANCH  12  13
ATOM     13  C   UNL     1     -36.254  25.993   4.181  0.00  0.00    +0.048 C 
BRANCH  13  14
ATOM     14  C   UNL     1     -35.946  24.555   4.521  0.00  0.00    -0.020 C 
ATOM     15  C   UNL     1     -35.425  24.231   5.773  0.00  0.00    -0.001 C 
ATOM     16  C   UNL     1     -36.184  23.551   3.583  0.00  0.00    -0.001 C 
ATOM     17  C   UNL     1     -35.142  22.902   6.088  0.00  0.00    +0.036 C 
ATOM     18  C   UNL     1     -35.902  22.222   3.897  0.00  0.00    +0.036 C 
ATOM     19  C   UNL     1     -35.381  21.897   5.150  0.00  0.00    +0.134 C 
BRANCH  19  20
ATOM     20  O   UNL     1     -35.107  20.600   5.458  0.00  0.00    -0.506 OA
ATOM     21  H   UNL     1     -35.613  20.156   6.109  0.00  0.00    +0.292 HD
ENDBRANCH  19  20
ENDBRANCH  13  14
ENDBRANCH  12  13
ENDBRANCH   9  12
ENDBRANCH   7  10
ENDBRANCH   3   6
BRANCH   2  22
ATOM     22  C   UNL     1     -45.040  27.279   3.717  0.00  0.00    +0.153 C 
BRANCH  22  25
ATOM     23  O   UNL     1     -46.508  29.176   4.066  0.00  0.00    -0.273 OA
ATOM     24  N   UNL     1     -44.250  29.401   4.557  0.00  0.00    -0.299 N 
ATOM     25  C   UNL     1     -45.370  28.715   4.108  0.00  0.00    +0.241 C 
ATOM     26  H   UNL     1     -43.382  28.937   4.549  0.00  0.00    +0.150 HD
BRANCH  24  27
ATOM     27  C   UNL     1     -44.293  30.764   5.037  0.00  0.00    +0.116 C 
BRANCH  27  28
ATOM     28  C   UNL     1     -44.862  30.855   6.422  0.00  0.00    -0.003 C 
ATOM     29  C   UNL     1     -44.171  30.299   7.498  0.00  0.00    -0.003 C 
ATOM     30  C   UNL     1     -46.083  31.496   6.634  0.00  0.00    -0.003 C 
ATOM     31  C   UNL     1     -44.699  30.384   8.786  0.00  0.00    -0.000 C 
ATOM     32  C   UNL     1     -46.612  31.580   7.922  0.00  0.00    -0.000 C 
ATOM     33  C   UNL     1     -45.920  31.024   8.998  0.00  0.00    -0.000 C 
ENDBRANCH  27  28
ENDBRANCH  24  27
ENDBRANCH  22  25
BRANCH  22  34
ATOM     34  C   UNL     1     -45.448  26.315   4.836  0.00  0.00    +0.055 C 
BRANCH  34  35
ATOM     35  C   UNL     1     -46.360  25.214   4.354  0.00  0.00    -0.020 C 
ATOM     36  C   UNL     1     -46.157  24.637   3.100  0.00  0.00    -0.004 C 
ATOM     37  C   UNL     1     -47.408  24.773   5.163  0.00  0.00    -0.004 C 
ATOM     38  C   UNL     1     -47.001  23.619   2.656  0.00  0.00    -0.000 C 
ATOM     39  C   UNL     1     -48.251  23.755   4.718  0.00  0.00    -0.000 C 
ATOM     40  C   UNL     1     -48.047  23.178   3.465  0.00  0.00    -0.000 C 
ENDBRANCH  34  35
ENDBRANCH  22  34
ENDBRANCH   2  22
TORSDOF 12
ENDMDL
MODEL 5
REMARK VINA RESULT:      -7.5      5.959      7.717
REMARK  Name = 50909779
REMARK  12 active torsions:
REMARK  status: ('A' for Active; 'I' for Inactive)
REMARK    1  A    between atoms: N_2  and  C_22
REMARK    2  A    between atoms: C_3  and  C_6
REMARK    3  A    between atoms: C_7  and  C_10
REMARK    4  A    between atoms: N_9  and  C_12
REMARK    5  A    between atoms: C_12  and  C_13
REMARK    6  A    between atoms: C_13  and  C_14
REMARK    7  A    between atoms: C_19  and  O_20
REMARK    8  A    between atoms: C_22  and  C_25
REMARK    9  A    between atoms: C_22  and  C_34
REMARK   10  A    between atoms: N_24  and  C_27
REMARK   11  A    between atoms: C_27  and  C_28
REMARK   12  A    between atoms: C_34  and  C_35
REMARK                            x       y       z     vdW  Elec       q    Type
REMARK                         _______ _______ _______ _____ _____    ______ ____
ROOT
ATOM      1  O   UNL     1     -37.278  23.968   1.249  0.00  0.00    -0.272 OA
ATOM      2  N   UNL     1     -37.066  23.648   3.546  0.00  0.00    -0.296 N 
ATOM      3  C   UNL     1     -37.754  23.925   2.378  0.00  0.00    +0.253 C 
ATOM      4  H   UNL     1     -37.567  23.645   4.395  0.00  0.00    +0.150 HD
ENDROOT
BRANCH   3   6
ATOM      5  O   UNL     1     -39.531  24.634   3.898  0.00  0.00    -0.335 OA
ATOM      6  C   UNL     1     -39.209  24.189   2.574  0.00  0.00    +0.227 C 
ATOM      7  C   UNL     1     -39.691  25.587   2.839  0.00  0.00    +0.227 C 
BRANCH   7  10
ATOM      8  O   UNL     1     -41.581  25.716   1.484  0.00  0.00    -0.272 OA
ATOM      9  N   UNL     1     -41.734  26.509   3.669  0.00  0.00    -0.302 N 
ATOM     10  C   UNL     1     -41.092  25.939   2.586  0.00  0.00    +0.253 C 
ATOM     11  H   UNL     1     -41.225  26.634   4.502  0.00  0.00    +0.150 HD
BRANCH   9  12
ATOM     12  C   UNL     1     -43.115  26.931   3.635  0.00  0.00    +0.094 C 
BRANCH  12  13
ATOM     13  C   UNL     1     -43.266  28.449   3.702  0.00  0.00    +0.048 C 
BRANCH  13  14
ATOM     14  C   UNL     1     -43.871  28.924   5.000  0.00  0.00    -0.020 C 
ATOM     15  C   UNL     1     -45.009  28.299   5.509  0.00  0.00    -0.001 C 
ATOM     16  C   UNL     1     -43.290  29.986   5.692  0.00  0.00    -0.001 C 
ATOM     17  C   UNL     1     -45.567  28.737   6.710  0.00  0.00    +0.036 C 
ATOM     18  C   UNL     1     -43.847  30.425   6.893  0.00  0.00    +0.036 C 
ATOM     19  C   UNL     1     -44.985  29.800   7.403  0.00  0.00    +0.134 C 
BRANCH  19  20
ATOM     20  O   UNL     1     -45.528  30.226   8.575  0.00  0.00    -0.506 OA
ATOM     21  H   UNL     1     -46.434  30.462   8.614  0.00  0.00    +0.292 HD
ENDBRANCH  19  20
ENDBRANCH  13  14
ENDBRANCH  12  13
ENDBRANCH   9  12
ENDBRANCH   7  10
ENDBRANCH   3   6
BRANCH   2  22
ATOM     22  C   UNL     1     -35.653  23.363   3.584  0.00  0.00    +0.153 C 
BRANCH  22  25
ATOM     23  O   UNL     1     -35.494  21.061   4.323  0.00  0.00    -0.273 OA
ATOM     24  N   UNL     1     -35.395  21.516   2.049  0.00  0.00    -0.299 N 
ATOM     25  C   UNL     1     -35.491  21.860   3.390  0.00  0.00    +0.241 C 
ATOM     26  H   UNL     1     -35.403  22.238   1.379  0.00  0.00    +0.150 HD
BRANCH  24  27
ATOM     27  C   UNL     1     -35.284  20.152   1.585  0.00  0.00    +0.116 C 
BRANCH  27  28
ATOM     28  C   UNL     1     -33.892  19.824   1.129  0.00  0.00    -0.003 C 
ATOM     29  C   UNL     1     -33.300  18.620   1.509  0.00  0.00    -0.003 C 
ATOM     30  C   UNL     1     -33.191  20.723   0.327  0.00  0.00    -0.003 C 
ATOM     31  C   UNL     1     -32.007  18.314   1.085  0.00  0.00    -0.000 C 
ATOM     32  C   UNL     1     -31.897  20.418  -0.096  0.00  0.00    -0.000 C 
ATOM     33  C   UNL     1     -31.305  19.214   0.283  0.00  0.00    -0.000 C 
ENDBRANCH  27  28
ENDBRANCH  24  27
ENDBRANCH  22  25
BRANCH  22  34
ATOM     34  C   UNL     1     -35.010  23.803   4.904  0.00  0.00    +0.055 C 
BRANCH  34  35
ATOM     35  C   UNL     1     -34.240  25.094   4.776  0.00  0.00    -0.020 C 
ATOM     36  C   UNL     1     -33.962  25.856   5.912  0.00  0.00    -0.004 C 
ATOM     37  C   UNL     1     -33.807  25.527   3.523  0.00  0.00    -0.004 C 
ATOM     38  C   UNL     1     -33.250  27.050   5.792  0.00  0.00    -0.000 C 
ATOM     39  C   UNL     1     -33.095  26.720   3.404  0.00  0.00    -0.000 C 
ATOM     40  C   UNL     1     -32.817  27.481   4.539  0.00  0.00    -0.000 C 
ENDBRANCH  34  35
ENDBRANCH  22  34
ENDBRANCH   2  22
TORSDOF 12
ENDMDL
MODEL 6
REMARK VINA RESULT:      -7.4      6.963     13.139
REMARK  Name = 50909779
REMARK  12 active torsions:
REMARK  status: ('A' for Active; 'I' for Inactive)
REMARK    1  A    between atoms: N_2  and  C_22
REMARK    2  A    between atoms: C_3  and  C_6
REMARK    3  A    between atoms: C_7  and  C_10
REMARK    4  A    between atoms: N_9  and  C_12
REMARK    5  A    between atoms: C_12  and  C_13
REMARK    6  A    between atoms: C_13  and  C_14
REMARK    7  A    between atoms: C_19  and  O_20
REMARK    8  A    between atoms: C_22  and  C_25
REMARK    9  A    between atoms: C_22  and  C_34
REMARK   10  A    between atoms: N_24  and  C_27
REMARK   11  A    between atoms: C_27  and  C_28
REMARK   12  A    between atoms: C_34  and  C_35
REMARK                            x       y       z     vdW  Elec       q    Type
REMARK                         _______ _______ _______ _____ _____    ______ ____
ROOT
ATOM      1  O   UNL     1     -42.592  27.814   1.892  0.00  0.00    -0.272 OA
ATOM      2  N   UNL     1     -42.972  27.257   4.121  0.00  0.00    -0.296 N 
ATOM      3  C   UNL     1     -42.288  27.218   2.919  0.00  0.00    +0.253 C 
ATOM      4  H   UNL     1     -42.622  26.729   4.876  0.00  0.00    +0.150 HD
ENDROOT
BRANCH   3   6
ATOM      5  O   UNL     1     -41.218  25.157   2.160  0.00  0.00    -0.335 OA
ATOM      6  C   UNL     1     -41.072  26.354   2.935  0.00  0.00    +0.227 C 
ATOM      7  C   UNL     1     -40.289  26.134   1.672  0.00  0.00    +0.227 C 
BRANCH   7  10
ATOM      8  O   UNL     1     -38.545  24.691   1.125  0.00  0.00    -0.272 OA
ATOM      9  N   UNL     1     -38.090  26.486   2.536  0.00  0.00    -0.302 N 
ATOM     10  C   UNL     1     -38.893  25.690   1.743  0.00  0.00    +0.253 C 
ATOM     11  H   UNL     1     -38.495  27.265   2.981  0.00  0.00    +0.150 HD
BRANCH   9  12
ATOM     12  C   UNL     1     -36.684  26.228   2.745  0.00  0.00    +0.094 C 
BRANCH  12  13
ATOM     13  C   UNL     1     -36.341  26.001   4.215  0.00  0.00    +0.048 C 
BRANCH  13  14
ATOM     14  C   UNL     1     -36.006  24.563   4.528  0.00  0.00    -0.020 C 
ATOM     15  C   UNL     1     -36.200  23.576   3.561  0.00  0.00    -0.001 C 
ATOM     16  C   UNL     1     -35.500  24.222   5.781  0.00  0.00    -0.001 C 
ATOM     17  C   UNL     1     -35.888  22.248   3.848  0.00  0.00    +0.036 C 
ATOM     18  C   UNL     1     -35.187  22.893   6.070  0.00  0.00    +0.036 C 
ATOM     19  C   UNL     1     -35.381  21.906   5.103  0.00  0.00    +0.134 C 
BRANCH  19  20
ATOM     20  O   UNL     1     -35.075  20.610   5.383  0.00  0.00    -0.506 OA
ATOM     21  H   UNL     1     -35.277  20.252   6.225  0.00  0.00    +0.292 HD
ENDBRANCH  19  20
ENDBRANCH  13  14
ENDBRANCH  12  13
ENDBRANCH   9  12
ENDBRANCH   7  10
ENDBRANCH   3   6
BRANCH   2  22
ATOM     22  C   UNL     1     -44.171  28.030   4.325  0.00  0.00    +0.153 C 
BRANCH  22  25
ATOM     23  O   UNL     1     -42.689  29.588   5.441  0.00  0.00    -0.273 OA
ATOM     24  N   UNL     1     -44.654  30.390   4.501  0.00  0.00    -0.299 N 
ATOM     25  C   UNL     1     -43.743  29.399   4.839  0.00  0.00    +0.241 C 
ATOM     26  H   UNL     1     -45.470  30.129   4.016  0.00  0.00    +0.150 HD
BRANCH  24  27
ATOM     27  C   UNL     1     -44.465  31.786   4.823  0.00  0.00    +0.116 C 
BRANCH  27  28
ATOM     28  C   UNL     1     -45.571  32.318   5.688  0.00  0.00    -0.003 C 
ATOM     29  C   UNL     1     -45.972  31.611   6.821  0.00  0.00    -0.003 C 
ATOM     30  C   UNL     1     -46.196  33.520   5.358  0.00  0.00    -0.003 C 
ATOM     31  C   UNL     1     -46.999  32.105   7.624  0.00  0.00    -0.000 C 
ATOM     32  C   UNL     1     -47.224  34.015   6.161  0.00  0.00    -0.000 C 
ATOM     33  C   UNL     1     -47.626  33.307   7.294  0.00  0.00    -0.000 C 
ENDBRANCH  27  28
ENDBRANCH  24  27
ENDBRANCH  22  25
BRANCH  22  34
ATOM     34  C   UNL     1     -45.128  27.363   5.319  0.00  0.00    +0.055 C 
BRANCH  34  35
ATOM     35  C   UNL     1     -45.871  26.194   4.720  0.00  0.00    -0.020 C 
ATOM     36  C   UNL     1     -45.556  25.750   3.435  0.00  0.00    -0.004 C 
ATOM     37  C   UNL     1     -46.875  25.558   5.451  0.00  0.00    -0.004 C 
ATOM     38  C   UNL     1     -46.244  24.670   2.882  0.00  0.00    -0.000 C 
ATOM     39  C   UNL     1     -47.562  24.478   4.897  0.00  0.00    -0.000 C 
ATOM     40  C   UNL     1     -47.247  24.034   3.614  0.00  0.00    -0.000 C 
ENDBRANCH  34  35
ENDBRANCH  22  34
ENDBRANCH   2  22
TORSDOF 12
ENDMDL
MODEL 7
REMARK VINA RESULT:      -7.4      3.498      5.973
REMARK  Name = 50909779
REMARK  12 active torsions:
REMARK  status: ('A' for Active; 'I' for Inactive)
REMARK    1  A    between atoms: N_2  and  C_22
REMARK    2  A    between atoms: C_3  and  C_6
REMARK    3  A    between atoms: C_7  and  C_10
REMARK    4  A    between atoms: N_9  and  C_12
REMARK    5  A    between atoms: C_12  and  C_13
REMARK    6  A    between atoms: C_13  and  C_14
REMARK    7  A    between atoms: C_19  and  O_20
REMARK    8  A    between atoms: C_22  and  C_25
REMARK    9  A    between atoms: C_22  and  C_34
REMARK   10  A    between atoms: N_24  and  C_27
REMARK   11  A    between atoms: C_27  and  C_28
REMARK   12  A    between atoms: C_34  and  C_35
REMARK                            x       y       z     vdW  Elec       q    Type
REMARK                         _______ _______ _______ _____ _____    ______ ____
ROOT
ATOM      1  O   UNL     1     -33.321  27.347   3.267  0.00  0.00    -0.272 OA
ATOM      2  N   UNL     1     -34.643  26.250   1.695  0.00  0.00    -0.296 N 
ATOM      3  C   UNL     1     -34.107  27.358   2.327  0.00  0.00    +0.253 C 
ATOM      4  H   UNL     1     -35.268  26.394   0.947  0.00  0.00    +0.150 HD
ENDROOT
BRANCH   3   6
ATOM      5  O   UNL     1     -35.993  28.784   1.710  0.00  0.00    -0.335 OA
ATOM      6  C   UNL     1     -34.565  28.662   1.766  0.00  0.00    +0.227 C 
ATOM      7  C   UNL     1     -35.307  29.637   2.637  0.00  0.00    +0.227 C 
BRANCH   7  10
ATOM      8  O   UNL     1     -34.389  31.771   2.477  0.00  0.00    -0.272 OA
ATOM      9  N   UNL     1     -36.559  31.442   1.696  0.00  0.00    -0.302 N 
ATOM     10  C   UNL     1     -35.361  31.054   2.267  0.00  0.00    +0.253 C 
ATOM     11  H   UNL     1     -37.264  30.764   1.582  0.00  0.00    +0.150 HD
BRANCH   9  12
ATOM     12  C   UNL     1     -36.825  32.793   1.261  0.00  0.00    +0.094 C 
BRANCH  12  13
ATOM     13  C   UNL     1     -38.213  32.948   0.646  0.00  0.00    +0.048 C 
BRANCH  13  14
ATOM     14  C   UNL     1     -39.103  33.883   1.429  0.00  0.00    -0.020 C 
ATOM     15  C   UNL     1     -40.487  33.828   1.266  0.00  0.00    -0.001 C 
ATOM     16  C   UNL     1     -38.541  34.799   2.316  0.00  0.00    -0.001 C 
ATOM     17  C   UNL     1     -41.309  34.690   1.991  0.00  0.00    +0.036 C 
ATOM     18  C   UNL     1     -39.363  35.662   3.043  0.00  0.00    +0.036 C 
ATOM     19  C   UNL     1     -40.747  35.607   2.880  0.00  0.00    +0.134 C 
BRANCH  19  20
ATOM     20  O   UNL     1     -41.549  36.447   3.588  0.00  0.00    -0.506 OA
ATOM     21  H   UNL     1     -41.354  36.637   4.485  0.00  0.00    +0.292 HD
ENDBRANCH  19  20
ENDBRANCH  13  14
ENDBRANCH  12  13
ENDBRANCH   9  12
ENDBRANCH   7  10
ENDBRANCH   3   6
BRANCH   2  22
ATOM     22  C   UNL     1     -34.333  24.895   2.077  0.00  0.00    +0.153 C 
BRANCH  22  25
ATOM     23  O   UNL     1     -32.653  24.767   0.334  0.00  0.00    -0.273 OA
ATOM     24  N   UNL     1     -34.138  23.001   0.590  0.00  0.00    -0.299 N 
ATOM     25  C   UNL     1     -33.613  24.248   0.899  0.00  0.00    +0.241 C 
ATOM     26  H   UNL     1     -34.911  22.678   1.107  0.00  0.00    +0.150 HD
BRANCH  24  27
ATOM     27  C   UNL     1     -33.608  22.153  -0.452  0.00  0.00    +0.116 C 
BRANCH  27  28
ATOM     28  C   UNL     1     -33.085  20.855   0.091  0.00  0.00    -0.003 C 
ATOM     29  C   UNL     1     -33.894  20.063   0.906  0.00  0.00    -0.003 C 
ATOM     30  C   UNL     1     -31.791  20.440  -0.221  0.00  0.00    -0.003 C 
ATOM     31  C   UNL     1     -33.409  18.857   1.410  0.00  0.00    -0.000 C 
ATOM     32  C   UNL     1     -31.305  19.233   0.284  0.00  0.00    -0.000 C 
ATOM     33  C   UNL     1     -32.114  18.442   1.099  0.00  0.00    -0.000 C 
ENDBRANCH  27  28
ENDBRANCH  24  27
ENDBRANCH  22  25
BRANCH  22  34
ATOM     34  C   UNL     1     -35.589  24.094   2.438  0.00  0.00    +0.055 C 
BRANCH  34  35
ATOM     35  C   UNL     1     -35.470  23.389   3.767  0.00  0.00    -0.020 C 
ATOM     36  C   UNL     1     -35.384  24.130   4.946  0.00  0.00    -0.004 C 
ATOM     37  C   UNL     1     -35.443  21.994   3.816  0.00  0.00    -0.004 C 
ATOM     38  C   UNL     1     -35.273  23.476   6.173  0.00  0.00    -0.000 C 
ATOM     39  C   UNL     1     -35.333  21.342   5.043  0.00  0.00    -0.000 C 
ATOM     40  C   UNL     1     -35.248  22.083   6.222  0.00  0.00    -0.000 C 
ENDBRANCH  34  35
ENDBRANCH  22  34
ENDBRANCH   2  22
TORSDOF 12
ENDMDL
MODEL 8
REMARK VINA RESULT:      -7.3      1.660      2.316
REMARK  Name = 50909779
REMARK  12 active torsions:
REMARK  status: ('A' for Active; 'I' for Inactive)
REMARK    1  A    between atoms: N_2  and  C_22
REMARK    2  A    between atoms: C_3  and  C_6
REMARK    3  A    between atoms: C_7  and  C_10
REMARK    4  A    between atoms: N_9  and  C_12
REMARK    5  A    between atoms: C_12  and  C_13
REMARK    6  A    between atoms: C_13  and  C_14
REMARK    7  A    between atoms: C_19  and  O_20
REMARK    8  A    between atoms: C_22  and  C_25
REMARK    9  A    between atoms: C_22  and  C_34
REMARK   10  A    between atoms: N_24  and  C_27
REMARK   11  A    between atoms: C_27  and  C_28
REMARK   12  A    between atoms: C_34  and  C_35
REMARK                            x       y       z     vdW  Elec       q    Type
REMARK                         _______ _______ _______ _____ _____    ______ ____
ROOT
ATOM      1  O   UNL     1     -33.748  29.314   1.299  0.00  0.00    -0.272 OA
ATOM      2  N   UNL     1     -34.471  28.661   3.415  0.00  0.00    -0.296 N 
ATOM      3  C   UNL     1     -34.572  29.328   2.206  0.00  0.00    +0.253 C 
ATOM      4  H   UNL     1     -35.206  28.755   4.064  0.00  0.00    +0.150 HD
ENDROOT
BRANCH   3   6
ATOM      5  O   UNL     1     -35.976  31.145   3.041  0.00  0.00    -0.335 OA
ATOM      6  C   UNL     1     -35.827  30.121   2.049  0.00  0.00    +0.227 C 
ATOM      7  C   UNL     1     -35.754  31.579   1.693  0.00  0.00    +0.227 C 
BRANCH   7  10
ATOM      8  O   UNL     1     -38.036  32.019   1.549  0.00  0.00    -0.272 OA
ATOM      9  N   UNL     1     -36.609  33.096   0.057  0.00  0.00    -0.302 N 
ATOM     10  C   UNL     1     -36.918  32.246   1.101  0.00  0.00    +0.253 C 
ATOM     11  H   UNL     1     -35.665  33.190  -0.207  0.00  0.00    +0.150 HD
BRANCH   9  12
ATOM     12  C   UNL     1     -37.605  33.852  -0.667  0.00  0.00    +0.094 C 
BRANCH  12  13
ATOM     13  C   UNL     1     -37.698  35.301  -0.196  0.00  0.00    +0.048 C 
BRANCH  13  14
ATOM     14  C   UNL     1     -38.751  35.509   0.865  0.00  0.00    -0.020 C 
ATOM     15  C   UNL     1     -38.389  35.536   2.212  0.00  0.00    -0.001 C 
ATOM     16  C   UNL     1     -40.086  35.678   0.499  0.00  0.00    -0.001 C 
ATOM     17  C   UNL     1     -39.361  35.731   3.192  0.00  0.00    +0.036 C 
ATOM     18  C   UNL     1     -41.060  35.874   1.479  0.00  0.00    +0.036 C 
ATOM     19  C   UNL     1     -40.697  35.900   2.825  0.00  0.00    +0.134 C 
BRANCH  19  20
ATOM     20  O   UNL     1     -41.646  36.092   3.782  0.00  0.00    -0.506 OA
ATOM     21  H   UNL     1     -42.400  36.616   3.595  0.00  0.00    +0.292 HD
ENDBRANCH  19  20
ENDBRANCH  13  14
ENDBRANCH  12  13
ENDBRANCH   9  12
ENDBRANCH   7  10
ENDBRANCH   3   6
BRANCH   2  22
ATOM     22  C   UNL     1     -33.343  27.837   3.772  0.00  0.00    +0.153 C 
BRANCH  22  25
ATOM     23  O   UNL     1     -33.104  26.345   5.666  0.00  0.00    -0.273 OA
ATOM     24  N   UNL     1     -35.189  26.563   4.668  0.00  0.00    -0.299 N 
ATOM     25  C   UNL     1     -33.833  26.825   4.801  0.00  0.00    +0.241 C 
ATOM     26  H   UNL     1     -35.681  27.003   3.938  0.00  0.00    +0.150 HD
BRANCH  24  27
ATOM     27  C   UNL     1     -35.917  25.678   5.549  0.00  0.00    +0.116 C 
BRANCH  27  28
ATOM     28  C   UNL     1     -35.730  24.236   5.177  0.00  0.00    -0.003 C 
ATOM     29  C   UNL     1     -35.265  23.326   6.125  0.00  0.00    -0.003 C 
ATOM     30  C   UNL     1     -36.023  23.807   3.883  0.00  0.00    -0.003 C 
ATOM     31  C   UNL     1     -35.093  21.985   5.780  0.00  0.00    -0.000 C 
ATOM     32  C   UNL     1     -35.850  22.466   3.537  0.00  0.00    -0.000 C 
ATOM     33  C   UNL     1     -35.385  21.556   4.485  0.00  0.00    -0.000 C 
ENDBRANCH  27  28
ENDBRANCH  24  27
ENDBRANCH  22  25
BRANCH  22  34
ATOM     34  C   UNL     1     -32.184  28.660   4.343  0.00  0.00    +0.055 C 
BRANCH  34  35
ATOM     35  C   UNL     1     -30.868  28.364   3.667  0.00  0.00    -0.020 C 
ATOM     36  C   UNL     1     -30.798  27.387   2.674  0.00  0.00    -0.004 C 
ATOM     37  C   UNL     1     -29.721  29.066   4.036  0.00  0.00    -0.004 C 
ATOM     38  C   UNL     1     -29.581  27.113   2.050  0.00  0.00    -0.000 C 
ATOM     39  C   UNL     1     -28.504  28.793   3.411  0.00  0.00    -0.000 C 
ATOM     40  C   UNL     1     -28.435  27.816   2.418  0.00  0.00    -0.000 C 
ENDBRANCH  34  35
ENDBRANCH  22  34
ENDBRANCH   2  22
TORSDOF 12
ENDMDL
MODEL 9
REMARK VINA RESULT:      -7.3      6.646     12.711
REMARK  Name = 50909779
REMARK  12 active torsions:
REMARK  status: ('A' for Active; 'I' for Inactive)
REMARK    1  A    between atoms: N_2  and  C_22
REMARK    2  A    between atoms: C_3  and  C_6
REMARK    3  A    between atoms: C_7  and  C_10
REMARK    4  A    between atoms: N_9  and  C_12
REMARK    5  A    between atoms: C_12  and  C_13
REMARK    6  A    between atoms: C_13  and  C_14
REMARK    7  A    between atoms: C_19  and  O_20
REMARK    8  A    between atoms: C_22  and  C_25
REMARK    9  A    between atoms: C_22  and  C_34
REMARK   10  A    between atoms: N_24  and  C_27
REMARK   11  A    between atoms: C_27  and  C_28
REMARK   12  A    between atoms: C_34  and  C_35
REMARK                            x       y       z     vdW  Elec       q    Type
REMARK                         _______ _______ _______ _____ _____    ______ ____
ROOT
ATOM      1  O   UNL     1     -42.152  27.959   1.571  0.00  0.00    -0.272 OA
ATOM      2  N   UNL     1     -42.649  26.742   3.494  0.00  0.00    -0.296 N 
ATOM      3  C   UNL     1     -41.949  27.020   2.333  0.00  0.00    +0.253 C 
ATOM      4  H   UNL     1     -42.386  25.953   4.021  0.00  0.00    +0.150 HD
ENDROOT
BRANCH   3   6
ATOM      5  O   UNL     1     -39.599  26.417   2.625  0.00  0.00    -0.335 OA
ATOM      6  C   UNL     1     -40.853  26.053   2.033  0.00  0.00    +0.227 C 
ATOM      7  C   UNL     1     -40.241  25.244   3.141  0.00  0.00    +0.227 C 
BRANCH   7  10
ATOM      8  O   UNL     1     -40.114  23.076   2.298  0.00  0.00    -0.272 OA
ATOM      9  N   UNL     1     -38.185  24.027   3.191  0.00  0.00    -0.302 N 
ATOM     10  C   UNL     1     -39.519  24.006   2.831  0.00  0.00    +0.253 C 
ATOM     11  H   UNL     1     -37.827  24.840   3.614  0.00  0.00    +0.150 HD
BRANCH   9  12
ATOM     12  C   UNL     1     -37.292  22.912   2.977  0.00  0.00    +0.094 C 
BRANCH  12  13
ATOM     13  C   UNL     1     -36.252  22.772   4.085  0.00  0.00    +0.048 C 
BRANCH  13  14
ATOM     14  C   UNL     1     -35.458  24.036   4.311  0.00  0.00    -0.020 C 
ATOM     15  C   UNL     1     -35.601  24.746   5.503  0.00  0.00    -0.001 C 
ATOM     16  C   UNL     1     -34.580  24.493   3.329  0.00  0.00    -0.001 C 
ATOM     17  C   UNL     1     -34.866  25.912   5.713  0.00  0.00    +0.036 C 
ATOM     18  C   UNL     1     -33.844  25.659   3.538  0.00  0.00    +0.036 C 
ATOM     19  C   UNL     1     -33.987  26.369   4.730  0.00  0.00    +0.134 C 
BRANCH  19  20
ATOM     20  O   UNL     1     -33.269  27.506   4.935  0.00  0.00    -0.506 OA
ATOM     21  H   UNL     1     -32.902  27.967   4.207  0.00  0.00    +0.292 HD
ENDBRANCH  19  20
ENDBRANCH  13  14
ENDBRANCH  12  13
ENDBRANCH   9  12
ENDBRANCH   7  10
ENDBRANCH   3   6
BRANCH   2  22
ATOM     22  C   UNL     1     -43.744  27.549   3.970  0.00  0.00    +0.153 C 
BRANCH  22  25
ATOM     23  O   UNL     1     -41.946  28.966   4.764  0.00  0.00    -0.273 OA
ATOM     24  N   UNL     1     -44.111  29.397   5.482  0.00  0.00    -0.299 N 
ATOM     25  C   UNL     1     -43.143  28.692   4.781  0.00  0.00    +0.241 C 
ATOM     26  H   UNL     1     -45.045  29.090   5.426  0.00  0.00    +0.150 HD
BRANCH  24  27
ATOM     27  C   UNL     1     -43.818  30.558   6.290  0.00  0.00    +0.116 C 
BRANCH  27  28
ATOM     28  C   UNL     1     -44.808  31.664   6.066  0.00  0.00    -0.003 C 
ATOM     29  C   UNL     1     -45.975  31.720   6.828  0.00  0.00    -0.003 C 
ATOM     30  C   UNL     1     -44.560  32.635   5.097  0.00  0.00    -0.003 C 
ATOM     31  C   UNL     1     -46.894  32.748   6.620  0.00  0.00    -0.000 C 
ATOM     32  C   UNL     1     -45.480  33.663   4.888  0.00  0.00    -0.000 C 
ATOM     33  C   UNL     1     -46.647  33.720   5.650  0.00  0.00    -0.000 C 
ENDBRANCH  27  28
ENDBRANCH  24  27
ENDBRANCH  22  25
BRANCH  22  34
ATOM     34  C   UNL     1     -44.725  26.744   4.830  0.00  0.00    +0.055 C 
BRANCH  34  35
ATOM     35  C   UNL     1     -45.566  25.790   4.018  0.00  0.00    -0.020 C 
ATOM     36  C   UNL     1     -46.660  25.153   4.603  0.00  0.00    -0.004 C 
ATOM     37  C   UNL     1     -45.248  25.544   2.682  0.00  0.00    -0.004 C 
ATOM     38  C   UNL     1     -47.437  24.270   3.852  0.00  0.00    -0.000 C 
ATOM     39  C   UNL     1     -46.025  24.663   1.931  0.00  0.00    -0.000 C 
ATOM     40  C   UNL     1     -47.120  24.026   2.516  0.00  0.00    -0.000 C 
ENDBRANCH  34  35
ENDBRANCH  22  34
ENDBRANCH   2  22
TORSDOF 12
ENDMDL
