MODEL 1
REMARK VINA RESULT:      -6.3      0.000      0.000
REMARK  Name = 193808
REMARK  7 active torsions:
REMARK  status: ('A' for Active; 'I' for Inactive)
REMARK    1  A    between atoms: C_2  and  N_6
REMARK    2  A    between atoms: C_3  and  C_20
REMARK    3  A    between atoms: C_4  and  O_18
REMARK    4  A    between atoms: C_20  and  O_21
REMARK    5  A    between atoms: O_21  and  P_22
REMARK    6  A    between atoms: P_22  and  N_24
REMARK    7  A    between atoms: P_22  and  O_27
REMARK                            x       y       z     vdW  Elec       q    Type
REMARK                         _______ _______ _______ _____ _____    ______ ____
ROOT
ATOM      1  O   UNL     1     -34.131  24.435   5.020  0.00  0.00    -0.326 OA
ATOM      2  C   UNL     1     -34.391  25.785   5.467  0.00  0.00    +0.222 C 
ATOM      3  C   UNL     1     -35.402  23.805   4.720  0.00  0.00    +0.203 C 
ATOM      4  C   UNL     1     -36.390  24.914   4.774  0.00  0.00    +0.140 C 
ATOM      5  C   UNL     1     -35.828  26.045   5.191  0.00  0.00    +0.059 C 
ENDROOT
BRANCH   2   6
ATOM      6  N   UNL     1     -33.533  26.660   4.705  0.00  0.00    -0.245 N 
ATOM      7  N   UNL     1     -32.542  27.584   2.934  0.00  0.00    -0.242 NA
ATOM      8  N   UNL     1     -32.514  27.966   6.481  0.00  0.00    -0.228 NA
ATOM      9  N   UNL     1     -30.951  29.613   5.586  0.00  0.00    -0.229 NA
ATOM     10  C   UNL     1     -32.704  27.628   5.197  0.00  0.00    +0.152 C 
ATOM     11  C   UNL     1     -33.401  26.671   3.342  0.00  0.00    +0.223 C 
ATOM     12  C   UNL     1     -32.100  28.189   4.084  0.00  0.00    +0.140 C 
ATOM     13  C   UNL     1     -31.193  29.219   4.313  0.00  0.00    +0.143 C 
ATOM     14  C   UNL     1     -31.616  28.971   6.577  0.00  0.00    +0.253 C 
ATOM     15  N   UNL     1     -30.535  29.845   3.241  0.00  0.00    -0.342 N 
ATOM     16  H   UNL     1     -29.894  30.574   3.415  0.00  0.00    +0.144 HD
ATOM     17  H   UNL     1     -30.713  29.558   2.316  0.00  0.00    +0.144 HD
ENDBRANCH   2   6
BRANCH   4  18
ATOM     18  O   UNL     1     -37.707  24.733   4.471  0.00  0.00    -0.507 OA
ATOM     19  H   UNL     1     -38.365  24.940   5.105  0.00  0.00    +0.292 HD
ENDBRANCH   4  18
BRANCH   3  20
ATOM     20  C   UNL     1     -35.288  23.151   3.386  0.00  0.00    +0.190 C 
BRANCH  20  21
ATOM     21  O   UNL     1     -36.351  22.227   3.219  0.00  0.00    -0.280 OA
BRANCH  21  22
ATOM     22  P   UNL     1     -36.345  21.187   1.969  0.00  0.00    +0.410 P 
ATOM     23  O   UNL     1     -37.326  21.601   0.901  0.00  0.00    -0.240 OA
BRANCH  22  24
ATOM     24  N   UNL     1     -34.765  20.980   1.482  0.00  0.00    -0.185 NA
ATOM     25  C   UNL     1     -34.391  21.545   0.183  0.00  0.00    +0.100 C 
ATOM     26  C   UNL     1     -34.200  19.634   1.599  0.00  0.00    +0.100 C 
ENDBRANCH  22  24
BRANCH  22  27
ATOM     27  O   UNL     1     -36.806  19.804   2.689  0.00  0.00    -0.312 OA
ATOM     28  H   UNL     1     -37.749  19.651   2.522  0.00  0.00    +0.221 HD
ENDBRANCH  22  27
ENDBRANCH  21  22
ENDBRANCH  20  21
ENDBRANCH   3  20
TORSDOF 7
ENDMDL
MODEL 2
REMARK VINA RESULT:      -6.1      3.428      5.727
REMARK  Name = 193808
REMARK  7 active torsions:
REMARK  status: ('A' for Active; 'I' for Inactive)
REMARK    1  A    between atoms: C_2  and  N_6
REMARK    2  A    between atoms: C_3  and  C_20
REMARK    3  A    between atoms: C_4  and  O_18
REMARK    4  A    between atoms: C_20  and  O_21
REMARK    5  A    between atoms: O_21  and  P_22
REMARK    6  A    between atoms: P_22  and  N_24
REMARK    7  A    between atoms: P_22  and  O_27
REMARK                            x       y       z     vdW  Elec       q    Type
REMARK                         _______ _______ _______ _____ _____    ______ ____
ROOT
ATOM      1  O   UNL     1     -36.134  22.199   0.673  0.00  0.00    -0.326 OA
ATOM      2  C   UNL     1     -35.254  21.888   1.778  0.00  0.00    +0.222 C 
ATOM      3  C   UNL     1     -36.737  20.962   0.214  0.00  0.00    +0.203 C 
ATOM      4  C   UNL     1     -36.366  19.960   1.247  0.00  0.00    +0.140 C 
ATOM      5  C   UNL     1     -35.529  20.473   2.144  0.00  0.00    +0.059 C 
ENDROOT
BRANCH   2   6
ATOM      6  N   UNL     1     -35.582  22.792   2.853  0.00  0.00    -0.245 N 
ATOM      7  N   UNL     1     -36.235  23.481   4.871  0.00  0.00    -0.242 NA
ATOM      8  N   UNL     1     -35.148  24.937   1.801  0.00  0.00    -0.228 NA
ATOM      9  N   UNL     1     -35.593  26.784   3.333  0.00  0.00    -0.229 NA
ATOM     10  C   UNL     1     -35.522  24.156   2.825  0.00  0.00    +0.152 C 
ATOM     11  C   UNL     1     -36.016  22.434   4.102  0.00  0.00    +0.223 C 
ATOM     12  C   UNL     1     -35.929  24.564   4.085  0.00  0.00    +0.140 C 
ATOM     13  C   UNL     1     -35.957  25.934   4.323  0.00  0.00    +0.143 C 
ATOM     14  C   UNL     1     -35.216  26.240   2.150  0.00  0.00    +0.253 C 
ATOM     15  N   UNL     1     -36.357  26.436   5.574  0.00  0.00    -0.342 N 
ATOM     16  H   UNL     1     -36.374  27.408   5.732  0.00  0.00    +0.144 HD
ATOM     17  H   UNL     1     -36.621  25.817   6.292  0.00  0.00    +0.144 HD
ENDBRANCH   2   6
BRANCH   4  18
ATOM     18  O   UNL     1     -36.814  18.673   1.209  0.00  0.00    -0.507 OA
ATOM     19  H   UNL     1     -37.273  18.359   0.455  0.00  0.00    +0.292 HD
ENDBRANCH   4  18
BRANCH   3  20
ATOM     20  C   UNL     1     -38.204  21.189   0.080  0.00  0.00    +0.190 C 
BRANCH  20  21
ATOM     21  O   UNL     1     -38.531  22.478   0.572  0.00  0.00    -0.280 OA
BRANCH  21  22
ATOM     22  P   UNL     1     -39.655  22.652   1.734  0.00  0.00    +0.410 P 
ATOM     23  O   UNL     1     -39.090  23.343   2.950  0.00  0.00    -0.240 OA
BRANCH  22  24
ATOM     24  N   UNL     1     -41.000  23.353   1.044  0.00  0.00    -0.185 NA
ATOM     25  C   UNL     1     -41.219  23.107  -0.383  0.00  0.00    +0.100 C 
ATOM     26  C   UNL     1     -41.234  24.771   1.327  0.00  0.00    +0.100 C 
ENDBRANCH  22  24
BRANCH  22  27
ATOM     27  O   UNL     1     -40.036  21.105   2.058  0.00  0.00    -0.312 OA
ATOM     28  H   UNL     1     -40.268  20.650   1.233  0.00  0.00    +0.221 HD
ENDBRANCH  22  27
ENDBRANCH  21  22
ENDBRANCH  20  21
ENDBRANCH   3  20
TORSDOF 7
ENDMDL
MODEL 3
REMARK VINA RESULT:      -6.0      2.955      4.851
REMARK  Name = 193808
REMARK  7 active torsions:
REMARK  status: ('A' for Active; 'I' for Inactive)
REMARK    1  A    between atoms: C_2  and  N_6
REMARK    2  A    between atoms: C_3  and  C_20
REMARK    3  A    between atoms: C_4  and  O_18
REMARK    4  A    between atoms: C_20  and  O_21
REMARK    5  A    between atoms: O_21  and  P_22
REMARK    6  A    between atoms: P_22  and  N_24
REMARK    7  A    between atoms: P_22  and  O_27
REMARK                            x       y       z     vdW  Elec       q    Type
REMARK                         _______ _______ _______ _____ _____    ______ ____
ROOT
ATOM      1  O   UNL     1     -36.363  23.259   1.876  0.00  0.00    -0.326 OA
ATOM      2  C   UNL     1     -35.093  22.844   2.428  0.00  0.00    +0.222 C 
ATOM      3  C   UNL     1     -37.190  22.080   1.705  0.00  0.00    +0.203 C 
ATOM      4  C   UNL     1     -36.449  21.000   2.407  0.00  0.00    +0.140 C 
ATOM      5  C   UNL     1     -35.259  21.421   2.828  0.00  0.00    +0.059 C 
ENDROOT
BRANCH   2   6
ATOM      6  N   UNL     1     -34.825  23.690   3.566  0.00  0.00    -0.245 N 
ATOM      7  N   UNL     1     -34.869  24.433   5.667  0.00  0.00    -0.242 NA
ATOM      8  N   UNL     1     -33.435  25.402   2.548  0.00  0.00    -0.228 NA
ATOM      9  N   UNL     1     -32.746  27.074   4.186  0.00  0.00    -0.229 NA
ATOM     10  C   UNL     1     -34.075  24.831   3.580  0.00  0.00    +0.152 C 
ATOM     11  C   UNL     1     -35.281  23.492   4.842  0.00  0.00    +0.223 C 
ATOM     12  C   UNL     1     -34.113  25.276   4.891  0.00  0.00    +0.140 C 
ATOM     13  C   UNL     1     -33.415  26.443   5.180  0.00  0.00    +0.143 C 
ATOM     14  C   UNL     1     -32.796  26.522   2.950  0.00  0.00    +0.253 C 
ATOM     15  N   UNL     1     -33.400  26.966   6.485  0.00  0.00    -0.342 N 
ATOM     16  H   UNL     1     -32.902  27.793   6.679  0.00  0.00    +0.144 HD
ATOM     17  H   UNL     1     -33.887  26.505   7.206  0.00  0.00    +0.144 HD
ENDBRANCH   2   6
BRANCH   4  18
ATOM     18  O   UNL     1     -36.947  19.738   2.534  0.00  0.00    -0.507 OA
ATOM     19  H   UNL     1     -36.362  19.010   2.611  0.00  0.00    +0.292 HD
ENDBRANCH   4  18
BRANCH   3  20
ATOM     20  C   UNL     1     -38.533  22.375   2.280  0.00  0.00    +0.190 C 
BRANCH  20  21
ATOM     21  O   UNL     1     -38.422  23.420   3.232  0.00  0.00    -0.280 OA
BRANCH  21  22
ATOM     22  P   UNL     1     -39.112  24.865   2.947  0.00  0.00    +0.410 P 
ATOM     23  O   UNL     1     -38.112  25.988   3.069  0.00  0.00    -0.240 OA
BRANCH  22  24
ATOM     24  N   UNL     1     -39.937  24.763   1.503  0.00  0.00    -0.185 NA
ATOM     25  C   UNL     1     -39.283  25.334   0.323  0.00  0.00    +0.100 C 
ATOM     26  C   UNL     1     -41.346  25.163   1.510  0.00  0.00    +0.100 C 
ENDBRANCH  22  24
BRANCH  22  27
ATOM     27  O   UNL     1     -40.226  24.937   4.129  0.00  0.00    -0.312 OA
ATOM     28  H   UNL     1     -40.508  25.856   4.253  0.00  0.00    +0.221 HD
ENDBRANCH  22  27
ENDBRANCH  21  22
ENDBRANCH  20  21
ENDBRANCH   3  20
TORSDOF 7
ENDMDL
MODEL 4
REMARK VINA RESULT:      -6.0      3.637      7.856
REMARK  Name = 193808
REMARK  7 active torsions:
REMARK  status: ('A' for Active; 'I' for Inactive)
REMARK    1  A    between atoms: C_2  and  N_6
REMARK    2  A    between atoms: C_3  and  C_20
REMARK    3  A    between atoms: C_4  and  O_18
REMARK    4  A    between atoms: C_20  and  O_21
REMARK    5  A    between atoms: O_21  and  P_22
REMARK    6  A    between atoms: P_22  and  N_24
REMARK    7  A    between atoms: P_22  and  O_27
REMARK                            x       y       z     vdW  Elec       q    Type
REMARK                         _______ _______ _______ _____ _____    ______ ____
ROOT
ATOM      1  O   UNL     1     -35.581  26.414   3.604  0.00  0.00    -0.326 OA
ATOM      2  C   UNL     1     -36.272  25.586   4.568  0.00  0.00    +0.222 C 
ATOM      3  C   UNL     1     -34.409  26.975   4.247  0.00  0.00    +0.203 C 
ATOM      4  C   UNL     1     -34.309  26.250   5.540  0.00  0.00    +0.140 C 
ATOM      5  C   UNL     1     -35.358  25.454   5.733  0.00  0.00    +0.059 C 
ENDROOT
BRANCH   2   6
ATOM      6  N   UNL     1     -36.522  24.313   3.938  0.00  0.00    -0.245 N 
ATOM      7  N   UNL     1     -36.145  22.243   3.200  0.00  0.00    -0.242 NA
ATOM      8  N   UNL     1     -38.823  24.599   3.218  0.00  0.00    -0.228 NA
ATOM      9  N   UNL     1     -39.650  22.608   2.075  0.00  0.00    -0.229 NA
ATOM     10  C   UNL     1     -37.682  23.907   3.342  0.00  0.00    +0.152 C 
ATOM     11  C   UNL     1     -35.629  23.280   3.827  0.00  0.00    +0.223 C 
ATOM     12  C   UNL     1     -37.428  22.621   2.892  0.00  0.00    +0.140 C 
ATOM     13  C   UNL     1     -38.467  21.968   2.237  0.00  0.00    +0.143 C 
ATOM     14  C   UNL     1     -39.753  23.865   2.568  0.00  0.00    +0.253 C 
ATOM     15  N   UNL     1     -38.297  20.661   1.748  0.00  0.00    -0.342 N 
ATOM     16  H   UNL     1     -39.040  20.208   1.286  0.00  0.00    +0.144 HD
ATOM     17  H   UNL     1     -37.437  20.198   1.868  0.00  0.00    +0.144 HD
ENDBRANCH   2   6
BRANCH   4  18
ATOM     18  O   UNL     1     -33.279  26.447   6.410  0.00  0.00    -0.507 OA
ATOM     19  H   UNL     1     -33.195  25.903   7.168  0.00  0.00    +0.292 HD
ENDBRANCH   4  18
BRANCH   3  20
ATOM     20  C   UNL     1     -33.245  26.770   3.339  0.00  0.00    +0.190 C 
BRANCH  20  21
ATOM     21  O   UNL     1     -32.040  26.946   4.067  0.00  0.00    -0.280 OA
BRANCH  21  22
ATOM     22  P   UNL     1     -31.311  28.399   4.106  0.00  0.00    +0.410 P 
ATOM     23  O   UNL     1     -31.162  28.981   2.723  0.00  0.00    -0.240 OA
BRANCH  22  24
ATOM     24  N   UNL     1     -32.109  29.343   5.224  0.00  0.00    -0.185 NA
ATOM     25  C   UNL     1     -32.502  30.688   4.797  0.00  0.00    +0.100 C 
ATOM     26  C   UNL     1     -31.534  29.417   6.569  0.00  0.00    +0.100 C 
ENDBRANCH  22  24
BRANCH  22  27
ATOM     27  O   UNL     1     -29.864  28.023   4.747  0.00  0.00    -0.312 OA
ATOM     28  H   UNL     1     -29.987  27.409   5.487  0.00  0.00    +0.221 HD
ENDBRANCH  22  27
ENDBRANCH  21  22
ENDBRANCH  20  21
ENDBRANCH   3  20
TORSDOF 7
ENDMDL
MODEL 5
REMARK VINA RESULT:      -5.9      3.330      7.164
REMARK  Name = 193808
REMARK  7 active torsions:
REMARK  status: ('A' for Active; 'I' for Inactive)
REMARK    1  A    between atoms: C_2  and  N_6
REMARK    2  A    between atoms: C_3  and  C_20
REMARK    3  A    between atoms: C_4  and  O_18
REMARK    4  A    between atoms: C_20  and  O_21
REMARK    5  A    between atoms: O_21  and  P_22
REMARK    6  A    between atoms: P_22  and  N_24
REMARK    7  A    between atoms: P_22  and  O_27
REMARK                            x       y       z     vdW  Elec       q    Type
REMARK                         _______ _______ _______ _____ _____    ______ ____
ROOT
ATOM      1  O   UNL     1     -34.650  26.407   1.767  0.00  0.00    -0.326 OA
ATOM      2  C   UNL     1     -35.943  25.763   1.833  0.00  0.00    +0.222 C 
ATOM      3  C   UNL     1     -34.858  27.813   1.479  0.00  0.00    +0.203 C 
ATOM      4  C   UNL     1     -36.324  28.010   1.624  0.00  0.00    +0.140 C 
ATOM      5  C   UNL     1     -36.952  26.855   1.831  0.00  0.00    +0.059 C 
ENDROOT
BRANCH   2   6
ATOM      6  N   UNL     1     -35.980  25.004   3.058  0.00  0.00    -0.245 N 
ATOM      7  N   UNL     1     -36.215  24.564   5.232  0.00  0.00    -0.242 NA
ATOM      8  N   UNL     1     -35.451  22.780   2.238  0.00  0.00    -0.228 NA
ATOM      9  N   UNL     1     -35.416  21.149   4.054  0.00  0.00    -0.229 NA
ATOM     10  C   UNL     1     -35.754  23.664   3.200  0.00  0.00    +0.152 C 
ATOM     11  C   UNL     1     -36.253  25.500   4.306  0.00  0.00    +0.223 C 
ATOM     12  C   UNL     1     -35.905  23.411   4.554  0.00  0.00    +0.140 C 
ATOM     13  C   UNL     1     -35.724  22.096   4.972  0.00  0.00    +0.143 C 
ATOM     14  C   UNL     1     -35.301  21.544   2.763  0.00  0.00    +0.253 C 
ATOM     15  N   UNL     1     -35.859  21.750   6.327  0.00  0.00    -0.342 N 
ATOM     16  H   UNL     1     -35.729  20.816   6.612  0.00  0.00    +0.144 HD
ATOM     17  H   UNL     1     -36.084  22.440   6.992  0.00  0.00    +0.144 HD
ENDBRANCH   2   6
BRANCH   4  18
ATOM     18  O   UNL     1     -36.912  29.234   1.503  0.00  0.00    -0.507 OA
ATOM     19  H   UNL     1     -37.427  29.433   0.746  0.00  0.00    +0.292 HD
ENDBRANCH   4  18
BRANCH   3  20
ATOM     20  C   UNL     1     -34.037  28.605   2.438  0.00  0.00    +0.190 C 
BRANCH  20  21
ATOM     21  O   UNL     1     -34.075  27.990   3.715  0.00  0.00    -0.280 OA
BRANCH  21  22
ATOM     22  P   UNL     1     -32.707  27.788   4.570  0.00  0.00    +0.410 P 
ATOM     23  O   UNL     1     -31.558  27.373   3.685  0.00  0.00    -0.240 OA
BRANCH  22  24
ATOM     24  N   UNL     1     -32.473  29.155   5.493  0.00  0.00    -0.185 NA
ATOM     25  C   UNL     1     -32.035  30.363   4.791  0.00  0.00    +0.100 C 
ATOM     26  C   UNL     1     -31.689  29.005   6.722  0.00  0.00    +0.100 C 
ENDBRANCH  22  24
BRANCH  22  27
ATOM     27  O   UNL     1     -33.128  26.592   5.588  0.00  0.00    -0.312 OA
ATOM     28  H   UNL     1     -33.316  26.963   6.464  0.00  0.00    +0.221 HD
ENDBRANCH  22  27
ENDBRANCH  21  22
ENDBRANCH  20  21
ENDBRANCH   3  20
TORSDOF 7
ENDMDL
MODEL 6
REMARK VINA RESULT:      -5.9      5.347      8.259
REMARK  Name = 193808
REMARK  7 active torsions:
REMARK  status: ('A' for Active; 'I' for Inactive)
REMARK    1  A    between atoms: C_2  and  N_6
REMARK    2  A    between atoms: C_3  and  C_20
REMARK    3  A    between atoms: C_4  and  O_18
REMARK    4  A    between atoms: C_20  and  O_21
REMARK    5  A    between atoms: O_21  and  P_22
REMARK    6  A    between atoms: P_22  and  N_24
REMARK    7  A    between atoms: P_22  and  O_27
REMARK                            x       y       z     vdW  Elec       q    Type
REMARK                         _______ _______ _______ _____ _____    ______ ____
ROOT
ATOM      1  O   UNL     1     -38.639  26.020   2.672  0.00  0.00    -0.326 OA
ATOM      2  C   UNL     1     -38.006  24.839   2.128  0.00  0.00    +0.222 C 
ATOM      3  C   UNL     1     -40.045  25.982   2.320  0.00  0.00    +0.203 C 
ATOM      4  C   UNL     1     -40.255  24.619   1.766  0.00  0.00    +0.140 C 
ATOM      5  C   UNL     1     -39.106  23.957   1.657  0.00  0.00    +0.059 C 
ENDROOT
BRANCH   2   6
ATOM      6  N   UNL     1     -37.252  24.228   3.195  0.00  0.00    -0.245 N 
ATOM      7  N   UNL     1     -36.283  23.985   5.189  0.00  0.00    -0.242 NA
ATOM      8  N   UNL     1     -36.646  22.108   2.177  0.00  0.00    -0.228 NA
ATOM      9  N   UNL     1     -35.325  20.736   3.703  0.00  0.00    -0.229 NA
ATOM     10  C   UNL     1     -36.656  22.999   3.180  0.00  0.00    +0.152 C 
ATOM     11  C   UNL     1     -36.999  24.782   4.423  0.00  0.00    +0.223 C 
ATOM     12  C   UNL     1     -36.062  22.867   4.424  0.00  0.00    +0.140 C 
ATOM     13  C   UNL     1     -35.377  21.682   4.671  0.00  0.00    +0.143 C 
ATOM     14  C   UNL     1     -35.954  21.004   2.533  0.00  0.00    +0.253 C 
ATOM     15  N   UNL     1     -34.745  21.464   5.908  0.00  0.00    -0.342 N 
ATOM     16  H   UNL     1     -34.262  20.620   6.072  0.00  0.00    +0.144 HD
ATOM     17  H   UNL     1     -34.785  22.152   6.610  0.00  0.00    +0.144 HD
ENDBRANCH   2   6
BRANCH   4  18
ATOM     18  O   UNL     1     -41.483  24.167   1.385  0.00  0.00    -0.507 OA
ATOM     19  H   UNL     1     -41.903  23.487   1.873  0.00  0.00    +0.292 HD
ENDBRANCH   4  18
BRANCH   3  20
ATOM     20  C   UNL     1     -40.835  26.270   3.551  0.00  0.00    +0.190 C 
BRANCH  20  21
ATOM     21  O   UNL     1     -42.159  26.627   3.191  0.00  0.00    -0.280 OA
BRANCH  21  22
ATOM     22  P   UNL     1     -42.679  28.155   3.388  0.00  0.00    +0.410 P 
ATOM     23  O   UNL     1     -42.350  29.010   2.190  0.00  0.00    -0.240 OA
BRANCH  22  24
ATOM     24  N   UNL     1     -44.283  28.096   3.836  0.00  0.00    -0.185 NA
ATOM     25  C   UNL     1     -44.807  26.796   4.260  0.00  0.00    +0.100 C 
ATOM     26  C   UNL     1     -45.251  28.733   2.939  0.00  0.00    +0.100 C 
ENDBRANCH  22  24
BRANCH  22  27
ATOM     27  O   UNL     1     -41.836  28.624   4.697  0.00  0.00    -0.312 OA
ATOM     28  H   UNL     1     -40.968  28.191   4.695  0.00  0.00    +0.221 HD
ENDBRANCH  22  27
ENDBRANCH  21  22
ENDBRANCH  20  21
ENDBRANCH   3  20
TORSDOF 7
ENDMDL
MODEL 7
REMARK VINA RESULT:      -5.7      2.562      7.135
REMARK  Name = 193808
REMARK  7 active torsions:
REMARK  status: ('A' for Active; 'I' for Inactive)
REMARK    1  A    between atoms: C_2  and  N_6
REMARK    2  A    between atoms: C_3  and  C_20
REMARK    3  A    between atoms: C_4  and  O_18
REMARK    4  A    between atoms: C_20  and  O_21
REMARK    5  A    between atoms: O_21  and  P_22
REMARK    6  A    between atoms: P_22  and  N_24
REMARK    7  A    between atoms: P_22  and  O_27
REMARK                            x       y       z     vdW  Elec       q    Type
REMARK                         _______ _______ _______ _____ _____    ______ ____
ROOT
ATOM      1  O   UNL     1     -36.662  22.545   1.761  0.00  0.00    -0.326 OA
ATOM      2  C   UNL     1     -35.877  21.362   2.034  0.00  0.00    +0.222 C 
ATOM      3  C   UNL     1     -37.034  23.143   3.029  0.00  0.00    +0.203 C 
ATOM      4  C   UNL     1     -36.232  22.406   4.039  0.00  0.00    +0.140 C 
ATOM      5  C   UNL     1     -35.566  21.395   3.488  0.00  0.00    +0.059 C 
ENDROOT
BRANCH   2   6
ATOM      6  N   UNL     1     -34.682  21.447   1.230  0.00  0.00    -0.245 N 
ATOM      7  N   UNL     1     -33.138  22.316  -0.123  0.00  0.00    -0.242 NA
ATOM      8  N   UNL     1     -33.752  19.226   1.551  0.00  0.00    -0.228 NA
ATOM      9  N   UNL     1     -31.662  18.954   0.321  0.00  0.00    -0.229 NA
ATOM     10  C   UNL     1     -33.752  20.466   1.038  0.00  0.00    +0.152 C 
ATOM     11  C   UNL     1     -34.270  22.539   0.513  0.00  0.00    +0.223 C 
ATOM     12  C   UNL     1     -32.802  21.025   0.198  0.00  0.00    +0.140 C 
ATOM     13  C   UNL     1     -31.727  20.218  -0.160  0.00  0.00    +0.143 C 
ATOM     14  C   UNL     1     -32.664  18.542   1.135  0.00  0.00    +0.253 C 
ATOM     15  N   UNL     1     -30.717  20.705  -1.009  0.00  0.00    -0.342 N 
ATOM     16  H   UNL     1     -29.960  20.125  -1.255  0.00  0.00    +0.144 HD
ATOM     17  H   UNL     1     -30.766  21.624  -1.356  0.00  0.00    +0.144 HD
ENDBRANCH   2   6
BRANCH   4  18
ATOM     18  O   UNL     1     -36.249  22.731   5.363  0.00  0.00    -0.507 OA
ATOM     19  H   UNL     1     -35.952  22.112   6.001  0.00  0.00    +0.292 HD
ENDBRANCH   4  18
BRANCH   3  20
ATOM     20  C   UNL     1     -36.734  24.601   2.954  0.00  0.00    +0.190 C 
BRANCH  20  21
ATOM     21  O   UNL     1     -35.448  24.848   3.498  0.00  0.00    -0.280 OA
BRANCH  21  22
ATOM     22  P   UNL     1     -35.258  25.927   4.700  0.00  0.00    +0.410 P 
ATOM     23  O   UNL     1     -34.561  25.314   5.888  0.00  0.00    -0.240 OA
BRANCH  22  24
ATOM     24  N   UNL     1     -34.557  27.294   4.055  0.00  0.00    -0.185 NA
ATOM     25  C   UNL     1     -34.952  27.665   2.695  0.00  0.00    +0.100 C 
ATOM     26  C   UNL     1     -33.103  27.422   4.183  0.00  0.00    +0.100 C 
ENDBRANCH  22  24
BRANCH  22  27
ATOM     27  O   UNL     1     -36.801  26.303   5.051  0.00  0.00    -0.312 OA
ATOM     28  H   UNL     1     -36.849  27.223   5.354  0.00  0.00    +0.221 HD
ENDBRANCH  22  27
ENDBRANCH  21  22
ENDBRANCH  20  21
ENDBRANCH   3  20
TORSDOF 7
ENDMDL
MODEL 8
REMARK VINA RESULT:      -5.7      3.748      7.638
REMARK  Name = 193808
REMARK  7 active torsions:
REMARK  status: ('A' for Active; 'I' for Inactive)
REMARK    1  A    between atoms: C_2  and  N_6
REMARK    2  A    between atoms: C_3  and  C_20
REMARK    3  A    between atoms: C_4  and  O_18
REMARK    4  A    between atoms: C_20  and  O_21
REMARK    5  A    between atoms: O_21  and  P_22
REMARK    6  A    between atoms: P_22  and  N_24
REMARK    7  A    between atoms: P_22  and  O_27
REMARK                            x       y       z     vdW  Elec       q    Type
REMARK                         _______ _______ _______ _____ _____    ______ ____
ROOT
ATOM      1  O   UNL     1     -33.104  26.449   2.366  0.00  0.00    -0.326 OA
ATOM      2  C   UNL     1     -34.524  26.569   2.611  0.00  0.00    +0.222 C 
ATOM      3  C   UNL     1     -32.526  27.778   2.397  0.00  0.00    +0.203 C 
ATOM      4  C   UNL     1     -33.616  28.648   2.912  0.00  0.00    +0.140 C 
ATOM      5  C   UNL     1     -34.755  27.972   3.043  0.00  0.00    +0.059 C 
ENDROOT
BRANCH   2   6
ATOM      6  N   UNL     1     -34.860  25.627   3.651  0.00  0.00    -0.245 N 
ATOM      7  N   UNL     1     -35.320  24.851   5.690  0.00  0.00    -0.242 NA
ATOM      8  N   UNL     1     -35.040  23.571   2.372  0.00  0.00    -0.228 NA
ATOM      9  N   UNL     1     -35.614  21.681   3.806  0.00  0.00    -0.229 NA
ATOM     10  C   UNL     1     -35.084  24.288   3.505  0.00  0.00    +0.152 C 
ATOM     11  C   UNL     1     -35.013  25.917   4.981  0.00  0.00    +0.223 C 
ATOM     12  C   UNL     1     -35.369  23.825   4.779  0.00  0.00    +0.140 C 
ATOM     13  C   UNL     1     -35.641  22.467   4.909  0.00  0.00    +0.143 C 
ATOM     14  C   UNL     1     -35.319  22.273   2.623  0.00  0.00    +0.253 C 
ATOM     15  N   UNL     1     -35.940  21.913   6.165  0.00  0.00    -0.342 N 
ATOM     16  H   UNL     1     -36.131  20.949   6.245  0.00  0.00    +0.144 HD
ATOM     17  H   UNL     1     -35.960  22.486   6.965  0.00  0.00    +0.144 HD
ENDBRANCH   2   6
BRANCH   4  18
ATOM     18  O   UNL     1     -33.436  29.976   3.156  0.00  0.00    -0.507 OA
ATOM     19  H   UNL     1     -32.791  30.457   2.677  0.00  0.00    +0.292 HD
ENDBRANCH   4  18
BRANCH   3  20
ATOM     20  C   UNL     1     -31.317  27.733   3.267  0.00  0.00    +0.190 C 
BRANCH  20  21
ATOM     21  O   UNL     1     -31.711  27.545   4.616  0.00  0.00    -0.280 OA
BRANCH  21  22
ATOM     22  P   UNL     1     -31.007  28.404   5.804  0.00  0.00    +0.410 P 
ATOM     23  O   UNL     1     -29.653  27.844   6.163  0.00  0.00    -0.240 OA
BRANCH  22  24
ATOM     24  N   UNL     1     -31.050  30.012   5.368  0.00  0.00    -0.185 NA
ATOM     25  C   UNL     1     -29.763  30.697   5.230  0.00  0.00    +0.100 C 
ATOM     26  C   UNL     1     -31.977  30.878   6.100  0.00  0.00    +0.100 C 
ENDBRANCH  22  24
BRANCH  22  27
ATOM     27  O   UNL     1     -32.067  28.212   7.022  0.00  0.00    -0.312 OA
ATOM     28  H   UNL     1     -32.605  29.014   7.112  0.00  0.00    +0.221 HD
ENDBRANCH  22  27
ENDBRANCH  21  22
ENDBRANCH  20  21
ENDBRANCH   3  20
TORSDOF 7
ENDMDL
MODEL 9
REMARK VINA RESULT:      -5.6      3.368      9.047
REMARK  Name = 193808
REMARK  7 active torsions:
REMARK  status: ('A' for Active; 'I' for Inactive)
REMARK    1  A    between atoms: C_2  and  N_6
REMARK    2  A    between atoms: C_3  and  C_20
REMARK    3  A    between atoms: C_4  and  O_18
REMARK    4  A    between atoms: C_20  and  O_21
REMARK    5  A    between atoms: O_21  and  P_22
REMARK    6  A    between atoms: P_22  and  N_24
REMARK    7  A    between atoms: P_22  and  O_27
REMARK                            x       y       z     vdW  Elec       q    Type
REMARK                         _______ _______ _______ _____ _____    ______ ____
ROOT
ATOM      1  O   UNL     1     -35.027  21.349   1.004  0.00  0.00    -0.326 OA
ATOM      2  C   UNL     1     -35.506  20.219   0.240  0.00  0.00    +0.222 C 
ATOM      3  C   UNL     1     -36.128  21.855   1.801  0.00  0.00    +0.203 C 
ATOM      4  C   UNL     1     -37.194  20.830   1.659  0.00  0.00    +0.140 C 
ATOM      5  C   UNL     1     -36.852  19.892   0.779  0.00  0.00    +0.059 C 
ENDROOT
BRANCH   2   6
ATOM      6  N   UNL     1     -34.572  19.139   0.443  0.00  0.00    -0.245 N 
ATOM      7  N   UNL     1     -32.893  17.975   1.338  0.00  0.00    -0.242 NA
ATOM      8  N   UNL     1     -35.264  17.596  -1.301  0.00  0.00    -0.228 NA
ATOM      9  N   UNL     1     -33.894  15.577  -1.295  0.00  0.00    -0.229 NA
ATOM     10  C   UNL     1     -34.495  17.976  -0.270  0.00  0.00    +0.152 C 
ATOM     11  C   UNL     1     -33.590  19.092   1.397  0.00  0.00    +0.223 C 
ATOM     12  C   UNL     1     -33.449  17.268   0.301  0.00  0.00    +0.140 C 
ATOM     13  C   UNL     1     -33.157  16.025  -0.250  0.00  0.00    +0.143 C 
ATOM     14  C   UNL     1     -34.887  16.379  -1.749  0.00  0.00    +0.253 C 
ATOM     15  N   UNL     1     -32.113  15.239   0.267  0.00  0.00    -0.342 N 
ATOM     16  H   UNL     1     -31.915  14.360  -0.131  0.00  0.00    +0.144 HD
ATOM     17  H   UNL     1     -31.579  15.566   1.027  0.00  0.00    +0.144 HD
ENDBRANCH   2   6
BRANCH   4  18
ATOM     18  O   UNL     1     -38.378  20.910   2.329  0.00  0.00    -0.507 OA
ATOM     19  H   UNL     1     -39.168  20.615   1.921  0.00  0.00    +0.292 HD
ENDBRANCH   4  18
BRANCH   3  20
ATOM     20  C   UNL     1     -35.638  22.039   3.196  0.00  0.00    +0.190 C 
BRANCH  20  21
ATOM     21  O   UNL     1     -36.583  22.799   3.933  0.00  0.00    -0.280 OA
BRANCH  21  22
ATOM     22  P   UNL     1     -36.218  24.305   4.426  0.00  0.00    +0.410 P 
ATOM     23  O   UNL     1     -35.577  24.300   5.791  0.00  0.00    -0.240 OA
BRANCH  22  24
ATOM     24  N   UNL     1     -35.357  25.049   3.208  0.00  0.00    -0.185 NA
ATOM     25  C   UNL     1     -34.007  25.511   3.536  0.00  0.00    +0.100 C 
ATOM     26  C   UNL     1     -36.047  26.090   2.443  0.00  0.00    +0.100 C 
ENDBRANCH  22  24
BRANCH  22  27
ATOM     27  O   UNL     1     -37.686  25.003   4.467  0.00  0.00    -0.312 OA
ATOM     28  H   UNL     1     -37.896  25.261   5.378  0.00  0.00    +0.221 HD
ENDBRANCH  22  27
ENDBRANCH  21  22
ENDBRANCH  20  21
ENDBRANCH   3  20
TORSDOF 7
ENDMDL
