MODEL 1
REMARK VINA RESULT:      -6.6      0.000      0.000
REMARK  Name = 53340666
REMARK  11 active torsions:
REMARK  status: ('A' for Active; 'I' for Inactive)
REMARK    1  A    between atoms: N_1  and  C_8
REMARK    2  A    between atoms: N_1  and  C_14
REMARK    3  A    between atoms: C_4  and  C_22
REMARK    4  A    between atoms: N_21  and  C_24
REMARK    5  A    between atoms: C_24  and  C_25
REMARK    6  A    between atoms: C_25  and  C_26
REMARK    7  A    between atoms: C_26  and  C_27
REMARK    8  A    between atoms: C_27  and  C_28
REMARK    9  A    between atoms: C_28  and  C_29
REMARK   10  A    between atoms: C_29  and  C_32
REMARK   11  A    between atoms: N_31  and  O_34
REMARK                            x       y       z     vdW  Elec       q    Type
REMARK                         _______ _______ _______ _____ _____    ______ ____
ROOT
ATOM      1  N   UNL     1     -35.723  21.986   2.123  0.00  0.00    -0.211 N 
ATOM      2  N   UNL     1     -37.169  21.681   0.300  0.00  0.00    -0.202 NA
ATOM      3  N   UNL     1     -38.030  22.198   2.491  0.00  0.00    -0.180 NA
ATOM      4  C   UNL     1     -39.542  21.892   0.643  0.00  0.00    +0.076 C 
ATOM      5  C   UNL     1     -37.039  21.953   1.613  0.00  0.00    +0.098 C 
ATOM      6  C   UNL     1     -38.440  21.658  -0.153  0.00  0.00    +0.170 C 
ATOM      7  C   UNL     1     -39.274  22.159   1.970  0.00  0.00    +0.113 C 
ENDROOT
BRANCH   1   8
ATOM      8  C   UNL     1     -34.665  21.159   1.542  0.00  0.00    +0.065 C 
ATOM      9  C   UNL     1     -33.820  21.691   0.568  0.00  0.00    +0.016 C 
ATOM     10  C   UNL     1     -34.504  19.839   1.960  0.00  0.00    +0.016 C 
ATOM     11  C   UNL     1     -32.812  20.903   0.013  0.00  0.00    +0.001 C 
ATOM     12  C   UNL     1     -33.495  19.050   1.405  0.00  0.00    +0.001 C 
ATOM     13  C   UNL     1     -32.650  19.582   0.432  0.00  0.00    +0.000 C 
ENDBRANCH   1   8
BRANCH   1  14
ATOM     14  C   UNL     1     -35.370  22.848   3.252  0.00  0.00    +0.065 C 
ATOM     15  C   UNL     1     -34.914  24.146   3.022  0.00  0.00    +0.016 C 
ATOM     16  C   UNL     1     -35.489  22.371   4.557  0.00  0.00    +0.016 C 
ATOM     17  C   UNL     1     -34.577  24.967   4.098  0.00  0.00    +0.001 C 
ATOM     18  C   UNL     1     -35.152  23.193   5.633  0.00  0.00    +0.001 C 
ATOM     19  C   UNL     1     -34.697  24.491   5.403  0.00  0.00    +0.000 C 
ENDBRANCH   1  14
BRANCH   4  22
ATOM     20  O   UNL     1     -41.497  20.777  -0.014  0.00  0.00    -0.270 OA
ATOM     21  N   UNL     1     -41.493  23.089  -0.203  0.00  0.00    -0.301 N 
ATOM     22  C   UNL     1     -40.927  21.858   0.107  0.00  0.00    +0.245 C 
ATOM     23  H   UNL     1     -40.956  23.903  -0.072  0.00  0.00    +0.150 HD
BRANCH  21  24
ATOM     24  C   UNL     1     -42.834  23.221  -0.708  0.00  0.00    +0.090 C 
BRANCH  24  25
ATOM     25  C   UNL     1     -43.319  24.665  -0.635  0.00  0.00    +0.021 C 
BRANCH  25  26
ATOM     26  C   UNL     1     -43.697  25.054   0.794  0.00  0.00    +0.002 C 
BRANCH  26  27
ATOM     27  C   UNL     1     -43.228  26.471   1.128  0.00  0.00    +0.001 C 
BRANCH  27  28
ATOM     28  C   UNL     1     -41.710  26.517   1.338  0.00  0.00    +0.010 C 
BRANCH  28  29
ATOM     29  C   UNL     1     -41.249  25.578   2.451  0.00  0.00    +0.087 C 
BRANCH  29  32
ATOM     30  O   UNL     1     -39.042  26.561   2.289  0.00  0.00    -0.273 OA
ATOM     31  N   UNL     1     -39.426  24.903   3.850  0.00  0.00    -0.197 N 
ATOM     32  C   UNL     1     -39.792  25.760   2.841  0.00  0.00    +0.244 C 
ATOM     33  H   UNL     1     -40.064  24.276   4.262  0.00  0.00    +0.182 HD
BRANCH  31  34
ATOM     34  O   UNL     1     -38.086  24.976   4.256  0.00  0.00    -0.295 OA
ATOM     35  H   UNL     1     -37.931  24.343   4.975  0.00  0.00    +0.241 HD
ENDBRANCH  31  34
ENDBRANCH  29  32
ENDBRANCH  28  29
ENDBRANCH  27  28
ENDBRANCH  26  27
ENDBRANCH  25  26
ENDBRANCH  24  25
ENDBRANCH  21  24
ENDBRANCH   4  22
TORSDOF 11
ENDMDL
MODEL 2
REMARK VINA RESULT:      -6.5      0.550      3.435
REMARK  Name = 53340666
REMARK  11 active torsions:
REMARK  status: ('A' for Active; 'I' for Inactive)
REMARK    1  A    between atoms: N_1  and  C_8
REMARK    2  A    between atoms: N_1  and  C_14
REMARK    3  A    between atoms: C_4  and  C_22
REMARK    4  A    between atoms: N_21  and  C_24
REMARK    5  A    between atoms: C_24  and  C_25
REMARK    6  A    between atoms: C_25  and  C_26
REMARK    7  A    between atoms: C_26  and  C_27
REMARK    8  A    between atoms: C_27  and  C_28
REMARK    9  A    between atoms: C_28  and  C_29
REMARK   10  A    between atoms: C_29  and  C_32
REMARK   11  A    between atoms: N_31  and  O_34
REMARK                            x       y       z     vdW  Elec       q    Type
REMARK                         _______ _______ _______ _____ _____    ______ ____
ROOT
ATOM      1  N   UNL     1     -35.770  21.990   2.119  0.00  0.00    -0.211 N 
ATOM      2  N   UNL     1     -38.082  22.159   2.483  0.00  0.00    -0.202 NA
ATOM      3  N   UNL     1     -37.205  21.678   0.290  0.00  0.00    -0.180 NA
ATOM      4  C   UNL     1     -39.583  21.845   0.627  0.00  0.00    +0.076 C 
ATOM      5  C   UNL     1     -37.084  21.940   1.605  0.00  0.00    +0.098 C 
ATOM      6  C   UNL     1     -39.324  22.104   1.957  0.00  0.00    +0.170 C 
ATOM      7  C   UNL     1     -38.473  21.638  -0.168  0.00  0.00    +0.113 C 
ENDROOT
BRANCH   1   8
ATOM      8  C   UNL     1     -35.434  22.846   3.257  0.00  0.00    +0.065 C 
ATOM      9  C   UNL     1     -35.505  22.341   4.555  0.00  0.00    +0.016 C 
ATOM     10  C   UNL     1     -35.045  24.168   3.043  0.00  0.00    +0.016 C 
ATOM     11  C   UNL     1     -35.185  23.157   5.640  0.00  0.00    +0.001 C 
ATOM     12  C   UNL     1     -34.725  24.984   4.128  0.00  0.00    +0.001 C 
ATOM     13  C   UNL     1     -34.796  24.480   5.426  0.00  0.00    +0.000 C 
ENDBRANCH   1   8
BRANCH   1  14
ATOM     14  C   UNL     1     -34.696  21.186   1.533  0.00  0.00    +0.065 C 
ATOM     15  C   UNL     1     -33.850  21.746   0.576  0.00  0.00    +0.016 C 
ATOM     16  C   UNL     1     -34.520  19.861   1.931  0.00  0.00    +0.016 C 
ATOM     17  C   UNL     1     -32.828  20.979   0.016  0.00  0.00    +0.001 C 
ATOM     18  C   UNL     1     -33.497  19.095   1.371  0.00  0.00    +0.001 C 
ATOM     19  C   UNL     1     -32.651  19.654   0.415  0.00  0.00    +0.000 C 
ENDBRANCH   1  14
BRANCH   4  22
ATOM     20  O   UNL     1     -41.538  20.710   0.005  0.00  0.00    -0.270 OA
ATOM     21  N   UNL     1     -41.526  23.011  -0.279  0.00  0.00    -0.301 N 
ATOM     22  C   UNL     1     -40.965  21.793   0.085  0.00  0.00    +0.245 C 
ATOM     23  H   UNL     1     -40.986  23.828  -0.178  0.00  0.00    +0.150 HD
BRANCH  21  24
ATOM     24  C   UNL     1     -42.863  23.127  -0.796  0.00  0.00    +0.090 C 
BRANCH  24  25
ATOM     25  C   UNL     1     -43.599  24.314  -0.185  0.00  0.00    +0.021 C 
BRANCH  25  26
ATOM     26  C   UNL     1     -42.622  25.377   0.317  0.00  0.00    +0.002 C 
BRANCH  26  27
ATOM     27  C   UNL     1     -42.834  25.671   1.803  0.00  0.00    +0.001 C 
BRANCH  27  28
ATOM     28  C   UNL     1     -41.581  26.293   2.429  0.00  0.00    +0.010 C 
BRANCH  28  29
ATOM     29  C   UNL     1     -40.367  26.208   1.505  0.00  0.00    +0.087 C 
BRANCH  29  32
ATOM     30  O   UNL     1     -38.049  25.514   1.600  0.00  0.00    -0.273 OA
ATOM     31  N   UNL     1     -39.366  25.311   3.487  0.00  0.00    -0.197 N 
ATOM     32  C   UNL     1     -39.123  25.655   2.179  0.00  0.00    +0.244 C 
ATOM     33  H   UNL     1     -40.245  25.443   3.908  0.00  0.00    +0.182 HD
BRANCH  31  34
ATOM     34  O   UNL     1     -38.281  24.760   4.183  0.00  0.00    -0.295 OA
ATOM     35  H   UNL     1     -38.602  24.074   4.790  0.00  0.00    +0.241 HD
ENDBRANCH  31  34
ENDBRANCH  29  32
ENDBRANCH  28  29
ENDBRANCH  27  28
ENDBRANCH  26  27
ENDBRANCH  25  26
ENDBRANCH  24  25
ENDBRANCH  21  24
ENDBRANCH   4  22
TORSDOF 11
ENDMDL
MODEL 3
REMARK VINA RESULT:      -6.5      6.548      8.645
REMARK  Name = 53340666
REMARK  11 active torsions:
REMARK  status: ('A' for Active; 'I' for Inactive)
REMARK    1  A    between atoms: N_1  and  C_8
REMARK    2  A    between atoms: N_1  and  C_14
REMARK    3  A    between atoms: C_4  and  C_22
REMARK    4  A    between atoms: N_21  and  C_24
REMARK    5  A    between atoms: C_24  and  C_25
REMARK    6  A    between atoms: C_25  and  C_26
REMARK    7  A    between atoms: C_26  and  C_27
REMARK    8  A    between atoms: C_27  and  C_28
REMARK    9  A    between atoms: C_28  and  C_29
REMARK   10  A    between atoms: C_29  and  C_32
REMARK   11  A    between atoms: N_31  and  O_34
REMARK                            x       y       z     vdW  Elec       q    Type
REMARK                         _______ _______ _______ _____ _____    ______ ____
ROOT
ATOM      1  N   UNL     1     -33.931  27.509   3.910  0.00  0.00    -0.211 N 
ATOM      2  N   UNL     1     -34.427  29.677   3.161  0.00  0.00    -0.202 NA
ATOM      3  N   UNL     1     -35.588  27.763   2.268  0.00  0.00    -0.180 NA
ATOM      4  C   UNL     1     -36.121  29.972   1.477  0.00  0.00    +0.076 C 
ATOM      5  C   UNL     1     -34.686  28.358   3.072  0.00  0.00    +0.098 C 
ATOM      6  C   UNL     1     -35.166  30.458   2.346  0.00  0.00    +0.170 C 
ATOM      7  C   UNL     1     -36.290  28.603   1.481  0.00  0.00    +0.113 C 
ENDROOT
BRANCH   1   8
ATOM      8  C   UNL     1     -32.569  27.860   4.314  0.00  0.00    +0.065 C 
ATOM      9  C   UNL     1     -32.296  28.172   5.646  0.00  0.00    +0.016 C 
ATOM     10  C   UNL     1     -31.546  27.884   3.367  0.00  0.00    +0.016 C 
ATOM     11  C   UNL     1     -30.997  28.507   6.031  0.00  0.00    +0.001 C 
ATOM     12  C   UNL     1     -30.248  28.218   3.752  0.00  0.00    +0.001 C 
ATOM     13  C   UNL     1     -29.973  28.530   5.084  0.00  0.00    +0.000 C 
ENDBRANCH   1   8
BRANCH   1  14
ATOM     14  C   UNL     1     -34.484  26.247   4.405  0.00  0.00    +0.065 C 
ATOM     15  C   UNL     1     -33.849  25.042   4.104  0.00  0.00    +0.016 C 
ATOM     16  C   UNL     1     -35.645  26.251   5.178  0.00  0.00    +0.016 C 
ATOM     17  C   UNL     1     -34.377  23.841   4.575  0.00  0.00    +0.001 C 
ATOM     18  C   UNL     1     -36.172  25.049   5.649  0.00  0.00    +0.001 C 
ATOM     19  C   UNL     1     -35.538  23.844   5.349  0.00  0.00    +0.000 C 
ENDBRANCH   1  14
BRANCH   4  22
ATOM     20  O   UNL     1     -38.121  30.669   0.471  0.00  0.00    -0.270 OA
ATOM     21  N   UNL     1     -36.216  31.895  -0.023  0.00  0.00    -0.301 N 
ATOM     22  C   UNL     1     -36.915  30.865   0.594  0.00  0.00    +0.245 C 
ATOM     23  H   UNL     1     -35.248  31.971   0.137  0.00  0.00    +0.150 HD
BRANCH  21  24
ATOM     24  C   UNL     1     -36.849  32.855  -0.887  0.00  0.00    +0.090 C 
BRANCH  24  25
ATOM     25  C   UNL     1     -36.730  34.271  -0.333  0.00  0.00    +0.021 C 
BRANCH  25  26
ATOM     26  C   UNL     1     -37.462  34.410   1.001  0.00  0.00    +0.002 C 
BRANCH  26  27
ATOM     27  C   UNL     1     -37.807  35.871   1.297  0.00  0.00    +0.001 C 
BRANCH  27  28
ATOM     28  C   UNL     1     -38.939  35.976   2.324  0.00  0.00    +0.010 C 
BRANCH  28  29
ATOM     29  C   UNL     1     -40.321  35.887   1.677  0.00  0.00    +0.087 C 
BRANCH  29  32
ATOM     30  O   UNL     1     -41.852  34.047   2.043  0.00  0.00    -0.273 OA
ATOM     31  N   UNL     1     -41.561  35.621   3.708  0.00  0.00    -0.197 N 
ATOM     32  C   UNL     1     -41.318  35.065   2.475  0.00  0.00    +0.244 C 
ATOM     33  H   UNL     1     -41.108  36.440   4.011  0.00  0.00    +0.182 HD
BRANCH  31  34
ATOM     34  O   UNL     1     -42.497  34.948   4.506  0.00  0.00    -0.295 OA
ATOM     35  H   UNL     1     -42.418  35.253   5.423  0.00  0.00    +0.241 HD
ENDBRANCH  31  34
ENDBRANCH  29  32
ENDBRANCH  28  29
ENDBRANCH  27  28
ENDBRANCH  26  27
ENDBRANCH  25  26
ENDBRANCH  24  25
ENDBRANCH  21  24
ENDBRANCH   4  22
TORSDOF 11
ENDMDL
MODEL 4
REMARK VINA RESULT:      -6.4      2.965      5.531
REMARK  Name = 53340666
REMARK  11 active torsions:
REMARK  status: ('A' for Active; 'I' for Inactive)
REMARK    1  A    between atoms: N_1  and  C_8
REMARK    2  A    between atoms: N_1  and  C_14
REMARK    3  A    between atoms: C_4  and  C_22
REMARK    4  A    between atoms: N_21  and  C_24
REMARK    5  A    between atoms: C_24  and  C_25
REMARK    6  A    between atoms: C_25  and  C_26
REMARK    7  A    between atoms: C_26  and  C_27
REMARK    8  A    between atoms: C_27  and  C_28
REMARK    9  A    between atoms: C_28  and  C_29
REMARK   10  A    between atoms: C_29  and  C_32
REMARK   11  A    between atoms: N_31  and  O_34
REMARK                            x       y       z     vdW  Elec       q    Type
REMARK                         _______ _______ _______ _____ _____    ______ ____
ROOT
ATOM      1  N   UNL     1     -35.307  18.584  -0.164  0.00  0.00    -0.211 N 
ATOM      2  N   UNL     1     -37.333  19.758  -0.309  0.00  0.00    -0.202 NA
ATOM      3  N   UNL     1     -35.855  20.068   1.569  0.00  0.00    -0.180 NA
ATOM      4  C   UNL     1     -37.926  21.288   1.452  0.00  0.00    +0.076 C 
ATOM      5  C   UNL     1     -36.210  19.516   0.393  0.00  0.00    +0.098 C 
ATOM      6  C   UNL     1     -38.173  20.654   0.252  0.00  0.00    +0.170 C 
ATOM      7  C   UNL     1     -36.740  20.953   2.072  0.00  0.00    +0.113 C 
ENDROOT
BRANCH   1   8
ATOM      8  C   UNL     1     -35.778  17.481  -1.002  0.00  0.00    +0.065 C 
ATOM      9  C   UNL     1     -36.522  16.445  -0.437  0.00  0.00    +0.016 C 
ATOM     10  C   UNL     1     -35.483  17.467  -2.364  0.00  0.00    +0.016 C 
ATOM     11  C   UNL     1     -36.972  15.394  -1.237  0.00  0.00    +0.001 C 
ATOM     12  C   UNL     1     -35.933  16.416  -3.164  0.00  0.00    +0.001 C 
ATOM     13  C   UNL     1     -36.677  15.379  -2.600  0.00  0.00    +0.000 C 
ENDBRANCH   1   8
BRANCH   1  14
ATOM     14  C   UNL     1     -33.867  18.688   0.078  0.00  0.00    +0.065 C 
ATOM     15  C   UNL     1     -33.144  19.750  -0.464  0.00  0.00    +0.016 C 
ATOM     16  C   UNL     1     -33.219  17.724   0.851  0.00  0.00    +0.016 C 
ATOM     17  C   UNL     1     -31.772  19.848  -0.234  0.00  0.00    +0.001 C 
ATOM     18  C   UNL     1     -31.847  17.823   1.080  0.00  0.00    +0.001 C 
ATOM     19  C   UNL     1     -31.123  18.885   0.539  0.00  0.00    +0.000 C 
ENDBRANCH   1  14
BRANCH   4  22
ATOM     20  O   UNL     1     -40.051  21.947   2.193  0.00  0.00    -0.270 OA
ATOM     21  N   UNL     1     -38.340  23.500   2.396  0.00  0.00    -0.301 N 
ATOM     22  C   UNL     1     -38.876  22.269   2.038  0.00  0.00    +0.245 C 
ATOM     23  H   UNL     1     -37.384  23.665   2.232  0.00  0.00    +0.150 HD
BRANCH  21  24
ATOM     24  C   UNL     1     -39.127  24.544   2.998  0.00  0.00    +0.090 C 
BRANCH  24  25
ATOM     25  C   UNL     1     -38.301  25.803   3.231  0.00  0.00    +0.021 C 
BRANCH  25  26
ATOM     26  C   UNL     1     -36.840  25.593   2.835  0.00  0.00    +0.002 C 
BRANCH  26  27
ATOM     27  C   UNL     1     -35.889  26.206   3.866  0.00  0.00    +0.001 C 
BRANCH  27  28
ATOM     28  C   UNL     1     -36.084  25.570   5.246  0.00  0.00    +0.010 C 
BRANCH  28  29
ATOM     29  C   UNL     1     -35.055  24.478   5.534  0.00  0.00    +0.087 C 
BRANCH  29  32
ATOM     30  O   UNL     1     -36.628  22.816   4.742  0.00  0.00    -0.273 OA
ATOM     31  N   UNL     1     -34.790  22.138   5.966  0.00  0.00    -0.197 N 
ATOM     32  C   UNL     1     -35.590  23.068   5.349  0.00  0.00    +0.244 C 
ATOM     33  H   UNL     1     -33.966  22.389   6.442  0.00  0.00    +0.182 HD
BRANCH  31  34
ATOM     34  O   UNL     1     -35.223  20.807   5.877  0.00  0.00    -0.295 OA
ATOM     35  H   UNL     1     -34.538  20.220   6.234  0.00  0.00    +0.241 HD
ENDBRANCH  31  34
ENDBRANCH  29  32
ENDBRANCH  28  29
ENDBRANCH  27  28
ENDBRANCH  26  27
ENDBRANCH  25  26
ENDBRANCH  24  25
ENDBRANCH  21  24
ENDBRANCH   4  22
TORSDOF 11
ENDMDL
MODEL 5
REMARK VINA RESULT:      -6.3      6.872      8.944
REMARK  Name = 53340666
REMARK  11 active torsions:
REMARK  status: ('A' for Active; 'I' for Inactive)
REMARK    1  A    between atoms: N_1  and  C_8
REMARK    2  A    between atoms: N_1  and  C_14
REMARK    3  A    between atoms: C_4  and  C_22
REMARK    4  A    between atoms: N_21  and  C_24
REMARK    5  A    between atoms: C_24  and  C_25
REMARK    6  A    between atoms: C_25  and  C_26
REMARK    7  A    between atoms: C_26  and  C_27
REMARK    8  A    between atoms: C_27  and  C_28
REMARK    9  A    between atoms: C_28  and  C_29
REMARK   10  A    between atoms: C_29  and  C_32
REMARK   11  A    between atoms: N_31  and  O_34
REMARK                            x       y       z     vdW  Elec       q    Type
REMARK                         _______ _______ _______ _____ _____    ______ ____
ROOT
ATOM      1  N   UNL     1     -33.557  27.763   3.977  0.00  0.00    -0.211 N 
ATOM      2  N   UNL     1     -35.209  28.406   2.440  0.00  0.00    -0.202 NA
ATOM      3  N   UNL     1     -34.000  30.053   3.719  0.00  0.00    -0.180 NA
ATOM      4  C   UNL     1     -35.689  30.747   2.151  0.00  0.00    +0.076 C 
ATOM      5  C   UNL     1     -34.292  28.791   3.347  0.00  0.00    +0.098 C 
ATOM      6  C   UNL     1     -35.892  29.414   1.858  0.00  0.00    +0.170 C 
ATOM      7  C   UNL     1     -34.721  31.009   3.099  0.00  0.00    +0.113 C 
ENDROOT
BRANCH   1   8
ATOM      8  C   UNL     1     -34.139  26.438   4.191  0.00  0.00    +0.065 C 
ATOM      9  C   UNL     1     -33.912  25.420   3.265  0.00  0.00    +0.016 C 
ATOM     10  C   UNL     1     -34.922  26.195   5.318  0.00  0.00    +0.016 C 
ATOM     11  C   UNL     1     -34.467  24.156   3.469  0.00  0.00    +0.001 C 
ATOM     12  C   UNL     1     -35.478  24.932   5.521  0.00  0.00    +0.001 C 
ATOM     13  C   UNL     1     -35.251  23.912   4.596  0.00  0.00    +0.000 C 
ENDBRANCH   1   8
BRANCH   1  14
ATOM     14  C   UNL     1     -32.186  27.987   4.439  0.00  0.00    +0.065 C 
ATOM     15  C   UNL     1     -31.932  28.197   5.794  0.00  0.00    +0.016 C 
ATOM     16  C   UNL     1     -31.134  27.988   3.523  0.00  0.00    +0.016 C 
ATOM     17  C   UNL     1     -30.626  28.410   6.234  0.00  0.00    +0.001 C 
ATOM     18  C   UNL     1     -29.827  28.202   3.964  0.00  0.00    +0.001 C 
ATOM     19  C   UNL     1     -29.573  28.411   5.318  0.00  0.00    +0.000 C 
ENDBRANCH   1  14
BRANCH   4  22
ATOM     20  O   UNL     1     -37.690  31.797   1.522  0.00  0.00    -0.270 OA
ATOM     21  N   UNL     1     -35.715  32.834   0.886  0.00  0.00    -0.301 N 
ATOM     22  C   UNL     1     -36.462  31.829   1.489  0.00  0.00    +0.245 C 
ATOM     23  H   UNL     1     -34.733  32.773   0.912  0.00  0.00    +0.150 HD
BRANCH  21  24
ATOM     24  C   UNL     1     -36.319  33.961   0.227  0.00  0.00    +0.090 C 
BRANCH  24  25
ATOM     25  C   UNL     1     -36.325  35.196   1.122  0.00  0.00    +0.021 C 
BRANCH  25  26
ATOM     26  C   UNL     1     -37.203  36.302   0.538  0.00  0.00    +0.002 C 
BRANCH  26  27
ATOM     27  C   UNL     1     -38.682  35.907   0.555  0.00  0.00    +0.001 C 
BRANCH  27  28
ATOM     28  C   UNL     1     -39.227  35.865   1.987  0.00  0.00    +0.010 C 
BRANCH  28  29
ATOM     29  C   UNL     1     -40.726  36.155   2.046  0.00  0.00    +0.087 C 
BRANCH  29  32
ATOM     30  O   UNL     1     -41.833  34.005   2.174  0.00  0.00    -0.273 OA
ATOM     31  N   UNL     1     -41.905  35.422   3.997  0.00  0.00    -0.197 N 
ATOM     32  C   UNL     1     -41.534  35.062   2.724  0.00  0.00    +0.244 C 
ATOM     33  H   UNL     1     -41.642  36.282   4.396  0.00  0.00    +0.182 HD
BRANCH  31  34
ATOM     34  O   UNL     1     -42.685  34.486   4.692  0.00  0.00    -0.295 OA
ATOM     35  H   UNL     1     -43.623  34.645   4.504  0.00  0.00    +0.241 HD
ENDBRANCH  31  34
ENDBRANCH  29  32
ENDBRANCH  28  29
ENDBRANCH  27  28
ENDBRANCH  26  27
ENDBRANCH  25  26
ENDBRANCH  24  25
ENDBRANCH  21  24
ENDBRANCH   4  22
TORSDOF 11
ENDMDL
MODEL 6
REMARK VINA RESULT:      -6.3      4.349      5.590
REMARK  Name = 53340666
REMARK  11 active torsions:
REMARK  status: ('A' for Active; 'I' for Inactive)
REMARK    1  A    between atoms: N_1  and  C_8
REMARK    2  A    between atoms: N_1  and  C_14
REMARK    3  A    between atoms: C_4  and  C_22
REMARK    4  A    between atoms: N_21  and  C_24
REMARK    5  A    between atoms: C_24  and  C_25
REMARK    6  A    between atoms: C_25  and  C_26
REMARK    7  A    between atoms: C_26  and  C_27
REMARK    8  A    between atoms: C_27  and  C_28
REMARK    9  A    between atoms: C_28  and  C_29
REMARK   10  A    between atoms: C_29  and  C_32
REMARK   11  A    between atoms: N_31  and  O_34
REMARK                            x       y       z     vdW  Elec       q    Type
REMARK                         _______ _______ _______ _____ _____    ______ ____
ROOT
ATOM      1  N   UNL     1     -36.225  24.066   2.751  0.00  0.00    -0.211 N 
ATOM      2  N   UNL     1     -37.579  25.826   1.992  0.00  0.00    -0.202 NA
ATOM      3  N   UNL     1     -38.478  24.094   3.407  0.00  0.00    -0.180 NA
ATOM      4  C   UNL     1     -39.895  25.884   2.647  0.00  0.00    +0.076 C 
ATOM      5  C   UNL     1     -37.490  24.693   2.715  0.00  0.00    +0.098 C 
ATOM      6  C   UNL     1     -38.802  26.398   1.980  0.00  0.00    +0.170 C 
ATOM      7  C   UNL     1     -39.672  24.719   3.351  0.00  0.00    +0.113 C 
ENDROOT
BRANCH   1   8
ATOM      8  C   UNL     1     -35.295  24.174   1.627  0.00  0.00    +0.065 C 
ATOM      9  C   UNL     1     -35.584  23.539   0.419  0.00  0.00    +0.016 C 
ATOM     10  C   UNL     1     -34.119  24.911   1.763  0.00  0.00    +0.016 C 
ATOM     11  C   UNL     1     -34.697  23.642  -0.653  0.00  0.00    +0.001 C 
ATOM     12  C   UNL     1     -33.233  25.014   0.692  0.00  0.00    +0.001 C 
ATOM     13  C   UNL     1     -33.521  24.380  -0.516  0.00  0.00    +0.000 C 
ENDBRANCH   1   8
BRANCH   1  14
ATOM     14  C   UNL     1     -35.800  23.286   3.914  0.00  0.00    +0.065 C 
ATOM     15  C   UNL     1     -35.562  21.917   3.786  0.00  0.00    +0.016 C 
ATOM     16  C   UNL     1     -35.631  23.912   5.149  0.00  0.00    +0.016 C 
ATOM     17  C   UNL     1     -35.158  21.174   4.895  0.00  0.00    +0.001 C 
ATOM     18  C   UNL     1     -35.226  23.168   6.257  0.00  0.00    +0.001 C 
ATOM     19  C   UNL     1     -34.988  21.800   6.130  0.00  0.00    +0.000 C 
ENDBRANCH   1  14
BRANCH   4  22
ATOM     20  O   UNL     1     -41.769  26.738   1.525  0.00  0.00    -0.270 OA
ATOM     21  N   UNL     1     -41.779  26.876   3.841  0.00  0.00    -0.301 N 
ATOM     22  C   UNL     1     -41.226  26.543   2.609  0.00  0.00    +0.245 C 
ATOM     23  H   UNL     1     -41.266  26.680   4.657  0.00  0.00    +0.150 HD
BRANCH  21  24
ATOM     24  C   UNL     1     -43.070  27.496   3.969  0.00  0.00    +0.090 C 
BRANCH  24  25
ATOM     25  C   UNL     1     -42.969  28.868   4.628  0.00  0.00    +0.021 C 
BRANCH  25  26
ATOM     26  C   UNL     1     -44.063  29.809   4.125  0.00  0.00    +0.002 C 
BRANCH  26  27
ATOM     27  C   UNL     1     -44.779  30.501   5.287  0.00  0.00    +0.001 C 
BRANCH  27  28
ATOM     28  C   UNL     1     -44.045  31.780   5.706  0.00  0.00    +0.010 C 
BRANCH  28  29
ATOM     29  C   UNL     1     -44.635  33.029   5.053  0.00  0.00    +0.087 C 
BRANCH  29  32
ATOM     30  O   UNL     1     -43.611  33.463   2.902  0.00  0.00    -0.273 OA
ATOM     31  N   UNL     1     -42.904  34.656   4.749  0.00  0.00    -0.197 N 
ATOM     32  C   UNL     1     -43.682  33.729   4.099  0.00  0.00    +0.244 C 
ATOM     33  H   UNL     1     -42.997  34.834   5.712  0.00  0.00    +0.182 HD
BRANCH  31  34
ATOM     34  O   UNL     1     -41.969  35.331   3.953  0.00  0.00    -0.295 OA
ATOM     35  H   UNL     1     -41.243  35.654   4.511  0.00  0.00    +0.241 HD
ENDBRANCH  31  34
ENDBRANCH  29  32
ENDBRANCH  28  29
ENDBRANCH  27  28
ENDBRANCH  26  27
ENDBRANCH  25  26
ENDBRANCH  24  25
ENDBRANCH  21  24
ENDBRANCH   4  22
TORSDOF 11
ENDMDL
MODEL 7
REMARK VINA RESULT:      -6.3      3.465      5.126
REMARK  Name = 53340666
REMARK  11 active torsions:
REMARK  status: ('A' for Active; 'I' for Inactive)
REMARK    1  A    between atoms: N_1  and  C_8
REMARK    2  A    between atoms: N_1  and  C_14
REMARK    3  A    between atoms: C_4  and  C_22
REMARK    4  A    between atoms: N_21  and  C_24
REMARK    5  A    between atoms: C_24  and  C_25
REMARK    6  A    between atoms: C_25  and  C_26
REMARK    7  A    between atoms: C_26  and  C_27
REMARK    8  A    between atoms: C_27  and  C_28
REMARK    9  A    between atoms: C_28  and  C_29
REMARK   10  A    between atoms: C_29  and  C_32
REMARK   11  A    between atoms: N_31  and  O_34
REMARK                            x       y       z     vdW  Elec       q    Type
REMARK                         _______ _______ _______ _____ _____    ______ ____
ROOT
ATOM      1  N   UNL     1     -36.398  23.738   2.816  0.00  0.00    -0.211 N 
ATOM      2  N   UNL     1     -38.497  24.594   3.422  0.00  0.00    -0.202 NA
ATOM      3  N   UNL     1     -38.124  23.665   1.229  0.00  0.00    -0.180 NA
ATOM      4  C   UNL     1     -40.291  24.535   1.816  0.00  0.00    +0.076 C 
ATOM      5  C   UNL     1     -37.740  24.013   2.472  0.00  0.00    +0.098 C 
ATOM      6  C   UNL     1     -39.773  24.842   3.058  0.00  0.00    +0.170 C 
ATOM      7  C   UNL     1     -39.411  23.942   0.934  0.00  0.00    +0.113 C 
ENDROOT
BRANCH   1   8
ATOM      8  C   UNL     1     -35.677  24.574   3.777  0.00  0.00    +0.065 C 
ATOM      9  C   UNL     1     -35.185  25.820   3.386  0.00  0.00    +0.016 C 
ATOM     10  C   UNL     1     -35.480  24.125   5.082  0.00  0.00    +0.016 C 
ATOM     11  C   UNL     1     -34.498  26.616   4.301  0.00  0.00    +0.001 C 
ATOM     12  C   UNL     1     -34.793  24.922   5.997  0.00  0.00    +0.001 C 
ATOM     13  C   UNL     1     -34.301  26.167   5.607  0.00  0.00    +0.000 C 
ENDBRANCH   1   8
BRANCH   1  14
ATOM     14  C   UNL     1     -35.681  22.608   2.225  0.00  0.00    +0.065 C 
ATOM     15  C   UNL     1     -34.784  22.822   1.178  0.00  0.00    +0.016 C 
ATOM     16  C   UNL     1     -35.894  21.317   2.708  0.00  0.00    +0.016 C 
ATOM     17  C   UNL     1     -34.101  21.745   0.614  0.00  0.00    +0.001 C 
ATOM     18  C   UNL     1     -35.211  20.240   2.144  0.00  0.00    +0.001 C 
ATOM     19  C   UNL     1     -34.314  20.453   1.098  0.00  0.00    +0.000 C 
ENDBRANCH   1  14
BRANCH   4  22
ATOM     20  O   UNL     1     -42.282  24.082   0.665  0.00  0.00    -0.270 OA
ATOM     21  N   UNL     1     -42.277  25.929   2.068  0.00  0.00    -0.301 N 
ATOM     22  C   UNL     1     -41.701  24.824   1.453  0.00  0.00    +0.245 C 
ATOM     23  H   UNL     1     -41.730  26.464   2.686  0.00  0.00    +0.150 HD
BRANCH  21  24
ATOM     24  C   UNL     1     -43.641  26.323   1.838  0.00  0.00    +0.090 C 
BRANCH  24  25
ATOM     25  C   UNL     1     -44.512  26.071   3.064  0.00  0.00    +0.021 C 
BRANCH  25  26
ATOM     26  C   UNL     1     -44.107  26.974   4.229  0.00  0.00    +0.002 C 
BRANCH  26  27
ATOM     27  C   UNL     1     -45.243  27.116   5.244  0.00  0.00    +0.001 C 
BRANCH  27  28
ATOM     28  C   UNL     1     -45.601  28.588   5.473  0.00  0.00    +0.010 C 
BRANCH  28  29
ATOM     29  C   UNL     1     -44.765  29.223   6.583  0.00  0.00    +0.087 C 
BRANCH  29  32
ATOM     30  O   UNL     1     -42.652  29.870   5.592  0.00  0.00    -0.273 OA
ATOM     31  N   UNL     1     -44.132  31.511   6.263  0.00  0.00    -0.197 N 
ATOM     32  C   UNL     1     -43.727  30.211   6.077  0.00  0.00    +0.244 C 
ATOM     33  H   UNL     1     -45.005  31.736   6.658  0.00  0.00    +0.182 HD
BRANCH  31  34
ATOM     34  O   UNL     1     -43.223  32.496   5.855  0.00  0.00    -0.295 OA
ATOM     35  H   UNL     1     -42.818  32.234   5.013  0.00  0.00    +0.241 HD
ENDBRANCH  31  34
ENDBRANCH  29  32
ENDBRANCH  28  29
ENDBRANCH  27  28
ENDBRANCH  26  27
ENDBRANCH  25  26
ENDBRANCH  24  25
ENDBRANCH  21  24
ENDBRANCH   4  22
TORSDOF 11
ENDMDL
MODEL 8
REMARK VINA RESULT:      -6.3      3.713      4.876
REMARK  Name = 53340666
REMARK  11 active torsions:
REMARK  status: ('A' for Active; 'I' for Inactive)
REMARK    1  A    between atoms: N_1  and  C_8
REMARK    2  A    between atoms: N_1  and  C_14
REMARK    3  A    between atoms: C_4  and  C_22
REMARK    4  A    between atoms: N_21  and  C_24
REMARK    5  A    between atoms: C_24  and  C_25
REMARK    6  A    between atoms: C_25  and  C_26
REMARK    7  A    between atoms: C_26  and  C_27
REMARK    8  A    between atoms: C_27  and  C_28
REMARK    9  A    between atoms: C_28  and  C_29
REMARK   10  A    between atoms: C_29  and  C_32
REMARK   11  A    between atoms: N_31  and  O_34
REMARK                            x       y       z     vdW  Elec       q    Type
REMARK                         _______ _______ _______ _____ _____    ______ ____
ROOT
ATOM      1  N   UNL     1     -35.902  24.092   2.781  0.00  0.00    -0.211 N 
ATOM      2  N   UNL     1     -37.171  25.860   1.903  0.00  0.00    -0.202 NA
ATOM      3  N   UNL     1     -38.220  24.078   3.140  0.00  0.00    -0.180 NA
ATOM      4  C   UNL     1     -39.553  25.875   2.253  0.00  0.00    +0.076 C 
ATOM      5  C   UNL     1     -37.160  24.707   2.599  0.00  0.00    +0.098 C 
ATOM      6  C   UNL     1     -38.389  26.420   1.748  0.00  0.00    +0.170 C 
ATOM      7  C   UNL     1     -39.405  24.692   2.947  0.00  0.00    +0.113 C 
ENDROOT
BRANCH   1   8
ATOM      8  C   UNL     1     -34.835  24.243   1.791  0.00  0.00    +0.065 C 
ATOM      9  C   UNL     1     -33.805  25.158   2.010  0.00  0.00    +0.016 C 
ATOM     10  C   UNL     1     -34.850  23.474   0.628  0.00  0.00    +0.016 C 
ATOM     11  C   UNL     1     -32.789  25.302   1.065  0.00  0.00    +0.001 C 
ATOM     12  C   UNL     1     -33.833  23.617  -0.316  0.00  0.00    +0.001 C 
ATOM     13  C   UNL     1     -32.803  24.532  -0.098  0.00  0.00    +0.000 C 
ENDBRANCH   1   8
BRANCH   1  14
ATOM     14  C   UNL     1     -35.619  23.282   3.967  0.00  0.00    +0.065 C 
ATOM     15  C   UNL     1     -35.460  21.902   3.846  0.00  0.00    +0.016 C 
ATOM     16  C   UNL     1     -35.509  23.891   5.217  0.00  0.00    +0.016 C 
ATOM     17  C   UNL     1     -35.192  21.130   4.977  0.00  0.00    +0.001 C 
ATOM     18  C   UNL     1     -35.241  23.119   6.347  0.00  0.00    +0.001 C 
ATOM     19  C   UNL     1     -35.081  21.739   6.227  0.00  0.00    +0.000 C 
ENDBRANCH   1  14
BRANCH   4  22
ATOM     20  O   UNL     1     -41.002  27.390   1.202  0.00  0.00    -0.270 OA
ATOM     21  N   UNL     1     -41.904  26.064   2.878  0.00  0.00    -0.301 N 
ATOM     22  C   UNL     1     -40.876  26.521   2.061  0.00  0.00    +0.245 C 
ATOM     23  H   UNL     1     -41.705  25.363   3.540  0.00  0.00    +0.150 HD
BRANCH  21  24
ATOM     24  C   UNL     1     -43.246  26.574   2.795  0.00  0.00    +0.090 C 
BRANCH  24  25
ATOM     25  C   UNL     1     -43.685  27.211   4.109  0.00  0.00    +0.021 C 
BRANCH  25  26
ATOM     26  C   UNL     1     -45.116  26.816   4.469  0.00  0.00    +0.002 C 
BRANCH  26  27
ATOM     27  C   UNL     1     -45.455  27.203   5.911  0.00  0.00    +0.001 C 
BRANCH  27  28
ATOM     28  C   UNL     1     -45.759  28.700   6.026  0.00  0.00    +0.010 C 
BRANCH  28  29
ATOM     29  C   UNL     1     -44.823  29.409   7.004  0.00  0.00    +0.087 C 
BRANCH  29  32
ATOM     30  O   UNL     1     -42.783  29.909   5.798  0.00  0.00    -0.273 OA
ATOM     31  N   UNL     1     -44.176  31.641   6.424  0.00  0.00    -0.197 N 
ATOM     32  C   UNL     1     -43.810  30.320   6.330  0.00  0.00    +0.244 C 
ATOM     33  H   UNL     1     -45.011  31.924   6.861  0.00  0.00    +0.182 HD
BRANCH  31  34
ATOM     34  O   UNL     1     -43.284  32.562   5.857  0.00  0.00    -0.295 OA
ATOM     35  H   UNL     1     -43.773  33.180   5.292  0.00  0.00    +0.241 HD
ENDBRANCH  31  34
ENDBRANCH  29  32
ENDBRANCH  28  29
ENDBRANCH  27  28
ENDBRANCH  26  27
ENDBRANCH  25  26
ENDBRANCH  24  25
ENDBRANCH  21  24
ENDBRANCH   4  22
TORSDOF 11
ENDMDL
MODEL 9
REMARK VINA RESULT:      -6.2      3.729      5.340
REMARK  Name = 53340666
REMARK  11 active torsions:
REMARK  status: ('A' for Active; 'I' for Inactive)
REMARK    1  A    between atoms: N_1  and  C_8
REMARK    2  A    between atoms: N_1  and  C_14
REMARK    3  A    between atoms: C_4  and  C_22
REMARK    4  A    between atoms: N_21  and  C_24
REMARK    5  A    between atoms: C_24  and  C_25
REMARK    6  A    between atoms: C_25  and  C_26
REMARK    7  A    between atoms: C_26  and  C_27
REMARK    8  A    between atoms: C_27  and  C_28
REMARK    9  A    between atoms: C_28  and  C_29
REMARK   10  A    between atoms: C_29  and  C_32
REMARK   11  A    between atoms: N_31  and  O_34
REMARK                            x       y       z     vdW  Elec       q    Type
REMARK                         _______ _______ _______ _____ _____    ______ ____
ROOT
ATOM      1  N   UNL     1     -36.126  24.156   2.835  0.00  0.00    -0.211 N 
ATOM      2  N   UNL     1     -38.428  24.055   3.285  0.00  0.00    -0.202 NA
ATOM      3  N   UNL     1     -37.495  25.871   2.004  0.00  0.00    -0.180 NA
ATOM      4  C   UNL     1     -39.860  25.799   2.447  0.00  0.00    +0.076 C 
ATOM      5  C   UNL     1     -37.413  24.722   2.702  0.00  0.00    +0.098 C 
ATOM      6  C   UNL     1     -39.642  24.624   3.137  0.00  0.00    +0.170 C 
ATOM      7  C   UNL     1     -38.738  26.384   1.896  0.00  0.00    +0.113 C 
ENDROOT
BRANCH   1   8
ATOM      8  C   UNL     1     -35.768  23.362   4.011  0.00  0.00    +0.065 C 
ATOM      9  C   UNL     1     -35.642  23.978   5.256  0.00  0.00    +0.016 C 
ATOM     10  C   UNL     1     -35.551  21.991   3.885  0.00  0.00    +0.016 C 
ATOM     11  C   UNL     1     -35.301  23.220   6.377  0.00  0.00    +0.001 C 
ATOM     12  C   UNL     1     -35.209  21.234   5.005  0.00  0.00    +0.001 C 
ATOM     13  C   UNL     1     -35.083  21.848   6.251  0.00  0.00    +0.000 C 
ENDBRANCH   1   8
BRANCH   1  14
ATOM     14  C   UNL     1     -35.106  24.344   1.803  0.00  0.00    +0.065 C 
ATOM     15  C   UNL     1     -34.041  25.217   2.027  0.00  0.00    +0.016 C 
ATOM     16  C   UNL     1     -35.198  23.649   0.598  0.00  0.00    +0.016 C 
ATOM     17  C   UNL     1     -33.069  25.396   1.043  0.00  0.00    +0.001 C 
ATOM     18  C   UNL     1     -34.225  23.829  -0.386  0.00  0.00    +0.001 C 
ATOM     19  C   UNL     1     -33.160  24.701  -0.163  0.00  0.00    +0.000 C 
ENDBRANCH   1  14
BRANCH   4  22
ATOM     20  O   UNL     1     -41.783  26.340   1.219  0.00  0.00    -0.270 OA
ATOM     21  N   UNL     1     -41.752  26.966   3.452  0.00  0.00    -0.301 N 
ATOM     22  C   UNL     1     -41.213  26.395   2.306  0.00  0.00    +0.245 C 
ATOM     23  H   UNL     1     -41.217  26.964   4.278  0.00  0.00    +0.150 HD
BRANCH  21  24
ATOM     24  C   UNL     1     -43.061  27.562   3.481  0.00  0.00    +0.090 C 
BRANCH  24  25
ATOM     25  C   UNL     1     -44.133  26.539   3.840  0.00  0.00    +0.021 C 
BRANCH  25  26
ATOM     26  C   UNL     1     -44.985  27.014   5.017  0.00  0.00    +0.002 C 
BRANCH  26  27
ATOM     27  C   UNL     1     -45.612  28.381   4.735  0.00  0.00    +0.001 C 
BRANCH  27  28
ATOM     28  C   UNL     1     -45.957  29.112   6.037  0.00  0.00    +0.010 C 
BRANCH  28  29
ATOM     29  C   UNL     1     -44.721  29.390   6.892  0.00  0.00    +0.087 C 
BRANCH  29  32
ATOM     30  O   UNL     1     -42.684  29.986   5.725  0.00  0.00    -0.273 OA
ATOM     31  N   UNL     1     -44.154  31.654   6.353  0.00  0.00    -0.197 N 
ATOM     32  C   UNL     1     -43.735  30.350   6.247  0.00  0.00    +0.244 C 
ATOM     33  H   UNL     1     -45.006  31.897   6.782  0.00  0.00    +0.182 HD
BRANCH  31  34
ATOM     34  O   UNL     1     -43.290  32.617   5.814  0.00  0.00    -0.295 OA
ATOM     35  H   UNL     1     -43.798  33.239   5.270  0.00  0.00    +0.241 HD
ENDBRANCH  31  34
ENDBRANCH  29  32
ENDBRANCH  28  29
ENDBRANCH  27  28
ENDBRANCH  26  27
ENDBRANCH  25  26
ENDBRANCH  24  25
ENDBRANCH  21  24
ENDBRANCH   4  22
TORSDOF 11
ENDMDL
