MODEL 1
REMARK VINA RESULT:      -5.8      0.000      0.000
REMARK  Name = 53245639
REMARK  10 active torsions:
REMARK  status: ('A' for Active; 'I' for Inactive)
REMARK    1  A    between atoms: C_1  and  C_3
REMARK    2  A    between atoms: C_1  and  N_17
REMARK    3  A    between atoms: C_1  and  C_31
REMARK    4  A    between atoms: C_4  and  O_10
REMARK    5  A    between atoms: C_5  and  O_12
REMARK    6  A    between atoms: C_6  and  O_14
REMARK    7  A    between atoms: C_7  and  S_8
REMARK    8  A    between atoms: C_18  and  C_22
REMARK    9  A    between atoms: C_21  and  C_27
REMARK   10  A    between atoms: C_27  and  C_28
REMARK                            x       y       z     vdW  Elec       q    Type
REMARK                         _______ _______ _______ _____ _____    ______ ____
ROOT
ATOM      1  C   UNL     1     -36.748  24.720   3.583  0.00  0.00    +0.116 C 
ENDROOT
BRANCH   1   3
ATOM      2  O   UNL     1     -38.810  23.636   3.087  0.00  0.00    -0.341 OA
ATOM      3  C   UNL     1     -37.893  24.620   2.581  0.00  0.00    +0.164 C 
ATOM      4  C   UNL     1     -38.594  25.964   2.362  0.00  0.00    +0.168 C 
ATOM      5  C   UNL     1     -39.806  25.788   1.444  0.00  0.00    +0.170 C 
ATOM      6  C   UNL     1     -40.725  24.693   1.987  0.00  0.00    +0.177 C 
ATOM      7  C   UNL     1     -39.955  23.391   2.258  0.00  0.00    +0.192 C 
BRANCH   7   8
ATOM      8  S   UNL     1     -39.540  22.436   0.750  0.00  0.00    -0.109 S 
ATOM      9  C   UNL     1     -38.355  21.299   1.499  0.00  0.00    +0.072 C 
ENDBRANCH   7   8
BRANCH   4  10
ATOM     10  O   UNL     1     -39.022  26.476   3.625  0.00  0.00    -0.379 OA
ATOM     11  H   UNL     1     -39.470  25.774   4.124  0.00  0.00    +0.211 HD
ENDBRANCH   4  10
BRANCH   5  12
ATOM     12  O   UNL     1     -40.534  27.010   1.360  0.00  0.00    -0.379 OA
ATOM     13  H   UNL     1     -41.486  26.818   1.340  0.00  0.00    +0.211 HD
ENDBRANCH   5  12
BRANCH   6  14
ATOM     14  O   UNL     1     -41.814  24.458   1.102  0.00  0.00    -0.379 OA
ATOM     15  H   UNL     1     -42.042  25.283   0.645  0.00  0.00    +0.211 HD
ENDBRANCH   6  14
ENDBRANCH   1   3
BRANCH   1  17
ATOM     16  O   UNL     1     -35.376  26.775   5.107  0.00  0.00    -0.277 OA
ATOM     17  N   UNL     1     -35.745  25.646   3.106  0.00  0.00    -0.304 N 
ATOM     18  C   UNL     1     -35.146  26.596   3.914  0.00  0.00    +0.203 C 
ATOM     19  H   UNL     1     -35.476  25.599   2.159  0.00  0.00    +0.149 HD
BRANCH  18  22
ATOM     20  N   UNL     1     -34.544  28.810   3.275  0.00  0.00    +0.392 N 
ATOM     21  C   UNL     1     -32.509  28.741   4.377  0.00  0.00    -0.022 C 
ATOM     22  C   UNL     1     -34.128  27.406   3.177  0.00  0.00    +0.020 C 
ATOM     23  C   UNL     1     -32.756  27.328   3.852  0.00  0.00    -0.014 C 
ATOM     24  C   UNL     1     -33.318  29.599   3.414  0.00  0.00    -0.077 C 
ATOM     25  C   UNL     1     -35.355  29.247   2.146  0.00  0.00    -0.100 C 
ATOM     26  H   UNL     1     -35.153  28.937   4.083  0.00  0.00    -0.079 HD
BRANCH  21  27
ATOM     27  C   UNL     1     -31.039  29.118   4.430  0.00  0.00    -0.002 C 
BRANCH  27  28
ATOM     28  C   UNL     1     -30.734  30.020   5.626  0.00  0.00    -0.000 C 
ATOM     29  C   UNL     1     -31.596  29.666   6.826  0.00  0.00    -0.000 C 
ENDBRANCH  27  28
ENDBRANCH  21  27
ENDBRANCH  18  22
ENDBRANCH   1  17
BRANCH   1  31
ATOM     30 CL   UNL     1     -35.373  23.352   5.559  0.00  0.00    -0.113 Cl
ATOM     31  C   UNL     1     -36.137  23.348   3.937  0.00  0.00    +0.100 C 
ATOM     32  C   UNL     1     -35.112  22.878   2.908  0.00  0.00    +0.019 C 
ENDBRANCH   1  31
TORSDOF 10
ENDMDL
MODEL 2
REMARK VINA RESULT:      -5.7      4.132      7.344
REMARK  Name = 53245639
REMARK  10 active torsions:
REMARK  status: ('A' for Active; 'I' for Inactive)
REMARK    1  A    between atoms: C_1  and  C_3
REMARK    2  A    between atoms: C_1  and  N_17
REMARK    3  A    between atoms: C_1  and  C_31
REMARK    4  A    between atoms: C_4  and  O_10
REMARK    5  A    between atoms: C_5  and  O_12
REMARK    6  A    between atoms: C_6  and  O_14
REMARK    7  A    between atoms: C_7  and  S_8
REMARK    8  A    between atoms: C_18  and  C_22
REMARK    9  A    between atoms: C_21  and  C_27
REMARK   10  A    between atoms: C_27  and  C_28
REMARK                            x       y       z     vdW  Elec       q    Type
REMARK                         _______ _______ _______ _____ _____    ______ ____
ROOT
ATOM      1  C   UNL     1     -37.221  22.040   2.033  0.00  0.00    +0.116 C 
ENDROOT
BRANCH   1   3
ATOM      2  O   UNL     1     -37.866  24.139   2.956  0.00  0.00    -0.341 OA
ATOM      3  C   UNL     1     -36.712  23.365   2.591  0.00  0.00    +0.164 C 
ATOM      4  C   UNL     1     -35.777  23.171   3.790  0.00  0.00    +0.168 C 
ATOM      5  C   UNL     1     -35.390  24.527   4.385  0.00  0.00    +0.170 C 
ATOM      6  C   UNL     1     -36.645  25.341   4.705  0.00  0.00    +0.177 C 
ATOM      7  C   UNL     1     -37.580  25.439   3.490  0.00  0.00    +0.192 C 
BRANCH   7   8
ATOM      8  S   UNL     1     -37.019  26.620   2.205  0.00  0.00    -0.109 S 
ATOM      9  C   UNL     1     -38.385  26.388   1.047  0.00  0.00    +0.072 C 
ENDBRANCH   7   8
BRANCH   4  10
ATOM     10  O   UNL     1     -36.447  22.388   4.779  0.00  0.00    -0.379 OA
ATOM     11  H   UNL     1     -35.791  21.940   5.336  0.00  0.00    +0.211 HD
ENDBRANCH   4  10
BRANCH   5  12
ATOM     12  O   UNL     1     -34.640  24.336   5.582  0.00  0.00    -0.379 OA
ATOM     13  H   UNL     1     -34.913  24.992   6.243  0.00  0.00    +0.211 HD
ENDBRANCH   5  12
BRANCH   6  14
ATOM     14  O   UNL     1     -36.301  26.636   5.182  0.00  0.00    -0.379 OA
ATOM     15  H   UNL     1     -35.519  26.959   4.708  0.00  0.00    +0.211 HD
ENDBRANCH   6  14
ENDBRANCH   1   3
BRANCH   1  17
ATOM     16  O   UNL     1     -35.181  20.125   2.805  0.00  0.00    -0.277 OA
ATOM     17  N   UNL     1     -36.217  21.436   1.186  0.00  0.00    -0.304 N 
ATOM     18  C   UNL     1     -35.282  20.528   1.649  0.00  0.00    +0.203 C 
ATOM     19  H   UNL     1     -36.199  21.682   0.232  0.00  0.00    +0.149 HD
BRANCH  18  22
ATOM     20  N   UNL     1     -33.248  20.971   0.492  0.00  0.00    +0.392 N 
ATOM     21  C   UNL     1     -32.287  18.952   1.090  0.00  0.00    -0.022 C 
ATOM     22  C   UNL     1     -34.380  20.039   0.562  0.00  0.00    +0.020 C 
ATOM     23  C   UNL     1     -33.777  18.675   0.906  0.00  0.00    -0.014 C 
ATOM     24  C   UNL     1     -32.061  20.165   0.199  0.00  0.00    -0.077 C 
ATOM     25  C   UNL     1     -33.444  22.037  -0.480  0.00  0.00    -0.100 C 
ATOM     26  H   UNL     1     -33.145  21.461   1.381  0.00  0.00    -0.079 HD
BRANCH  21  27
ATOM     27  C   UNL     1     -31.402  17.770   0.735  0.00  0.00    -0.002 C 
BRANCH  27  28
ATOM     28  C   UNL     1     -29.979  18.214   0.400  0.00  0.00    -0.000 C 
ATOM     29  C   UNL     1     -28.948  17.433   1.198  0.00  0.00    -0.000 C 
ENDBRANCH  27  28
ENDBRANCH  21  27
ENDBRANCH  18  22
ENDBRANCH   1  17
BRANCH   1  31
ATOM     30 CL   UNL     1     -39.895  21.340   2.192  0.00  0.00    -0.113 Cl
ATOM     31  C   UNL     1     -38.577  22.174   1.309  0.00  0.00    +0.100 C 
ATOM     32  C   UNL     1     -38.532  21.649  -0.124  0.00  0.00    +0.019 C 
ENDBRANCH   1  31
TORSDOF 10
ENDMDL
MODEL 3
REMARK VINA RESULT:      -5.7      1.699      2.196
REMARK  Name = 53245639
REMARK  10 active torsions:
REMARK  status: ('A' for Active; 'I' for Inactive)
REMARK    1  A    between atoms: C_1  and  C_3
REMARK    2  A    between atoms: C_1  and  N_17
REMARK    3  A    between atoms: C_1  and  C_31
REMARK    4  A    between atoms: C_4  and  O_10
REMARK    5  A    between atoms: C_5  and  O_12
REMARK    6  A    between atoms: C_6  and  O_14
REMARK    7  A    between atoms: C_7  and  S_8
REMARK    8  A    between atoms: C_18  and  C_22
REMARK    9  A    between atoms: C_21  and  C_27
REMARK   10  A    between atoms: C_27  and  C_28
REMARK                            x       y       z     vdW  Elec       q    Type
REMARK                         _______ _______ _______ _____ _____    ______ ____
ROOT
ATOM      1  C   UNL     1     -35.343  24.117   4.768  0.00  0.00    +0.116 C 
ENDROOT
BRANCH   1   3
ATOM      2  O   UNL     1     -37.487  23.594   3.872  0.00  0.00    -0.341 OA
ATOM      3  C   UNL     1     -36.265  24.286   3.565  0.00  0.00    +0.164 C 
ATOM      4  C   UNL     1     -36.534  25.759   3.240  0.00  0.00    +0.168 C 
ATOM      5  C   UNL     1     -37.556  25.874   2.106  0.00  0.00    +0.170 C 
ATOM      6  C   UNL     1     -38.815  25.076   2.448  0.00  0.00    +0.177 C 
ATOM      7  C   UNL     1     -38.480  23.629   2.837  0.00  0.00    +0.192 C 
BRANCH   7   8
ATOM      8  S   UNL     1     -38.056  22.548   1.419  0.00  0.00    -0.109 S 
ATOM      9  C   UNL     1     -39.475  21.436   1.527  0.00  0.00    +0.072 C 
ENDBRANCH   7   8
BRANCH   4  10
ATOM     10  O   UNL     1     -37.041  26.407   4.409  0.00  0.00    -0.379 OA
ATOM     11  H   UNL     1     -36.581  27.252   4.536  0.00  0.00    +0.211 HD
ENDBRANCH   4  10
BRANCH   5  12
ATOM     12  O   UNL     1     -37.909  27.241   1.907  0.00  0.00    -0.379 OA
ATOM     13  H   UNL     1     -38.122  27.648   2.762  0.00  0.00    +0.211 HD
ENDBRANCH   5  12
BRANCH   6  14
ATOM     14  O   UNL     1     -39.742  25.105   1.368  0.00  0.00    -0.379 OA
ATOM     15  H   UNL     1     -39.261  25.200   0.531  0.00  0.00    +0.211 HD
ENDBRANCH   6  14
ENDBRANCH   1   3
BRANCH   1  17
ATOM     16  O   UNL     1     -34.781  26.489   6.345  0.00  0.00    -0.277 OA
ATOM     17  N   UNL     1     -34.203  25.000   4.652  0.00  0.00    -0.304 N 
ATOM     18  C   UNL     1     -34.023  26.113   5.454  0.00  0.00    +0.203 C 
ATOM     19  H   UNL     1     -33.523  24.800   3.968  0.00  0.00    +0.149 HD
BRANCH  18  22
ATOM     20  N   UNL     1     -33.114  28.018   4.352  0.00  0.00    +0.392 N 
ATOM     21  C   UNL     1     -32.188  28.889   6.287  0.00  0.00    -0.022 C 
ATOM     22  C   UNL     1     -32.752  26.836   5.142  0.00  0.00    +0.020 C 
ATOM     23  C   UNL     1     -32.088  27.371   6.414  0.00  0.00    -0.014 C 
ATOM     24  C   UNL     1     -32.219  29.096   4.779  0.00  0.00    -0.077 C 
ATOM     25  C   UNL     1     -33.051  27.786   2.915  0.00  0.00    -0.100 C 
ATOM     26  H   UNL     1     -34.089  28.266   4.521  0.00  0.00    -0.079 HD
BRANCH  21  27
ATOM     27  C   UNL     1     -31.055  29.632   6.974  0.00  0.00    -0.002 C 
BRANCH  27  28
ATOM     28  C   UNL     1     -29.749  29.510   6.191  0.00  0.00    -0.000 C 
ATOM     29  C   UNL     1     -28.668  28.827   7.012  0.00  0.00    -0.000 C 
ENDBRANCH  27  28
ENDBRANCH  21  27
ENDBRANCH  18  22
ENDBRANCH   1  17
BRANCH   1  31
ATOM     30 CL   UNL     1     -35.363  21.599   3.616  0.00  0.00    -0.113 Cl
ATOM     31  C   UNL     1     -34.911  22.653   4.994  0.00  0.00    +0.100 C 
ATOM     32  C   UNL     1     -35.487  22.063   6.278  0.00  0.00    +0.019 C 
ENDBRANCH   1  31
TORSDOF 10
ENDMDL
MODEL 4
REMARK VINA RESULT:      -5.6      3.692      6.623
REMARK  Name = 53245639
REMARK  10 active torsions:
REMARK  status: ('A' for Active; 'I' for Inactive)
REMARK    1  A    between atoms: C_1  and  C_3
REMARK    2  A    between atoms: C_1  and  N_17
REMARK    3  A    between atoms: C_1  and  C_31
REMARK    4  A    between atoms: C_4  and  O_10
REMARK    5  A    between atoms: C_5  and  O_12
REMARK    6  A    between atoms: C_6  and  O_14
REMARK    7  A    between atoms: C_7  and  S_8
REMARK    8  A    between atoms: C_18  and  C_22
REMARK    9  A    between atoms: C_21  and  C_27
REMARK   10  A    between atoms: C_27  and  C_28
REMARK                            x       y       z     vdW  Elec       q    Type
REMARK                         _______ _______ _______ _____ _____    ______ ____
ROOT
ATOM      1  C   UNL     1     -35.703  23.428   3.455  0.00  0.00    +0.116 C 
ENDROOT
BRANCH   1   3
ATOM      2  O   UNL     1     -38.013  23.993   3.584  0.00  0.00    -0.341 OA
ATOM      3  C   UNL     1     -36.851  24.145   2.753  0.00  0.00    +0.164 C 
ATOM      4  C   UNL     1     -36.545  25.625   2.500  0.00  0.00    +0.168 C 
ATOM      5  C   UNL     1     -37.769  26.326   1.904  0.00  0.00    +0.170 C 
ATOM      6  C   UNL     1     -38.995  26.089   2.787  0.00  0.00    +0.177 C 
ATOM      7  C   UNL     1     -39.209  24.595   3.069  0.00  0.00    +0.192 C 
BRANCH   7   8
ATOM      8  S   UNL     1     -39.918  23.659   1.661  0.00  0.00    -0.109 S 
ATOM      9  C   UNL     1     -39.550  21.997   2.262  0.00  0.00    +0.072 C 
ENDBRANCH   7   8
BRANCH   4  10
ATOM     10  O   UNL     1     -36.196  26.245   3.739  0.00  0.00    -0.379 OA
ATOM     11  H   UNL     1     -36.259  27.209   3.648  0.00  0.00    +0.211 HD
ENDBRANCH   4  10
BRANCH   5  12
ATOM     12  O   UNL     1     -37.527  27.727   1.805  0.00  0.00    -0.379 OA
ATOM     13  H   UNL     1     -37.269  28.072   2.675  0.00  0.00    +0.211 HD
ENDBRANCH   5  12
BRANCH   6  14
ATOM     14  O   UNL     1     -40.158  26.664   2.204  0.00  0.00    -0.379 OA
ATOM     15  H   UNL     1     -39.937  27.530   1.827  0.00  0.00    +0.211 HD
ENDBRANCH   6  14
ENDBRANCH   1   3
BRANCH   1  17
ATOM     16  O   UNL     1     -34.774  22.292   0.951  0.00  0.00    -0.277 OA
ATOM     17  N   UNL     1     -35.680  22.032   3.078  0.00  0.00    -0.304 N 
ATOM     18  C   UNL     1     -35.215  21.587   1.854  0.00  0.00    +0.203 C 
ATOM     19  H   UNL     1     -36.011  21.367   3.725  0.00  0.00    +0.149 HD
BRANCH  18  22
ATOM     20  N   UNL     1     -35.725  19.797   0.367  0.00  0.00    +0.392 N 
ATOM     21  C   UNL     1     -33.598  18.889   0.484  0.00  0.00    -0.022 C 
ATOM     22  C   UNL     1     -35.278  20.097   1.732  0.00  0.00    +0.020 C 
ATOM     23  C   UNL     1     -33.890  19.466   1.867  0.00  0.00    -0.014 C 
ATOM     24  C   UNL     1     -34.991  18.602  -0.058  0.00  0.00    -0.077 C 
ATOM     25  C   UNL     1     -37.167  19.625   0.261  0.00  0.00    -0.100 C 
ATOM     26  H   UNL     1     -35.522  20.586  -0.247  0.00  0.00    -0.079 HD
BRANCH  21  27
ATOM     27  C   UNL     1     -32.700  17.664   0.515  0.00  0.00    -0.002 C 
BRANCH  27  28
ATOM     28  C   UNL     1     -31.285  18.017   0.970  0.00  0.00    -0.000 C 
ATOM     29  C   UNL     1     -30.660  19.076   0.076  0.00  0.00    -0.000 C 
ENDBRANCH  27  28
ENDBRANCH  21  27
ENDBRANCH  18  22
ENDBRANCH   1  17
BRANCH   1  31
ATOM     30 CL   UNL     1     -34.465  24.744   5.553  0.00  0.00    -0.113 Cl
ATOM     31  C   UNL     1     -35.730  23.607   4.988  0.00  0.00    +0.100 C 
ATOM     32  C   UNL     1     -35.578  22.285   5.736  0.00  0.00    +0.019 C 
ENDBRANCH   1  31
TORSDOF 10
ENDMDL
MODEL 5
REMARK VINA RESULT:      -5.5      4.564      6.533
REMARK  Name = 53245639
REMARK  10 active torsions:
REMARK  status: ('A' for Active; 'I' for Inactive)
REMARK    1  A    between atoms: C_1  and  C_3
REMARK    2  A    between atoms: C_1  and  N_17
REMARK    3  A    between atoms: C_1  and  C_31
REMARK    4  A    between atoms: C_4  and  O_10
REMARK    5  A    between atoms: C_5  and  O_12
REMARK    6  A    between atoms: C_6  and  O_14
REMARK    7  A    between atoms: C_7  and  S_8
REMARK    8  A    between atoms: C_18  and  C_22
REMARK    9  A    between atoms: C_21  and  C_27
REMARK   10  A    between atoms: C_27  and  C_28
REMARK                            x       y       z     vdW  Elec       q    Type
REMARK                         _______ _______ _______ _____ _____    ______ ____
ROOT
ATOM      1  C   UNL     1     -34.296  20.085   1.084  0.00  0.00    +0.116 C 
ENDROOT
BRANCH   1   3
ATOM      2  O   UNL     1     -34.989  18.028   0.104  0.00  0.00    -0.341 OA
ATOM      3  C   UNL     1     -35.239  19.443   0.072  0.00  0.00    +0.164 C 
ATOM      4  C   UNL     1     -36.710  19.749   0.372  0.00  0.00    +0.168 C 
ATOM      5  C   UNL     1     -37.618  18.987  -0.597  0.00  0.00    +0.170 C 
ATOM      6  C   UNL     1     -37.280  17.496  -0.575  0.00  0.00    +0.177 C 
ATOM      7  C   UNL     1     -35.781  17.252  -0.806  0.00  0.00    +0.192 C 
BRANCH   7   8
ATOM      8  S   UNL     1     -35.248  17.451  -2.548  0.00  0.00    -0.109 S 
ATOM      9  C   UNL     1     -33.506  17.034  -2.321  0.00  0.00    +0.072 C 
ENDBRANCH   7   8
BRANCH   4  10
ATOM     10  O   UNL     1     -37.002  19.353   1.713  0.00  0.00    -0.379 OA
ATOM     11  H   UNL     1     -36.173  19.229   2.202  0.00  0.00    +0.211 HD
ENDBRANCH   4  10
BRANCH   5  12
ATOM     12  O   UNL     1     -38.983  19.162  -0.223  0.00  0.00    -0.379 OA
ATOM     13  H   UNL     1     -39.343  18.317   0.090  0.00  0.00    +0.211 HD
ENDBRANCH   5  12
BRANCH   6  14
ATOM     14  O   UNL     1     -38.059  16.785  -1.531  0.00  0.00    -0.379 OA
ATOM     15  H   UNL     1     -37.856  15.839  -1.475  0.00  0.00    +0.211 HD
ENDBRANCH   6  14
ENDBRANCH   1   3
BRANCH   1  17
ATOM     16  O   UNL     1     -35.298  20.925   3.676  0.00  0.00    -0.277 OA
ATOM     17  N   UNL     1     -34.780  21.396   1.457  0.00  0.00    -0.304 N 
ATOM     18  C   UNL     1     -35.240  21.701   2.725  0.00  0.00    +0.203 C 
ATOM     19  H   UNL     1     -34.782  22.106   0.774  0.00  0.00    +0.149 HD
BRANCH  18  22
ATOM     20  N   UNL     1     -37.017  23.137   3.397  0.00  0.00    +0.392 N 
ATOM     21  C   UNL     1     -35.748  24.209   5.010  0.00  0.00    -0.022 C 
ATOM     22  C   UNL     1     -35.656  23.132   2.848  0.00  0.00    +0.020 C 
ATOM     23  C   UNL     1     -34.792  23.880   3.865  0.00  0.00    -0.014 C 
ATOM     24  C   UNL     1     -37.096  24.283   4.306  0.00  0.00    -0.077 C 
ATOM     25  C   UNL     1     -38.049  23.176   2.370  0.00  0.00    -0.100 C 
ATOM     26  H   UNL     1     -37.195  22.265   3.896  0.00  0.00    -0.079 HD
BRANCH  21  27
ATOM     27  C   UNL     1     -35.387  25.483   5.754  0.00  0.00    -0.002 C 
BRANCH  27  28
ATOM     28  C   UNL     1     -34.059  26.061   5.267  0.00  0.00    -0.000 C 
ATOM     29  C   UNL     1     -33.275  26.694   6.404  0.00  0.00    -0.000 C 
ENDBRANCH  27  28
ENDBRANCH  21  27
ENDBRANCH  18  22
ENDBRANCH   1  17
BRANCH   1  31
ATOM     30 CL   UNL     1     -32.719  20.483  -1.156  0.00  0.00    -0.113 Cl
ATOM     31  C   UNL     1     -32.832  20.132   0.598  0.00  0.00    +0.100 C 
ATOM     32  C   UNL     1     -32.073  18.841   0.894  0.00  0.00    +0.019 C 
ENDBRANCH   1  31
TORSDOF 10
ENDMDL
MODEL 6
REMARK VINA RESULT:      -5.5      4.255      7.841
REMARK  Name = 53245639
REMARK  10 active torsions:
REMARK  status: ('A' for Active; 'I' for Inactive)
REMARK    1  A    between atoms: C_1  and  C_3
REMARK    2  A    between atoms: C_1  and  N_17
REMARK    3  A    between atoms: C_1  and  C_31
REMARK    4  A    between atoms: C_4  and  O_10
REMARK    5  A    between atoms: C_5  and  O_12
REMARK    6  A    between atoms: C_6  and  O_14
REMARK    7  A    between atoms: C_7  and  S_8
REMARK    8  A    between atoms: C_18  and  C_22
REMARK    9  A    between atoms: C_21  and  C_27
REMARK   10  A    between atoms: C_27  and  C_28
REMARK                            x       y       z     vdW  Elec       q    Type
REMARK                         _______ _______ _______ _____ _____    ______ ____
ROOT
ATOM      1  C   UNL     1     -35.692  23.155   1.067  0.00  0.00    +0.116 C 
ENDROOT
BRANCH   1   3
ATOM      2  O   UNL     1     -36.300  25.067   2.351  0.00  0.00    -0.341 OA
ATOM      3  C   UNL     1     -35.462  23.901   2.378  0.00  0.00    +0.164 C 
ATOM      4  C   UNL     1     -35.766  23.032   3.603  0.00  0.00    +0.168 C 
ATOM      5  C   UNL     1     -35.636  23.858   4.885  0.00  0.00    +0.170 C 
ATOM      6  C   UNL     1     -36.498  25.118   4.791  0.00  0.00    +0.177 C 
ATOM      7  C   UNL     1     -36.203  25.910   3.508  0.00  0.00    +0.192 C 
BRANCH   7   8
ATOM      8  S   UNL     1     -34.638  26.862   3.556  0.00  0.00    -0.109 S 
ATOM      9  C   UNL     1     -35.160  28.244   2.518  0.00  0.00    +0.072 C 
ENDBRANCH   7   8
BRANCH   4  10
ATOM     10  O   UNL     1     -37.098  22.526   3.493  0.00  0.00    -0.379 OA
ATOM     11  H   UNL     1     -37.719  23.266   3.404  0.00  0.00    +0.211 HD
ENDBRANCH   4  10
BRANCH   5  12
ATOM     12  O   UNL     1     -36.059  23.086   6.006  0.00  0.00    -0.379 OA
ATOM     13  H   UNL     1     -36.940  23.379   6.286  0.00  0.00    +0.211 HD
ENDBRANCH   5  12
BRANCH   6  14
ATOM     14  O   UNL     1     -36.324  25.939   5.940  0.00  0.00    -0.379 OA
ATOM     15  H   UNL     1     -36.028  25.393   6.685  0.00  0.00    +0.211 HD
ENDBRANCH   6  14
ENDBRANCH   1   3
BRANCH   1  17
ATOM     16  O   UNL     1     -37.188  20.862   0.103  0.00  0.00    -0.277 OA
ATOM     17  N   UNL     1     -35.354  21.758   1.221  0.00  0.00    -0.304 N 
ATOM     18  C   UNL     1     -36.135  20.731   0.723  0.00  0.00    +0.203 C 
ATOM     19  H   UNL     1     -34.527  21.526   1.704  0.00  0.00    +0.149 HD
BRANCH  18  22
ATOM     20  N   UNL     1     -35.349  18.729  -0.300  0.00  0.00    +0.392 N 
ATOM     21  C   UNL     1     -33.208  18.950   0.555  0.00  0.00    -0.022 C 
ATOM     22  C   UNL     1     -35.544  19.385   0.998  0.00  0.00    +0.020 C 
ATOM     23  C   UNL     1     -34.151  19.504   1.621  0.00  0.00    -0.014 C 
ATOM     24  C   UNL     1     -34.098  17.972  -0.200  0.00  0.00    -0.077 C 
ATOM     25  C   UNL     1     -36.471  17.888  -0.691  0.00  0.00    -0.100 C 
ATOM     26  H   UNL     1     -35.293  19.429  -1.039  0.00  0.00    -0.079 HD
BRANCH  21  27
ATOM     27  C   UNL     1     -31.957  18.306   1.127  0.00  0.00    -0.002 C 
BRANCH  27  28
ATOM     28  C   UNL     1     -30.711  18.702   0.337  0.00  0.00    -0.000 C 
ATOM     29  C   UNL     1     -30.891  20.043  -0.355  0.00  0.00    -0.000 C 
ENDBRANCH  27  28
ENDBRANCH  21  27
ENDBRANCH  18  22
ENDBRANCH   1  17
BRANCH   1  31
ATOM     30 CL   UNL     1     -35.861  23.602  -1.660  0.00  0.00    -0.113 Cl
ATOM     31  C   UNL     1     -34.953  23.795  -0.127  0.00  0.00    +0.100 C 
ATOM     32  C   UNL     1     -33.544  23.239  -0.311  0.00  0.00    +0.019 C 
ENDBRANCH   1  31
TORSDOF 10
ENDMDL
MODEL 7
REMARK VINA RESULT:      -5.4      3.482      5.051
REMARK  Name = 53245639
REMARK  10 active torsions:
REMARK  status: ('A' for Active; 'I' for Inactive)
REMARK    1  A    between atoms: C_1  and  C_3
REMARK    2  A    between atoms: C_1  and  N_17
REMARK    3  A    between atoms: C_1  and  C_31
REMARK    4  A    between atoms: C_4  and  O_10
REMARK    5  A    between atoms: C_5  and  O_12
REMARK    6  A    between atoms: C_6  and  O_14
REMARK    7  A    between atoms: C_7  and  S_8
REMARK    8  A    between atoms: C_18  and  C_22
REMARK    9  A    between atoms: C_21  and  C_27
REMARK   10  A    between atoms: C_27  and  C_28
REMARK                            x       y       z     vdW  Elec       q    Type
REMARK                         _______ _______ _______ _____ _____    ______ ____
ROOT
ATOM      1  C   UNL     1     -35.077  21.388   0.868  0.00  0.00    +0.116 C 
ENDROOT
BRANCH   1   3
ATOM      2  O   UNL     1     -36.173  19.699  -0.404  0.00  0.00    -0.341 OA
ATOM      3  C   UNL     1     -36.336  21.042   0.080  0.00  0.00    +0.164 C 
ATOM      4  C   UNL     1     -37.607  21.171   0.927  0.00  0.00    +0.168 C 
ATOM      5  C   UNL     1     -38.825  20.700   0.130  0.00  0.00    +0.170 C 
ATOM      6  C   UNL     1     -38.587  19.292  -0.416  0.00  0.00    +0.177 C 
ATOM      7  C   UNL     1     -37.264  19.202  -1.192  0.00  0.00    +0.192 C 
BRANCH   7   8
ATOM      8  S   UNL     1     -37.322  19.950  -2.864  0.00  0.00    -0.109 S 
ATOM      9  C   UNL     1     -37.014  18.447  -3.816  0.00  0.00    +0.072 C 
ENDBRANCH   7   8
BRANCH   4  10
ATOM     10  O   UNL     1     -37.465  20.371   2.102  0.00  0.00    -0.379 OA
ATOM     11  H   UNL     1     -37.076  20.906   2.812  0.00  0.00    +0.211 HD
ENDBRANCH   4  10
BRANCH   5  12
ATOM     12  O   UNL     1     -39.979  20.687   0.967  0.00  0.00    -0.379 OA
ATOM     13  H   UNL     1     -39.982  21.482   1.524  0.00  0.00    +0.211 HD
ENDBRANCH   5  12
BRANCH   6  14
ATOM     14  O   UNL     1     -39.677  18.871  -1.229  0.00  0.00    -0.379 OA
ATOM     15  H   UNL     1     -40.140  18.139  -0.795  0.00  0.00    +0.211 HD
ENDBRANCH   6  14
ENDBRANCH   1   3
BRANCH   1  17
ATOM     16  O   UNL     1     -35.387  21.948   3.700  0.00  0.00    -0.277 OA
ATOM     17  N   UNL     1     -35.221  22.682   1.498  0.00  0.00    -0.304 N 
ATOM     18  C   UNL     1     -35.363  22.848   2.864  0.00  0.00    +0.203 C 
ATOM     19  H   UNL     1     -35.217  23.484   0.926  0.00  0.00    +0.149 HD
BRANCH  18  22
ATOM     20  N   UNL     1     -36.587  24.399   4.193  0.00  0.00    +0.392 N 
ATOM     21  C   UNL     1     -34.737  25.035   5.432  0.00  0.00    -0.022 C 
ATOM     22  C   UNL     1     -35.467  24.288   3.251  0.00  0.00    +0.020 C 
ATOM     23  C   UNL     1     -34.227  24.751   4.021  0.00  0.00    -0.014 C 
ATOM     24  C   UNL     1     -36.196  25.398   5.191  0.00  0.00    -0.077 C 
ATOM     25  C   UNL     1     -37.849  24.733   3.545  0.00  0.00    -0.100 C 
ATOM     26  H   UNL     1     -36.764  23.496   4.632  0.00  0.00    -0.079 HD
BRANCH  21  27
ATOM     27  C   UNL     1     -33.957  26.121   6.151  0.00  0.00    -0.002 C 
BRANCH  27  28
ATOM     28  C   UNL     1     -33.253  27.053   5.165  0.00  0.00    -0.000 C 
ATOM     29  C   UNL     1     -32.281  27.982   5.873  0.00  0.00    -0.000 C 
ENDBRANCH  27  28
ENDBRANCH  21  27
ENDBRANCH  18  22
ENDBRANCH   1  17
BRANCH   1  31
ATOM     30 CL   UNL     1     -32.634  20.101   0.666  0.00  0.00    -0.113 Cl
ATOM     31  C   UNL     1     -33.792  21.305   0.017  0.00  0.00    +0.100 C 
ATOM     32  C   UNL     1     -33.086  22.652  -0.113  0.00  0.00    +0.019 C 
ENDBRANCH   1  31
TORSDOF 10
ENDMDL
MODEL 8
REMARK VINA RESULT:      -5.3      4.000      7.046
REMARK  Name = 53245639
REMARK  10 active torsions:
REMARK  status: ('A' for Active; 'I' for Inactive)
REMARK    1  A    between atoms: C_1  and  C_3
REMARK    2  A    between atoms: C_1  and  N_17
REMARK    3  A    between atoms: C_1  and  C_31
REMARK    4  A    between atoms: C_4  and  O_10
REMARK    5  A    between atoms: C_5  and  O_12
REMARK    6  A    between atoms: C_6  and  O_14
REMARK    7  A    between atoms: C_7  and  S_8
REMARK    8  A    between atoms: C_18  and  C_22
REMARK    9  A    between atoms: C_21  and  C_27
REMARK   10  A    between atoms: C_27  and  C_28
REMARK                            x       y       z     vdW  Elec       q    Type
REMARK                         _______ _______ _______ _____ _____    ______ ____
ROOT
ATOM      1  C   UNL     1     -36.582  22.699   3.330  0.00  0.00    +0.116 C 
ENDROOT
BRANCH   1   3
ATOM      2  O   UNL     1     -34.790  21.850   2.010  0.00  0.00    -0.341 OA
ATOM      3  C   UNL     1     -36.219  22.006   2.020  0.00  0.00    +0.164 C 
ATOM      4  C   UNL     1     -36.921  20.653   1.864  0.00  0.00    +0.168 C 
ATOM      5  C   UNL     1     -36.434  19.946   0.597  0.00  0.00    +0.170 C 
ATOM      6  C   UNL     1     -34.907  19.854   0.598  0.00  0.00    +0.177 C 
ATOM      7  C   UNL     1     -34.258  21.225   0.833  0.00  0.00    +0.192 C 
BRANCH   7   8
ATOM      8  S   UNL     1     -34.291  22.332  -0.627  0.00  0.00    -0.109 S 
ATOM      9  C   UNL     1     -33.423  23.734   0.108  0.00  0.00    +0.072 C 
ENDBRANCH   7   8
BRANCH   4  10
ATOM     10  O   UNL     1     -36.631  19.845   3.005  0.00  0.00    -0.379 OA
ATOM     11  H   UNL     1     -35.817  19.341   2.846  0.00  0.00    +0.211 HD
ENDBRANCH   4  10
BRANCH   5  12
ATOM     12  O   UNL     1     -36.982  18.631   0.533  0.00  0.00    -0.379 OA
ATOM     13  H   UNL     1     -37.727  18.561   1.151  0.00  0.00    +0.211 HD
ENDBRANCH   5  12
BRANCH   6  14
ATOM     14  O   UNL     1     -34.434  19.273  -0.611  0.00  0.00    -0.379 OA
ATOM     15  H   UNL     1     -34.330  18.316  -0.492  0.00  0.00    +0.211 HD
ENDBRANCH   6  14
ENDBRANCH   1   3
BRANCH   1  17
ATOM     16  O   UNL     1     -39.412  23.078   2.803  0.00  0.00    -0.277 OA
ATOM     17  N   UNL     1     -37.268  23.944   3.062  0.00  0.00    -0.304 N 
ATOM     18  C   UNL     1     -38.628  24.023   2.822  0.00  0.00    +0.203 C 
ATOM     19  H   UNL     1     -36.740  24.777   3.051  0.00  0.00    +0.149 HD
BRANCH  18  22
ATOM     20  N   UNL     1     -39.273  25.597   1.155  0.00  0.00    +0.392 N 
ATOM     21  C   UNL     1     -41.387  25.910   2.048  0.00  0.00    -0.022 C 
ATOM     22  C   UNL     1     -39.083  25.430   2.601  0.00  0.00    +0.020 C 
ATOM     23  C   UNL     1     -40.454  25.680   3.235  0.00  0.00    -0.014 C 
ATOM     24  C   UNL     1     -40.445  26.460   0.986  0.00  0.00    -0.077 C 
ATOM     25  C   UNL     1     -38.097  26.128   0.480  0.00  0.00    -0.100 C 
ATOM     26  H   UNL     1     -39.424  24.689   0.717  0.00  0.00    -0.079 HD
BRANCH  21  27
ATOM     27  C   UNL     1     -42.549  26.836   2.361  0.00  0.00    -0.002 C 
BRANCH  27  28
ATOM     28  C   UNL     1     -42.757  26.987   3.867  0.00  0.00    -0.000 C 
ATOM     29  C   UNL     1     -44.229  26.913   4.237  0.00  0.00    -0.000 C 
ENDBRANCH  27  28
ENDBRANCH  21  27
ENDBRANCH  18  22
ENDBRANCH   1  17
BRANCH   1  31
ATOM     30 CL   UNL     1     -35.223  21.588   5.470  0.00  0.00    -0.113 Cl
ATOM     31  C   UNL     1     -35.368  22.902   4.260  0.00  0.00    +0.100 C 
ATOM     32  C   UNL     1     -35.404  24.243   4.988  0.00  0.00    +0.019 C 
ENDBRANCH   1  31
TORSDOF 10
ENDMDL
MODEL 9
REMARK VINA RESULT:      -5.2      5.360      8.595
REMARK  Name = 53245639
REMARK  10 active torsions:
REMARK  status: ('A' for Active; 'I' for Inactive)
REMARK    1  A    between atoms: C_1  and  C_3
REMARK    2  A    between atoms: C_1  and  N_17
REMARK    3  A    between atoms: C_1  and  C_31
REMARK    4  A    between atoms: C_4  and  O_10
REMARK    5  A    between atoms: C_5  and  O_12
REMARK    6  A    between atoms: C_6  and  O_14
REMARK    7  A    between atoms: C_7  and  S_8
REMARK    8  A    between atoms: C_18  and  C_22
REMARK    9  A    between atoms: C_21  and  C_27
REMARK   10  A    between atoms: C_27  and  C_28
REMARK                            x       y       z     vdW  Elec       q    Type
REMARK                         _______ _______ _______ _____ _____    ______ ____
ROOT
ATOM      1  C   UNL     1     -35.202  21.457   0.669  0.00  0.00    +0.116 C 
ENDROOT
BRANCH   1   3
ATOM      2  O   UNL     1     -35.954  23.118   2.202  0.00  0.00    -0.341 OA
ATOM      3  C   UNL     1     -35.012  22.041   2.065  0.00  0.00    +0.164 C 
ATOM      4  C   UNL     1     -35.210  20.994   3.166  0.00  0.00    +0.168 C 
ATOM      5  C   UNL     1     -35.128  21.652   4.545  0.00  0.00    +0.170 C 
ATOM      6  C   UNL     1     -36.102  22.828   4.628  0.00  0.00    +0.177 C 
ATOM      7  C   UNL     1     -35.909  23.806   3.460  0.00  0.00    +0.192 C 
BRANCH   7   8
ATOM      8  S   UNL     1     -34.436  24.885   3.619  0.00  0.00    -0.109 S 
ATOM      9  C   UNL     1     -34.633  25.799   2.075  0.00  0.00    +0.072 C 
ENDBRANCH   7   8
BRANCH   4  10
ATOM     10  O   UNL     1     -36.492  20.385   3.002  0.00  0.00    -0.379 OA
ATOM     11  H   UNL     1     -36.806  20.055   3.859  0.00  0.00    +0.211 HD
ENDBRANCH   4  10
BRANCH   5  12
ATOM     12  O   UNL     1     -35.455  20.703   5.557  0.00  0.00    -0.379 OA
ATOM     13  H   UNL     1     -35.667  21.169   6.381  0.00  0.00    +0.211 HD
ENDBRANCH   5  12
BRANCH   6  14
ATOM     14  O   UNL     1     -35.979  23.502   5.875  0.00  0.00    -0.379 OA
ATOM     15  H   UNL     1     -35.343  24.229   5.788  0.00  0.00    +0.211 HD
ENDBRANCH   6  14
ENDBRANCH   1   3
BRANCH   1  17
ATOM     16  O   UNL     1     -36.256  18.788   0.228  0.00  0.00    -0.277 OA
ATOM     17  N   UNL     1     -34.453  20.227   0.535  0.00  0.00    -0.304 N 
ATOM     18  C   UNL     1     -35.050  18.997   0.326  0.00  0.00    +0.203 C 
ATOM     19  H   UNL     1     -33.471  20.268   0.596  0.00  0.00    +0.149 HD
BRANCH  18  22
ATOM     20  N   UNL     1     -33.441  18.019  -1.133  0.00  0.00    +0.392 N 
ATOM     21  C   UNL     1     -31.678  18.364   0.327  0.00  0.00    -0.022 C 
ATOM     22  C   UNL     1     -34.046  17.896   0.198  0.00  0.00    +0.020 C 
ATOM     23  C   UNL     1     -32.898  18.068   1.196  0.00  0.00    -0.014 C 
ATOM     24  C   UNL     1     -32.026  17.670  -0.982  0.00  0.00    -0.077 C 
ATOM     25  C   UNL     1     -34.104  17.203  -2.140  0.00  0.00    -0.100 C 
ATOM     26  H   UNL     1     -33.546  18.973  -1.477  0.00  0.00    -0.079 HD
BRANCH  21  27
ATOM     27  C   UNL     1     -30.370  17.885   0.934  0.00  0.00    -0.002 C 
BRANCH  27  28
ATOM     28  C   UNL     1     -29.166  18.547   0.266  0.00  0.00    -0.000 C 
ATOM     29  C   UNL     1     -27.874  18.221   0.997  0.00  0.00    -0.000 C 
ENDBRANCH  27  28
ENDBRANCH  21  27
ENDBRANCH  18  22
ENDBRANCH   1  17
BRANCH   1  31
ATOM     30 CL   UNL     1     -36.181  22.588  -1.661  0.00  0.00    -0.113 Cl
ATOM     31  C   UNL     1     -34.863  22.460  -0.454  0.00  0.00    +0.100 C 
ATOM     32  C   UNL     1     -33.562  22.115  -1.175  0.00  0.00    +0.019 C 
ENDBRANCH   1  31
TORSDOF 10
ENDMDL
