MODEL 1
REMARK VINA RESULT:      -6.9      0.000      0.000
REMARK  Name = 60154782
REMARK  3 active torsions:
REMARK  status: ('A' for Active; 'I' for Inactive)
REMARK    1  A    between atoms: C_10  and  O_30
REMARK    2  A    between atoms: C_16  and  C_23
REMARK    3  A    between atoms: C_23  and  O_28
REMARK                            x       y       z     vdW  Elec       q    Type
REMARK                         _______ _______ _______ _____ _____    ______ ____
ROOT
ATOM      1  O   UNL     1     -37.469  24.364   3.692  0.00  0.00    -0.355 OA
ATOM      2  O   UNL     1     -34.247  23.010   5.696  0.00  0.00    -0.296 OA
ATOM      3  O   UNL     1     -32.213  26.077   1.406  0.00  0.00    -0.294 OA
ATOM      4  C   UNL     1     -35.018  24.590   3.983  0.00  0.00    +0.082 C 
ATOM      5  C   UNL     1     -34.812  24.018   2.539  0.00  0.00    +0.045 C 
ATOM      6  C   UNL     1     -33.840  25.510   4.430  0.00  0.00    +0.016 C 
ATOM      7  C   UNL     1     -36.070  23.145   2.129  0.00  0.00    +0.029 C 
ATOM      8  C   UNL     1     -33.501  26.591   3.387  0.00  0.00    +0.061 C 
ATOM      9  C   UNL     1     -37.000  23.042   3.375  0.00  0.00    +0.123 C 
ATOM     10  C   UNL     1     -34.407  25.092   1.518  0.00  0.00    +0.168 C 
ATOM     11  C   UNL     1     -36.410  25.246   4.096  0.00  0.00    +0.149 C 
ATOM     12  C   UNL     1     -34.069  26.182   5.801  0.00  0.00    +0.001 C 
ATOM     13  C   UNL     1     -35.094  23.330   4.867  0.00  0.00    +0.155 C 
ATOM     14  C   UNL     1     -32.289  27.428   3.822  0.00  0.00    +0.010 C 
ATOM     15  C   UNL     1     -36.312  22.474   4.618  0.00  0.00    +0.094 C 
ATOM     16  C   UNL     1     -32.497  28.066   5.199  0.00  0.00    +0.036 C 
ATOM     17  C   UNL     1     -33.251  25.918   2.048  0.00  0.00    +0.177 C 
ATOM     18  C   UNL     1     -32.855  27.000   6.239  0.00  0.00    +0.003 C 
ATOM     19  C   UNL     1     -35.604  21.743   1.683  0.00  0.00    +0.003 C 
ATOM     20  C   UNL     1     -36.908  23.733   0.968  0.00  0.00    +0.003 C 
ENDROOT
BRANCH  16  23
ATOM     21  O   UNL     1     -31.749  31.112   6.015  0.00  0.00    -0.451 OA
ATOM     22  O   UNL     1     -31.813  29.718   7.835  0.00  0.00    -0.248 OA
ATOM     23  C   UNL     1     -31.259  28.843   5.627  0.00  0.00    +0.180 C 
ATOM     24  C   UNL     1     -30.659  29.685   4.517  0.00  0.00    +0.081 C 
ATOM     25  C   UNL     1     -31.634  29.898   6.641  0.00  0.00    +0.341 C 
ATOM     26  C   UNL     1     -31.459  30.969   4.614  0.00  0.00    +0.172 C 
ATOM     27  C   UNL     1     -30.695  32.186   4.125  0.00  0.00    +0.047 C 
BRANCH  23  28
ATOM     28  O   UNL     1     -30.322  27.937   6.166  0.00  0.00    -0.376 OA
ATOM     29  H   UNL     1     -30.261  28.067   7.125  0.00  0.00    +0.211 HD
ENDBRANCH  23  28
ENDBRANCH  16  23
BRANCH  10  30
ATOM     30  O   UNL     1     -33.987  24.471   0.314  0.00  0.00    -0.377 OA
ATOM     31  H   UNL     1     -33.025  24.552   0.226  0.00  0.00    +0.211 HD
ENDBRANCH  10  30
TORSDOF 3
ENDMDL
MODEL 2
REMARK VINA RESULT:      -6.9      2.737      7.590
REMARK  Name = 60154782
REMARK  3 active torsions:
REMARK  status: ('A' for Active; 'I' for Inactive)
REMARK    1  A    between atoms: C_10  and  O_30
REMARK    2  A    between atoms: C_16  and  C_23
REMARK    3  A    between atoms: C_23  and  O_28
REMARK                            x       y       z     vdW  Elec       q    Type
REMARK                         _______ _______ _______ _____ _____    ______ ____
ROOT
ATOM      1  O   UNL     1     -31.956  28.656   1.562  0.00  0.00    -0.355 OA
ATOM      2  O   UNL     1     -33.254  27.693   5.252  0.00  0.00    -0.296 OA
ATOM      3  O   UNL     1     -37.765  27.262   1.874  0.00  0.00    -0.294 OA
ATOM      4  C   UNL     1     -33.818  27.665   2.864  0.00  0.00    +0.082 C 
ATOM      5  C   UNL     1     -34.718  28.887   2.471  0.00  0.00    +0.045 C 
ATOM      6  C   UNL     1     -34.656  26.385   3.169  0.00  0.00    +0.016 C 
ATOM      7  C   UNL     1     -33.801  30.130   2.117  0.00  0.00    +0.029 C 
ATOM      8  C   UNL     1     -35.674  26.062   2.060  0.00  0.00    +0.061 C 
ATOM      9  C   UNL     1     -32.327  29.736   2.435  0.00  0.00    +0.123 C 
ATOM     10  C   UNL     1     -35.777  28.538   1.413  0.00  0.00    +0.168 C 
ATOM     11  C   UNL     1     -32.716  27.461   1.804  0.00  0.00    +0.149 C 
ATOM     12  C   UNL     1     -33.793  25.136   3.445  0.00  0.00    +0.001 C 
ATOM     13  C   UNL     1     -33.078  28.149   4.126  0.00  0.00    +0.155 C 
ATOM     14  C   UNL     1     -36.535  24.843   2.427  0.00  0.00    +0.010 C 
ATOM     15  C   UNL     1     -32.105  29.276   3.877  0.00  0.00    +0.094 C 
ATOM     16  C   UNL     1     -35.679  23.611   2.738  0.00  0.00    +0.036 C 
ATOM     17  C   UNL     1     -36.537  27.289   1.814  0.00  0.00    +0.177 C 
ATOM     18  C   UNL     1     -34.650  23.929   3.827  0.00  0.00    +0.003 C 
ATOM     19  C   UNL     1     -34.231  31.347   2.962  0.00  0.00    +0.003 C 
ATOM     20  C   UNL     1     -33.858  30.566   0.633  0.00  0.00    +0.003 C 
ENDROOT
BRANCH  16  23
ATOM     21  O   UNL     1     -36.671  20.801   1.463  0.00  0.00    -0.451 OA
ATOM     22  O   UNL     1     -35.072  20.503   3.080  0.00  0.00    -0.248 OA
ATOM     23  C   UNL     1     -36.557  22.436   3.152  0.00  0.00    +0.180 C 
ATOM     24  C   UNL     1     -37.936  22.459   2.521  0.00  0.00    +0.081 C 
ATOM     25  C   UNL     1     -35.991  21.148   2.602  0.00  0.00    +0.341 C 
ATOM     26  C   UNL     1     -37.697  21.771   1.192  0.00  0.00    +0.172 C 
ATOM     27  C   UNL     1     -38.930  21.070   0.652  0.00  0.00    +0.047 C 
BRANCH  23  28
ATOM     28  O   UNL     1     -36.622  22.396   4.561  0.00  0.00    -0.376 OA
ATOM     29  H   UNL     1     -35.868  22.879   4.933  0.00  0.00    +0.211 HD
ENDBRANCH  23  28
ENDBRANCH  16  23
BRANCH  10  30
ATOM     30  O   UNL     1     -36.709  29.602   1.304  0.00  0.00    -0.377 OA
ATOM     31  H   UNL     1     -36.478  30.300   1.935  0.00  0.00    +0.211 HD
ENDBRANCH  10  30
TORSDOF 3
ENDMDL
MODEL 3
REMARK VINA RESULT:      -6.8      3.391      8.930
REMARK  Name = 60154782
REMARK  3 active torsions:
REMARK  status: ('A' for Active; 'I' for Inactive)
REMARK    1  A    between atoms: C_10  and  O_30
REMARK    2  A    between atoms: C_16  and  C_23
REMARK    3  A    between atoms: C_23  and  O_28
REMARK                            x       y       z     vdW  Elec       q    Type
REMARK                         _______ _______ _______ _____ _____    ______ ____
ROOT
ATOM      1  O   UNL     1     -36.504  26.260   2.814  0.00  0.00    -0.355 OA
ATOM      2  O   UNL     1     -33.111  24.762   1.241  0.00  0.00    -0.296 OA
ATOM      3  O   UNL     1     -35.071  20.782   4.741  0.00  0.00    -0.294 OA
ATOM      4  C   UNL     1     -35.130  24.217   2.526  0.00  0.00    +0.082 C 
ATOM      5  C   UNL     1     -34.847  24.213   4.067  0.00  0.00    +0.045 C 
ATOM      6  C   UNL     1     -35.033  22.792   1.901  0.00  0.00    +0.016 C 
ATOM      7  C   UNL     1     -35.021  25.679   4.643  0.00  0.00    +0.029 C 
ATOM      8  C   UNL     1     -35.863  21.747   2.671  0.00  0.00    +0.061 C 
ATOM      9  C   UNL     1     -35.263  26.635   3.437  0.00  0.00    +0.123 C 
ATOM     10  C   UNL     1     -35.626  23.122   4.819  0.00  0.00    +0.168 C 
ATOM     11  C   UNL     1     -36.459  24.946   2.237  0.00  0.00    +0.149 C 
ATOM     12  C   UNL     1     -35.422  22.746   0.407  0.00  0.00    +0.001 C 
ATOM     13  C   UNL     1     -34.034  25.139   1.957  0.00  0.00    +0.155 C 
ATOM     14  C   UNL     1     -35.684  20.341   2.077  0.00  0.00    +0.010 C 
ATOM     15  C   UNL     1     -34.165  26.585   2.373  0.00  0.00    +0.094 C 
ATOM     16  C   UNL     1     -36.033  20.301   0.586  0.00  0.00    +0.036 C 
ATOM     17  C   UNL     1     -35.455  21.780   4.134  0.00  0.00    +0.177 C 
ATOM     18  C   UNL     1     -35.227  21.351  -0.185  0.00  0.00    +0.003 C 
ATOM     19  C   UNL     1     -33.746  26.088   5.411  0.00  0.00    +0.003 C 
ATOM     20  C   UNL     1     -36.210  25.847   5.620  0.00  0.00    +0.003 C 
ENDROOT
BRANCH  16  23
ATOM     21  O   UNL     1     -36.535  18.748  -2.214  0.00  0.00    -0.451 OA
ATOM     22  O   UNL     1     -34.324  19.273  -1.899  0.00  0.00    -0.248 OA
ATOM     23  C   UNL     1     -35.793  18.909   0.014  0.00  0.00    +0.180 C 
ATOM     24  C   UNL     1     -37.045  18.054  -0.040  0.00  0.00    +0.081 C 
ATOM     25  C   UNL     1     -35.427  19.007  -1.448  0.00  0.00    +0.341 C 
ATOM     26  C   UNL     1     -37.659  18.458  -1.366  0.00  0.00    +0.172 C 
ATOM     27  C   UNL     1     -38.501  17.362  -1.992  0.00  0.00    +0.047 C 
BRANCH  23  28
ATOM     28  O   UNL     1     -34.763  18.290   0.751  0.00  0.00    -0.376 OA
ATOM     29  H   UNL     1     -34.638  18.759   1.590  0.00  0.00    +0.211 HD
ENDBRANCH  23  28
ENDBRANCH  16  23
BRANCH  10  30
ATOM     30  O   UNL     1     -35.128  23.007   6.142  0.00  0.00    -0.377 OA
ATOM     31  H   UNL     1     -35.572  23.654   6.712  0.00  0.00    +0.211 HD
ENDBRANCH  10  30
TORSDOF 3
ENDMDL
MODEL 4
REMARK VINA RESULT:      -6.7      3.772      8.766
REMARK  Name = 60154782
REMARK  3 active torsions:
REMARK  status: ('A' for Active; 'I' for Inactive)
REMARK    1  A    between atoms: C_10  and  O_30
REMARK    2  A    between atoms: C_16  and  C_23
REMARK    3  A    between atoms: C_23  and  O_28
REMARK                            x       y       z     vdW  Elec       q    Type
REMARK                         _______ _______ _______ _____ _____    ______ ____
ROOT
ATOM      1  O   UNL     1     -36.961  25.627   1.378  0.00  0.00    -0.355 OA
ATOM      2  O   UNL     1     -32.961  25.210   1.618  0.00  0.00    -0.296 OA
ATOM      3  O   UNL     1     -35.138  20.616   4.089  0.00  0.00    -0.294 OA
ATOM      4  C   UNL     1     -35.111  24.054   1.876  0.00  0.00    +0.082 C 
ATOM      5  C   UNL     1     -35.569  24.019   3.374  0.00  0.00    +0.045 C 
ATOM      6  C   UNL     1     -34.360  22.753   1.455  0.00  0.00    +0.016 C 
ATOM      7  C   UNL     1     -36.375  25.340   3.715  0.00  0.00    +0.029 C 
ATOM      8  C   UNL     1     -35.131  21.474   1.828  0.00  0.00    +0.061 C 
ATOM      9  C   UNL     1     -36.292  26.278   2.472  0.00  0.00    +0.123 C 
ATOM     10  C   UNL     1     -36.277  22.710   3.757  0.00  0.00    +0.168 C 
ATOM     11  C   UNL     1     -36.306  24.416   0.969  0.00  0.00    +0.149 C 
ATOM     12  C   UNL     1     -34.000  22.709  -0.045  0.00  0.00    +0.001 C 
ATOM     13  C   UNL     1     -34.172  25.274   1.810  0.00  0.00    +0.155 C 
ATOM     14  C   UNL     1     -34.331  20.212   1.471  0.00  0.00    +0.010 C 
ATOM     15  C   UNL     1     -34.863  26.598   2.029  0.00  0.00    +0.094 C 
ATOM     16  C   UNL     1     -33.939  20.183  -0.010  0.00  0.00    +0.036 C 
ATOM     17  C   UNL     1     -35.459  21.514   3.312  0.00  0.00    +0.177 C 
ATOM     18  C   UNL     1     -33.189  21.461  -0.395  0.00  0.00    +0.003 C 
ATOM     19  C   UNL     1     -35.751  26.023   4.950  0.00  0.00    +0.003 C 
ATOM     20  C   UNL     1     -37.873  25.114   4.031  0.00  0.00    +0.003 C 
ENDROOT
BRANCH  16  23
ATOM     21  O   UNL     1     -34.240  17.462  -1.744  0.00  0.00    -0.451 OA
ATOM     22  O   UNL     1     -32.840  18.978  -2.746  0.00  0.00    -0.248 OA
ATOM     23  C   UNL     1     -33.100  18.950  -0.321  0.00  0.00    +0.180 C 
ATOM     24  C   UNL     1     -33.515  17.721   0.464  0.00  0.00    +0.081 C 
ATOM     25  C   UNL     1     -33.346  18.501  -1.743  0.00  0.00    +0.341 C 
ATOM     26  C   UNL     1     -34.623  17.144  -0.395  0.00  0.00    +0.172 C 
ATOM     27  C   UNL     1     -34.772  15.641  -0.247  0.00  0.00    +0.047 C 
BRANCH  23  28
ATOM     28  O   UNL     1     -31.740  19.268  -0.123  0.00  0.00    -0.376 OA
ATOM     29  H   UNL     1     -31.228  18.451  -0.020  0.00  0.00    +0.211 HD
ENDBRANCH  23  28
ENDBRANCH  16  23
BRANCH  10  30
ATOM     30  O   UNL     1     -36.424  22.642   5.166  0.00  0.00    -0.377 OA
ATOM     31  H   UNL     1     -36.660  21.737   5.424  0.00  0.00    +0.211 HD
ENDBRANCH  10  30
TORSDOF 3
ENDMDL
MODEL 5
REMARK VINA RESULT:      -6.7      1.777      7.486
REMARK  Name = 60154782
REMARK  3 active torsions:
REMARK  status: ('A' for Active; 'I' for Inactive)
REMARK    1  A    between atoms: C_10  and  O_30
REMARK    2  A    between atoms: C_16  and  C_23
REMARK    3  A    between atoms: C_23  and  O_28
REMARK                            x       y       z     vdW  Elec       q    Type
REMARK                         _______ _______ _______ _____ _____    ______ ____
ROOT
ATOM      1  O   UNL     1     -30.658  30.144   2.524  0.00  0.00    -0.355 OA
ATOM      2  O   UNL     1     -29.626  26.250   2.487  0.00  0.00    -0.296 OA
ATOM      3  O   UNL     1     -33.297  26.827   6.745  0.00  0.00    -0.294 OA
ATOM      4  C   UNL     1     -31.212  27.890   3.392  0.00  0.00    +0.082 C 
ATOM      5  C   UNL     1     -30.796  28.360   4.828  0.00  0.00    +0.045 C 
ATOM      6  C   UNL     1     -32.253  26.728   3.427  0.00  0.00    +0.016 C 
ATOM      7  C   UNL     1     -29.788  29.577   4.717  0.00  0.00    +0.029 C 
ATOM      8  C   UNL     1     -33.454  27.033   4.341  0.00  0.00    +0.061 C 
ATOM      9  C   UNL     1     -29.448  29.774   3.208  0.00  0.00    +0.123 C 
ATOM     10  C   UNL     1     -31.999  28.596   5.755  0.00  0.00    +0.168 C 
ATOM     11  C   UNL     1     -31.648  29.104   2.546  0.00  0.00    +0.149 C 
ATOM     12  C   UNL     1     -32.770  26.322   2.030  0.00  0.00    +0.001 C 
ATOM     13  C   UNL     1     -29.886  27.417   2.765  0.00  0.00    +0.155 C 
ATOM     14  C   UNL     1     -34.420  25.841   4.414  0.00  0.00    +0.010 C 
ATOM     15  C   UNL     1     -28.886  28.523   2.530  0.00  0.00    +0.094 C 
ATOM     16  C   UNL     1     -34.905  25.411   3.026  0.00  0.00    +0.036 C 
ATOM     17  C   UNL     1     -32.938  27.406   5.721  0.00  0.00    +0.177 C 
ATOM     18  C   UNL     1     -33.717  25.125   2.103  0.00  0.00    +0.003 C 
ATOM     19  C   UNL     1     -28.509  29.265   5.523  0.00  0.00    +0.003 C 
ATOM     20  C   UNL     1     -30.342  30.920   5.250  0.00  0.00    +0.003 C 
ENDROOT
BRANCH  16  23
ATOM     21  O   UNL     1     -36.431  23.751   5.354  0.00  0.00    -0.451 OA
ATOM     22  O   UNL     1     -37.873  25.043   4.125  0.00  0.00    -0.248 OA
ATOM     23  C   UNL     1     -35.816  24.194   3.126  0.00  0.00    +0.180 C 
ATOM     24  C   UNL     1     -35.104  22.943   3.606  0.00  0.00    +0.081 C 
ATOM     25  C   UNL     1     -36.839  24.401   4.219  0.00  0.00    +0.341 C 
ATOM     26  C   UNL     1     -35.180  23.083   5.113  0.00  0.00    +0.172 C 
ATOM     27  C   UNL     1     -35.166  21.750   5.838  0.00  0.00    +0.047 C 
BRANCH  23  28
ATOM     28  O   UNL     1     -36.444  23.997   1.879  0.00  0.00    -0.376 OA
ATOM     29  H   UNL     1     -37.123  24.678   1.747  0.00  0.00    +0.211 HD
ENDBRANCH  23  28
ENDBRANCH  16  23
BRANCH  10  30
ATOM     30  O   UNL     1     -31.546  28.759   7.090  0.00  0.00    -0.377 OA
ATOM     31  H   UNL     1     -30.578  28.718   7.110  0.00  0.00    +0.211 HD
ENDBRANCH  10  30
TORSDOF 3
ENDMDL
MODEL 6
REMARK VINA RESULT:      -6.4      1.895      3.704
REMARK  Name = 60154782
REMARK  3 active torsions:
REMARK  status: ('A' for Active; 'I' for Inactive)
REMARK    1  A    between atoms: C_10  and  O_30
REMARK    2  A    between atoms: C_16  and  C_23
REMARK    3  A    between atoms: C_23  and  O_28
REMARK                            x       y       z     vdW  Elec       q    Type
REMARK                         _______ _______ _______ _____ _____    ______ ____
ROOT
ATOM      1  O   UNL     1     -34.799  22.244   0.482  0.00  0.00    -0.355 OA
ATOM      2  O   UNL     1     -36.900  25.682   0.496  0.00  0.00    -0.296 OA
ATOM      3  O   UNL     1     -35.243  24.869   5.839  0.00  0.00    -0.294 OA
ATOM      4  C   UNL     1     -35.375  24.264   1.797  0.00  0.00    +0.082 C 
ATOM      5  C   UNL     1     -36.156  23.359   2.811  0.00  0.00    +0.045 C 
ATOM      6  C   UNL     1     -34.857  25.581   2.454  0.00  0.00    +0.016 C 
ATOM      7  C   UNL     1     -36.598  22.018   2.094  0.00  0.00    +0.029 C 
ATOM      8  C   UNL     1     -34.088  25.329   3.765  0.00  0.00    +0.061 C 
ATOM      9  C   UNL     1     -36.231  22.145   0.585  0.00  0.00    +0.123 C 
ATOM     10  C   UNL     1     -35.413  23.170   4.143  0.00  0.00    +0.168 C 
ATOM     11  C   UNL     1     -34.281  23.439   1.088  0.00  0.00    +0.149 C 
ATOM     12  C   UNL     1     -33.985  26.437   1.512  0.00  0.00    +0.001 C 
ATOM     13  C   UNL     1     -36.418  24.572   0.706  0.00  0.00    +0.155 C 
ATOM     14  C   UNL     1     -33.660  26.648   4.426  0.00  0.00    +0.010 C 
ATOM     15  C   UNL     1     -36.840  23.368  -0.103  0.00  0.00    +0.094 C 
ATOM     16  C   UNL     1     -32.826  27.518   3.480  0.00  0.00    +0.036 C 
ATOM     17  C   UNL     1     -34.964  24.508   4.696  0.00  0.00    +0.177 C 
ATOM     18  C   UNL     1     -33.574  27.757   2.165  0.00  0.00    +0.003 C 
ATOM     19  C   UNL     1     -38.119  21.817   2.265  0.00  0.00    +0.003 C 
ATOM     20  C   UNL     1     -35.910  20.743   2.637  0.00  0.00    +0.003 C 
ENDROOT
BRANCH  16  23
ATOM     21  O   UNL     1     -30.133  29.162   4.221  0.00  0.00    -0.451 OA
ATOM     22  O   UNL     1     -31.240  30.073   2.431  0.00  0.00    -0.248 OA
ATOM     23  C   UNL     1     -32.463  28.841   4.143  0.00  0.00    +0.180 C 
ATOM     24  C   UNL     1     -31.981  28.689   5.573  0.00  0.00    +0.081 C 
ATOM     25  C   UNL     1     -31.248  29.439   3.474  0.00  0.00    +0.341 C 
ATOM     26  C   UNL     1     -30.502  28.412   5.390  0.00  0.00    +0.172 C 
ATOM     27  C   UNL     1     -29.661  28.862   6.571  0.00  0.00    +0.047 C 
BRANCH  23  28
ATOM     28  O   UNL     1     -33.570  29.711   4.049  0.00  0.00    -0.376 OA
ATOM     29  H   UNL     1     -34.279  29.396   4.631  0.00  0.00    +0.211 HD
ENDBRANCH  23  28
ENDBRANCH  16  23
BRANCH  10  30
ATOM     30  O   UNL     1     -36.282  22.571   5.092  0.00  0.00    -0.377 OA
ATOM     31  H   UNL     1     -35.759  22.185   5.811  0.00  0.00    +0.211 HD
ENDBRANCH  10  30
TORSDOF 3
ENDMDL
MODEL 7
REMARK VINA RESULT:      -6.4      4.738      8.417
REMARK  Name = 60154782
REMARK  3 active torsions:
REMARK  status: ('A' for Active; 'I' for Inactive)
REMARK    1  A    between atoms: C_10  and  O_30
REMARK    2  A    between atoms: C_16  and  C_23
REMARK    3  A    between atoms: C_23  and  O_28
REMARK                            x       y       z     vdW  Elec       q    Type
REMARK                         _______ _______ _______ _____ _____    ______ ____
ROOT
ATOM      1  O   UNL     1     -35.105  24.399   3.319  0.00  0.00    -0.355 OA
ATOM      2  O   UNL     1     -36.294  25.353  -0.410  0.00  0.00    -0.296 OA
ATOM      3  O   UNL     1     -40.437  22.181   1.761  0.00  0.00    -0.294 OA
ATOM      4  C   UNL     1     -37.017  24.422   1.742  0.00  0.00    +0.082 C 
ATOM      5  C   UNL     1     -36.999  22.855   1.726  0.00  0.00    +0.045 C 
ATOM      6  C   UNL     1     -38.428  25.002   1.416  0.00  0.00    +0.016 C 
ATOM      7  C   UNL     1     -35.555  22.337   2.124  0.00  0.00    +0.029 C 
ATOM      8  C   UNL     1     -39.543  24.369   2.270  0.00  0.00    +0.061 C 
ATOM      9  C   UNL     1     -34.622  23.579   2.240  0.00  0.00    +0.123 C 
ATOM     10  C   UNL     1     -38.156  22.231   2.524  0.00  0.00    +0.168 C 
ATOM     11  C   UNL     1     -36.410  24.942   3.062  0.00  0.00    +0.149 C 
ATOM     12  C   UNL     1     -38.506  26.538   1.539  0.00  0.00    +0.001 C 
ATOM     13  C   UNL     1     -36.001  24.809   0.651  0.00  0.00    +0.155 C 
ATOM     14  C   UNL     1     -40.927  24.904   1.871  0.00  0.00    +0.010 C 
ATOM     15  C   UNL     1     -34.574  24.441   0.977  0.00  0.00    +0.094 C 
ATOM     16  C   UNL     1     -40.996  26.432   1.955  0.00  0.00    +0.036 C 
ATOM     17  C   UNL     1     -39.476  22.858   2.122  0.00  0.00    +0.177 C 
ATOM     18  C   UNL     1     -39.878  27.070   1.125  0.00  0.00    +0.003 C 
ATOM     19  C   UNL     1     -35.036  21.370   1.039  0.00  0.00    +0.003 C 
ATOM     20  C   UNL     1     -35.495  21.578   3.472  0.00  0.00    +0.003 C 
ENDROOT
BRANCH  16  23
ATOM     21  O   UNL     1     -43.521  27.994   3.254  0.00  0.00    -0.451 OA
ATOM     22  O   UNL     1     -42.283  29.345   1.875  0.00  0.00    -0.248 OA
ATOM     23  C   UNL     1     -42.360  26.937   1.501  0.00  0.00    +0.180 C 
ATOM     24  C   UNL     1     -43.511  26.055   1.947  0.00  0.00    +0.081 C 
ATOM     25  C   UNL     1     -42.688  28.239   2.193  0.00  0.00    +0.341 C 
ATOM     26  C   UNL     1     -43.811  26.588   3.334  0.00  0.00    +0.172 C 
ATOM     27  C   UNL     1     -45.256  26.388   3.750  0.00  0.00    +0.047 C 
BRANCH  23  28
ATOM     28  O   UNL     1     -42.336  27.103   0.100  0.00  0.00    -0.376 OA
ATOM     29  H   UNL     1     -42.665  26.297  -0.327  0.00  0.00    +0.211 HD
ENDBRANCH  23  28
ENDBRANCH  16  23
BRANCH  10  30
ATOM     30  O   UNL     1     -38.228  20.841   2.250  0.00  0.00    -0.377 OA
ATOM     31  H   UNL     1     -37.393  20.546   1.854  0.00  0.00    +0.211 HD
ENDBRANCH  10  30
TORSDOF 3
ENDMDL
MODEL 8
REMARK VINA RESULT:      -6.4      2.270      7.333
REMARK  Name = 60154782
REMARK  3 active torsions:
REMARK  status: ('A' for Active; 'I' for Inactive)
REMARK    1  A    between atoms: C_10  and  O_30
REMARK    2  A    between atoms: C_16  and  C_23
REMARK    3  A    between atoms: C_23  and  O_28
REMARK                            x       y       z     vdW  Elec       q    Type
REMARK                         _______ _______ _______ _____ _____    ______ ____
ROOT
ATOM      1  O   UNL     1     -30.668  28.888   2.257  0.00  0.00    -0.355 OA
ATOM      2  O   UNL     1     -32.649  28.606   5.754  0.00  0.00    -0.296 OA
ATOM      3  O   UNL     1     -36.602  28.359   1.722  0.00  0.00    -0.294 OA
ATOM      4  C   UNL     1     -32.839  28.343   3.321  0.00  0.00    +0.082 C 
ATOM      5  C   UNL     1     -33.465  29.614   2.652  0.00  0.00    +0.045 C 
ATOM      6  C   UNL     1     -33.904  27.241   3.615  0.00  0.00    +0.016 C 
ATOM      7  C   UNL     1     -32.322  30.662   2.328  0.00  0.00    +0.029 C 
ATOM      8  C   UNL     1     -34.779  26.918   2.389  0.00  0.00    +0.061 C 
ATOM      9  C   UNL     1     -30.994  30.115   2.934  0.00  0.00    +0.123 C 
ATOM     10  C   UNL     1     -34.392  29.278   1.473  0.00  0.00    +0.168 C 
ATOM     11  C   UNL     1     -31.634  27.851   2.493  0.00  0.00    +0.149 C 
ATOM     12  C   UNL     1     -33.301  25.932   4.166  0.00  0.00    +0.001 C 
ATOM     13  C   UNL     1     -32.234  28.881   4.632  0.00  0.00    +0.155 C 
ATOM     14  C   UNL     1     -35.866  25.889   2.732  0.00  0.00    +0.010 C 
ATOM     15  C   UNL     1     -31.069  29.821   4.434  0.00  0.00    +0.094 C 
ATOM     16  C   UNL     1     -35.273  24.602   3.315  0.00  0.00    +0.036 C 
ATOM     17  C   UNL     1     -35.390  28.209   1.869  0.00  0.00    +0.177 C 
ATOM     18  C   UNL     1     -34.385  24.916   4.523  0.00  0.00    +0.003 C 
ATOM     19  C   UNL     1     -32.679  32.027   2.953  0.00  0.00    +0.003 C 
ATOM     20  C   UNL     1     -32.082  30.903   0.819  0.00  0.00    +0.003 C 
ENDROOT
BRANCH  16  23
ATOM     21  O   UNL     1     -35.524  21.467   4.099  0.00  0.00    -0.451 OA
ATOM     22  O   UNL     1     -35.763  22.838   5.922  0.00  0.00    -0.248 OA
ATOM     23  C   UNL     1     -36.377  23.624   3.696  0.00  0.00    +0.180 C 
ATOM     24  C   UNL     1     -36.786  22.701   2.564  0.00  0.00    +0.081 C 
ATOM     25  C   UNL     1     -35.865  22.640   4.722  0.00  0.00    +0.341 C 
ATOM     26  C   UNL     1     -35.785  21.570   2.689  0.00  0.00    +0.172 C 
ATOM     27  C   UNL     1     -36.313  20.245   2.170  0.00  0.00    +0.047 C 
BRANCH  23  28
ATOM     28  O   UNL     1     -37.473  24.354   4.203  0.00  0.00    -0.376 OA
ATOM     29  H   UNL     1     -37.467  25.248   3.826  0.00  0.00    +0.211 HD
ENDBRANCH  23  28
ENDBRANCH  16  23
BRANCH  10  30
ATOM     30  O   UNL     1     -35.117  30.437   1.092  0.00  0.00    -0.377 OA
ATOM     31  H   UNL     1     -35.480  30.313   0.202  0.00  0.00    +0.211 HD
ENDBRANCH  10  30
TORSDOF 3
ENDMDL
MODEL 9
REMARK VINA RESULT:      -6.3      6.386     10.314
REMARK  Name = 60154782
REMARK  3 active torsions:
REMARK  status: ('A' for Active; 'I' for Inactive)
REMARK    1  A    between atoms: C_10  and  O_30
REMARK    2  A    between atoms: C_16  and  C_23
REMARK    3  A    between atoms: C_23  and  O_28
REMARK                            x       y       z     vdW  Elec       q    Type
REMARK                         _______ _______ _______ _____ _____    ______ ____
ROOT
ATOM      1  O   UNL     1     -33.285  15.613  -3.578  0.00  0.00    -0.355 OA
ATOM      2  O   UNL     1     -35.820  14.524  -0.642  0.00  0.00    -0.296 OA
ATOM      3  O   UNL     1     -31.920  17.787   1.825  0.00  0.00    -0.294 OA
ATOM      4  C   UNL     1     -33.990  16.045  -1.241  0.00  0.00    +0.082 C 
ATOM      5  C   UNL     1     -32.606  15.504  -0.744  0.00  0.00    +0.045 C 
ATOM      6  C   UNL     1     -34.625  17.059  -0.240  0.00  0.00    +0.016 C 
ATOM      7  C   UNL     1     -31.993  14.531  -1.834  0.00  0.00    +0.029 C 
ATOM      8  C   UNL     1     -33.648  18.173   0.179  0.00  0.00    +0.061 C 
ATOM      9  C   UNL     1     -33.063  14.338  -2.951  0.00  0.00    +0.123 C 
ATOM     10  C   UNL     1     -31.662  16.618  -0.263  0.00  0.00    +0.168 C 
ATOM     11  C   UNL     1     -33.858  16.579  -2.683  0.00  0.00    +0.149 C 
ATOM     12  C   UNL     1     -35.931  17.698  -0.757  0.00  0.00    +0.001 C 
ATOM     13  C   UNL     1     -34.856  14.777  -1.359  0.00  0.00    +0.155 C 
ATOM     14  C   UNL     1     -34.277  19.108   1.222  0.00  0.00    +0.010 C 
ATOM     15  C   UNL     1     -34.409  13.822  -2.440  0.00  0.00    +0.094 C 
ATOM     16  C   UNL     1     -35.594  19.715   0.728  0.00  0.00    +0.036 C 
ATOM     17  C   UNL     1     -32.375  17.535   0.710  0.00  0.00    +0.177 C 
ATOM     18  C   UNL     1     -36.565  18.614   0.290  0.00  0.00    +0.003 C 
ATOM     19  C   UNL     1     -31.644  13.176  -1.180  0.00  0.00    +0.003 C 
ATOM     20  C   UNL     1     -30.702  15.054  -2.508  0.00  0.00    +0.003 C 
ENDROOT
BRANCH  16  23
ATOM     21  O   UNL     1     -36.490  22.811   1.067  0.00  0.00    -0.451 OA
ATOM     22  O   UNL     1     -38.289  21.412   0.802  0.00  0.00    -0.248 OA
ATOM     23  C   UNL     1     -36.222  20.592   1.804  0.00  0.00    +0.180 C 
ATOM     24  C   UNL     1     -35.223  21.483   2.517  0.00  0.00    +0.081 C 
ATOM     25  C   UNL     1     -37.142  21.609   1.171  0.00  0.00    +0.341 C 
ATOM     26  C   UNL     1     -35.163  22.696   1.609  0.00  0.00    +0.172 C 
ATOM     27  C   UNL     1     -34.800  23.973   2.343  0.00  0.00    +0.047 C 
BRANCH  23  28
ATOM     28  O   UNL     1     -36.928  19.766   2.704  0.00  0.00    -0.376 OA
ATOM     29  H   UNL     1     -36.321  19.437   3.385  0.00  0.00    +0.211 HD
ENDBRANCH  23  28
ENDBRANCH  16  23
BRANCH  10  30
ATOM     30  O   UNL     1     -30.551  16.043   0.408  0.00  0.00    -0.377 OA
ATOM     31  H   UNL     1     -30.597  15.078   0.340  0.00  0.00    +0.211 HD
ENDBRANCH  10  30
TORSDOF 3
ENDMDL
