MODEL 1
REMARK VINA RESULT:      -6.8      0.000      0.000
REMARK  Name = 54761306
REMARK  4 active torsions:
REMARK  status: ('A' for Active; 'I' for Inactive)
REMARK    1  A    between atoms: C_5  and  C_24
REMARK    2  A    between atoms: C_8  and  C_16
REMARK    3  A    between atoms: C_24  and  S_27
REMARK    4  A    between atoms: S_27  and  N_29
REMARK                            x       y       z     vdW  Elec       q    Type
REMARK                         _______ _______ _______ _____ _____    ______ ____
ROOT
ATOM      1  O   UNL     1     -31.248  28.911   5.843  0.00  0.00    -0.350 OA
ATOM      2  N   UNL     1     -35.934  25.400   2.119  0.00  0.00    -0.347 NA
ATOM      3  N   UNL     1     -33.189  27.521   4.357  0.00  0.00    -0.283 N 
ATOM      4  N   UNL     1     -34.147  25.449   3.736  0.00  0.00    -0.329 NA
ATOM      5  C   UNL     1     -35.846  26.744   2.036  0.00  0.00    +0.118 C 
ATOM      6  C   UNL     1     -34.947  27.499   2.762  0.00  0.00    +0.132 C 
ATOM      7  C   UNL     1     -34.115  26.791   3.604  0.00  0.00    +0.179 C 
ATOM      8  C   UNL     1     -35.068  24.826   2.976  0.00  0.00    +0.138 C 
ATOM      9  C   UNL     1     -32.271  28.454   3.673  0.00  0.00    +0.104 C 
ATOM     10  C   UNL     1     -32.762  27.021   5.671  0.00  0.00    +0.125 C 
ATOM     11  C   UNL     1     -31.794  29.517   4.670  0.00  0.00    +0.162 C 
ATOM     12  C   UNL     1     -32.254  28.171   6.532  0.00  0.00    +0.164 C 
ATOM     13  C   UNL     1     -31.088  27.688   3.072  0.00  0.00    +0.024 C 
ENDROOT
BRANCH   8  16
ATOM     14  N   UNL     1     -35.429  21.031   5.717  0.00  0.00    -0.297 N 
ATOM     15  N   UNL     1     -35.265  20.552   3.361  0.00  0.00    -0.229 NA
ATOM     16  C   UNL     1     -35.133  23.392   3.091  0.00  0.00    +0.090 C 
ATOM     17  C   UNL     1     -35.255  22.793   4.356  0.00  0.00    +0.044 C 
ATOM     18  C   UNL     1     -35.079  22.556   1.978  0.00  0.00    +0.033 C 
ATOM     19  C   UNL     1     -35.313  21.403   4.404  0.00  0.00    +0.133 C 
ATOM     20  C   UNL     1     -35.339  23.254   5.696  0.00  0.00    +0.019 C 
ATOM     21  C   UNL     1     -35.148  21.183   2.170  0.00  0.00    +0.101 C 
ATOM     22  C   UNL     1     -35.447  22.148   6.511  0.00  0.00    +0.063 C 
ATOM     23  H   UNL     1     -35.491  20.104   6.040  0.00  0.00    +0.154 HD
ENDBRANCH   8  16
BRANCH   5  24
ATOM     24  C   UNL     1     -36.781  27.433   1.102  0.00  0.00    +0.105 C 
ATOM     25  C   UNL     1     -36.304  28.071  -0.170  0.00  0.00    +0.020 C 
ATOM     26  C   UNL     1     -36.803  28.926   0.957  0.00  0.00    +0.020 C 
BRANCH  24  27
ATOM     27  S   UNL     1     -38.439  26.726   0.904  0.00  0.00    -0.007 S 
ATOM     28  O   UNL     1     -39.336  27.819   0.528  0.00  0.00    -0.156 OA
ATOM     29  C   UNL     1     -38.899  26.254   2.561  0.00  0.00    +0.097 C 
BRANCH  27  30
ATOM     30  N   UNL     1     -38.276  25.402   0.105  0.00  0.00    -0.183 NA
ATOM     31  H   UNL     1     -39.068  24.953  -0.270  0.00  0.00    +0.156 HD
ENDBRANCH  27  30
ENDBRANCH  24  27
ENDBRANCH   5  24
TORSDOF 4
ENDMDL
MODEL 2
REMARK VINA RESULT:      -6.8      2.057      2.691
REMARK  Name = 54761306
REMARK  4 active torsions:
REMARK  status: ('A' for Active; 'I' for Inactive)
REMARK    1  A    between atoms: C_5  and  C_24
REMARK    2  A    between atoms: C_8  and  C_16
REMARK    3  A    between atoms: C_24  and  S_27
REMARK    4  A    between atoms: S_27  and  N_29
REMARK                            x       y       z     vdW  Elec       q    Type
REMARK                         _______ _______ _______ _____ _____    ______ ____
ROOT
ATOM      1  O   UNL     1     -32.930  29.633   2.075  0.00  0.00    -0.350 OA
ATOM      2  N   UNL     1     -37.549  24.455   2.002  0.00  0.00    -0.347 NA
ATOM      3  N   UNL     1     -34.835  27.565   2.082  0.00  0.00    -0.283 N 
ATOM      4  N   UNL     1     -35.315  25.270   2.395  0.00  0.00    -0.329 NA
ATOM      5  C   UNL     1     -37.910  25.714   1.677  0.00  0.00    +0.118 C 
ATOM      6  C   UNL     1     -37.044  26.787   1.687  0.00  0.00    +0.132 C 
ATOM      7  C   UNL     1     -35.745  26.503   2.059  0.00  0.00    +0.179 C 
ATOM      8  C   UNL     1     -36.255  24.307   2.347  0.00  0.00    +0.138 C 
ATOM      9  C   UNL     1     -34.671  28.407   0.880  0.00  0.00    +0.104 C 
ATOM     10  C   UNL     1     -33.712  27.542   3.028  0.00  0.00    +0.125 C 
ATOM     11  C   UNL     1     -34.116  29.776   1.292  0.00  0.00    +0.162 C 
ATOM     12  C   UNL     1     -33.221  28.959   3.297  0.00  0.00    +0.164 C 
ATOM     13  C   UNL     1     -33.748  27.716  -0.129  0.00  0.00    +0.024 C 
ENDROOT
BRANCH   8  16
ATOM     14  N   UNL     1     -35.106  21.216   5.689  0.00  0.00    -0.297 N 
ATOM     15  N   UNL     1     -34.995  20.349   3.444  0.00  0.00    -0.229 NA
ATOM     16  C   UNL     1     -35.833  22.977   2.701  0.00  0.00    +0.090 C 
ATOM     17  C   UNL     1     -35.641  22.636   4.050  0.00  0.00    +0.044 C 
ATOM     18  C   UNL     1     -35.601  21.993   1.742  0.00  0.00    +0.033 C 
ATOM     19  C   UNL     1     -35.232  21.335   4.330  0.00  0.00    +0.133 C 
ATOM     20  C   UNL     1     -35.758  23.307   5.296  0.00  0.00    +0.019 C 
ATOM     21  C   UNL     1     -35.196  20.733   2.162  0.00  0.00    +0.101 C 
ATOM     22  C   UNL     1     -35.423  22.409   6.286  0.00  0.00    +0.063 C 
ATOM     23  H   UNL     1     -34.830  20.400   6.164  0.00  0.00    +0.154 HD
ENDBRANCH   8  16
BRANCH   5  24
ATOM     24  C   UNL     1     -39.332  25.935   1.286  0.00  0.00    +0.105 C 
ATOM     25  C   UNL     1     -39.775  25.900  -0.147  0.00  0.00    +0.020 C 
ATOM     26  C   UNL     1     -39.782  27.196   0.609  0.00  0.00    +0.020 C 
BRANCH  24  27
ATOM     27  S   UNL     1     -40.615  25.285   2.390  0.00  0.00    -0.007 S 
ATOM     28  O   UNL     1     -41.389  24.306   1.626  0.00  0.00    -0.156 OA
ATOM     29  C   UNL     1     -41.698  26.679   2.650  0.00  0.00    +0.097 C 
BRANCH  27  30
ATOM     30  N   UNL     1     -39.935  25.000   3.758  0.00  0.00    -0.183 NA
ATOM     31  H   UNL     1     -40.434  24.533   4.467  0.00  0.00    +0.156 HD
ENDBRANCH  27  30
ENDBRANCH  24  27
ENDBRANCH   5  24
TORSDOF 4
ENDMDL
MODEL 3
REMARK VINA RESULT:      -6.7      2.203      5.790
REMARK  Name = 54761306
REMARK  4 active torsions:
REMARK  status: ('A' for Active; 'I' for Inactive)
REMARK    1  A    between atoms: C_5  and  C_24
REMARK    2  A    between atoms: C_8  and  C_16
REMARK    3  A    between atoms: C_24  and  S_27
REMARK    4  A    between atoms: S_27  and  N_29
REMARK                            x       y       z     vdW  Elec       q    Type
REMARK                         _______ _______ _______ _____ _____    ______ ____
ROOT
ATOM      1  O   UNL     1     -42.895  25.706   1.270  0.00  0.00    -0.350 OA
ATOM      2  N   UNL     1     -36.047  25.212   2.276  0.00  0.00    -0.347 NA
ATOM      3  N   UNL     1     -40.111  25.527   1.625  0.00  0.00    -0.283 N 
ATOM      4  N   UNL     1     -38.234  24.202   2.186  0.00  0.00    -0.329 NA
ATOM      5  C   UNL     1     -36.617  26.387   1.936  0.00  0.00    +0.118 C 
ATOM      6  C   UNL     1     -37.968  26.545   1.707  0.00  0.00    +0.132 C 
ATOM      7  C   UNL     1     -38.736  25.407   1.848  0.00  0.00    +0.179 C 
ATOM      8  C   UNL     1     -36.902  24.176   2.382  0.00  0.00    +0.138 C 
ATOM      9  C   UNL     1     -40.880  26.551   2.360  0.00  0.00    +0.104 C 
ATOM     10  C   UNL     1     -40.868  24.378   1.111  0.00  0.00    +0.125 C 
ATOM     11  C   UNL     1     -42.154  26.888   1.576  0.00  0.00    +0.162 C 
ATOM     12  C   UNL     1     -42.138  24.854   0.414  0.00  0.00    +0.164 C 
ATOM     13  C   UNL     1     -41.213  26.054   3.770  0.00  0.00    +0.024 C 
ENDROOT
BRANCH   8  16
ATOM     14  N   UNL     1     -34.995  21.424   5.673  0.00  0.00    -0.297 N 
ATOM     15  N   UNL     1     -35.189  20.399   3.501  0.00  0.00    -0.229 NA
ATOM     16  C   UNL     1     -36.330  22.906   2.744  0.00  0.00    +0.090 C 
ATOM     17  C   UNL     1     -35.895  22.680   4.061  0.00  0.00    +0.044 C 
ATOM     18  C   UNL     1     -36.185  21.869   1.824  0.00  0.00    +0.033 C 
ATOM     19  C   UNL     1     -35.350  21.432   4.350  0.00  0.00    +0.133 C 
ATOM     20  C   UNL     1     -35.857  23.434   5.263  0.00  0.00    +0.019 C 
ATOM     21  C   UNL     1     -35.624  20.672   2.249  0.00  0.00    +0.101 C 
ATOM     22  C   UNL     1     -35.299  22.636   6.237  0.00  0.00    +0.063 C 
ATOM     23  H   UNL     1     -34.586  20.665   6.146  0.00  0.00    +0.154 HD
ENDBRANCH   8  16
BRANCH   5  24
ATOM     24  C   UNL     1     -35.717  27.569   1.805  0.00  0.00    +0.105 C 
ATOM     25  C   UNL     1     -36.123  28.792   1.036  0.00  0.00    +0.020 C 
ATOM     26  C   UNL     1     -35.032  27.904   0.513  0.00  0.00    +0.020 C 
BRANCH  24  27
ATOM     27  S   UNL     1     -34.684  27.998   3.231  0.00  0.00    -0.007 S 
ATOM     28  O   UNL     1     -34.536  29.454   3.238  0.00  0.00    -0.156 OA
ATOM     29  C   UNL     1     -33.082  27.338   2.809  0.00  0.00    +0.097 C 
BRANCH  27  30
ATOM     30  N   UNL     1     -35.198  27.157   4.433  0.00  0.00    -0.183 NA
ATOM     31  H   UNL     1     -34.810  27.289   5.328  0.00  0.00    +0.156 HD
ENDBRANCH  27  30
ENDBRANCH  24  27
ENDBRANCH   5  24
TORSDOF 4
ENDMDL
MODEL 4
REMARK VINA RESULT:      -6.7      1.182      2.057
REMARK  Name = 54761306
REMARK  4 active torsions:
REMARK  status: ('A' for Active; 'I' for Inactive)
REMARK    1  A    between atoms: C_5  and  C_24
REMARK    2  A    between atoms: C_8  and  C_16
REMARK    3  A    between atoms: C_24  and  S_27
REMARK    4  A    between atoms: S_27  and  N_29
REMARK                            x       y       z     vdW  Elec       q    Type
REMARK                         _______ _______ _______ _____ _____    ______ ____
ROOT
ATOM      1  O   UNL     1     -30.481  29.458   5.903  0.00  0.00    -0.350 OA
ATOM      2  N   UNL     1     -35.575  25.642   3.140  0.00  0.00    -0.347 NA
ATOM      3  N   UNL     1     -32.583  27.953   4.797  0.00  0.00    -0.283 N 
ATOM      4  N   UNL     1     -33.765  25.906   4.709  0.00  0.00    -0.329 NA
ATOM      5  C   UNL     1     -35.347  26.904   2.722  0.00  0.00    +0.118 C 
ATOM      6  C   UNL     1     -34.362  27.717   3.242  0.00  0.00    +0.132 C 
ATOM      7  C   UNL     1     -33.594  27.160   4.243  0.00  0.00    +0.179 C 
ATOM      8  C   UNL     1     -34.759  25.213   4.122  0.00  0.00    +0.138 C 
ATOM      9  C   UNL     1     -31.584  28.581   3.909  0.00  0.00    +0.104 C 
ATOM     10  C   UNL     1     -32.188  27.757   6.198  0.00  0.00    +0.125 C 
ATOM     11  C   UNL     1     -30.980  29.804   4.610  0.00  0.00    +0.162 C 
ATOM     12  C   UNL     1     -31.546  29.026   6.746  0.00  0.00    +0.164 C 
ATOM     13  C   UNL     1     -30.500  27.567   3.531  0.00  0.00    +0.024 C 
ENDROOT
BRANCH   8  16
ATOM     14  N   UNL     1     -35.575  20.695   3.138  0.00  0.00    -0.297 N 
ATOM     15  N   UNL     1     -35.399  21.191   5.489  0.00  0.00    -0.229 NA
ATOM     16  C   UNL     1     -34.972  23.870   4.594  0.00  0.00    +0.090 C 
ATOM     17  C   UNL     1     -35.187  22.828   3.676  0.00  0.00    +0.044 C 
ATOM     18  C   UNL     1     -34.975  23.551   5.950  0.00  0.00    +0.033 C 
ATOM     19  C   UNL     1     -35.387  21.550   4.192  0.00  0.00    +0.133 C 
ATOM     20  C   UNL     1     -35.262  22.717   2.262  0.00  0.00    +0.019 C 
ATOM     21  C   UNL     1     -35.187  22.232   6.327  0.00  0.00    +0.101 C 
ATOM     22  C   UNL     1     -35.500  21.393   1.961  0.00  0.00    +0.063 C 
ATOM     23  H   UNL     1     -35.738  19.728   3.215  0.00  0.00    +0.154 HD
ENDBRANCH   8  16
BRANCH   5  24
ATOM     24  C   UNL     1     -36.222  27.431   1.635  0.00  0.00    +0.105 C 
ATOM     25  C   UNL     1     -35.657  27.968   0.352  0.00  0.00    +0.020 C 
ATOM     26  C   UNL     1     -36.313  28.897   1.330  0.00  0.00    +0.020 C 
BRANCH  24  27
ATOM     27  S   UNL     1     -37.809  26.599   1.360  0.00  0.00    -0.007 S 
ATOM     28  O   UNL     1     -37.536  25.391   0.581  0.00  0.00    -0.156 OA
ATOM     29  C   UNL     1     -38.684  27.705   0.268  0.00  0.00    +0.097 C 
BRANCH  27  30
ATOM     30  N   UNL     1     -38.576  26.625   2.712  0.00  0.00    -0.183 NA
ATOM     31  H   UNL     1     -38.199  26.171   3.500  0.00  0.00    +0.156 HD
ENDBRANCH  27  30
ENDBRANCH  24  27
ENDBRANCH   5  24
TORSDOF 4
ENDMDL
MODEL 5
REMARK VINA RESULT:      -6.6      3.239      5.679
REMARK  Name = 54761306
REMARK  4 active torsions:
REMARK  status: ('A' for Active; 'I' for Inactive)
REMARK    1  A    between atoms: C_5  and  C_24
REMARK    2  A    between atoms: C_8  and  C_16
REMARK    3  A    between atoms: C_24  and  S_27
REMARK    4  A    between atoms: S_27  and  N_29
REMARK                            x       y       z     vdW  Elec       q    Type
REMARK                         _______ _______ _______ _____ _____    ______ ____
ROOT
ATOM      1  O   UNL     1     -30.186  26.628  -1.780  0.00  0.00    -0.350 OA
ATOM      2  N   UNL     1     -33.635  27.688   4.147  0.00  0.00    -0.347 NA
ATOM      3  N   UNL     1     -31.536  27.044   0.651  0.00  0.00    -0.283 N 
ATOM      4  N   UNL     1     -33.400  26.567   2.027  0.00  0.00    -0.329 NA
ATOM      5  C   UNL     1     -32.483  28.341   3.887  0.00  0.00    +0.118 C 
ATOM      6  C   UNL     1     -31.745  28.162   2.736  0.00  0.00    +0.132 C 
ATOM      7  C   UNL     1     -32.256  27.253   1.832  0.00  0.00    +0.179 C 
ATOM      8  C   UNL     1     -34.029  26.828   3.188  0.00  0.00    +0.138 C 
ATOM      9  C   UNL     1     -31.174  28.200  -0.193  0.00  0.00    +0.104 C 
ATOM     10  C   UNL     1     -31.588  25.734  -0.011  0.00  0.00    +0.125 C 
ATOM     11  C   UNL     1     -29.958  27.837  -1.054  0.00  0.00    +0.162 C 
ATOM     12  C   UNL     1     -30.352  25.534  -0.881  0.00  0.00    +0.164 C 
ATOM     13  C   UNL     1     -32.365  28.613  -1.064  0.00  0.00    +0.024 C 
ENDROOT
BRANCH   8  16
ATOM     14  N   UNL     1     -36.241  23.243   5.264  0.00  0.00    -0.297 N 
ATOM     15  N   UNL     1     -37.665  24.665   3.938  0.00  0.00    -0.229 NA
ATOM     16  C   UNL     1     -35.255  26.112   3.431  0.00  0.00    +0.090 C 
ATOM     17  C   UNL     1     -35.251  24.969   4.248  0.00  0.00    +0.044 C 
ATOM     18  C   UNL     1     -36.470  26.514   2.880  0.00  0.00    +0.033 C 
ATOM     19  C   UNL     1     -36.467  24.320   4.446  0.00  0.00    +0.133 C 
ATOM     20  C   UNL     1     -34.273  24.243   4.978  0.00  0.00    +0.019 C 
ATOM     21  C   UNL     1     -37.609  25.772   3.161  0.00  0.00    +0.101 C 
ATOM     22  C   UNL     1     -34.912  23.188   5.593  0.00  0.00    +0.063 C 
ATOM     23  H   UNL     1     -36.928  22.608   5.568  0.00  0.00    +0.154 HD
ENDBRANCH   8  16
BRANCH   5  24
ATOM     24  C   UNL     1     -32.000  29.307   4.915  0.00  0.00    +0.105 C 
ATOM     25  C   UNL     1     -32.598  30.675   5.060  0.00  0.00    +0.020 C 
ATOM     26  C   UNL     1     -31.196  30.519   4.548  0.00  0.00    +0.020 C 
BRANCH  24  27
ATOM     27  S   UNL     1     -31.489  28.636   6.520  0.00  0.00    -0.007 S 
ATOM     28  O   UNL     1     -31.562  29.728   7.490  0.00  0.00    -0.156 OA
ATOM     29  C   UNL     1     -29.754  28.283   6.300  0.00  0.00    +0.097 C 
BRANCH  27  30
ATOM     30  N   UNL     1     -32.195  27.260   6.682  0.00  0.00    -0.183 NA
ATOM     31  H   UNL     1     -31.837  26.466   6.222  0.00  0.00    +0.156 HD
ENDBRANCH  27  30
ENDBRANCH  24  27
ENDBRANCH   5  24
TORSDOF 4
ENDMDL
MODEL 6
REMARK VINA RESULT:      -6.6      2.951      6.112
REMARK  Name = 54761306
REMARK  4 active torsions:
REMARK  status: ('A' for Active; 'I' for Inactive)
REMARK    1  A    between atoms: C_5  and  C_24
REMARK    2  A    between atoms: C_8  and  C_16
REMARK    3  A    between atoms: C_24  and  S_27
REMARK    4  A    between atoms: S_27  and  N_29
REMARK                            x       y       z     vdW  Elec       q    Type
REMARK                         _______ _______ _______ _____ _____    ______ ____
ROOT
ATOM      1  O   UNL     1     -35.290  31.021  -0.696  0.00  0.00    -0.350 OA
ATOM      2  N   UNL     1     -33.196  27.430   4.860  0.00  0.00    -0.347 NA
ATOM      3  N   UNL     1     -34.388  29.564   1.534  0.00  0.00    -0.283 N 
ATOM      4  N   UNL     1     -34.643  27.686   2.950  0.00  0.00    -0.329 NA
ATOM      5  C   UNL     1     -32.592  28.585   4.511  0.00  0.00    +0.118 C 
ATOM      6  C   UNL     1     -32.952  29.335   3.410  0.00  0.00    +0.132 C 
ATOM      7  C   UNL     1     -33.994  28.832   2.658  0.00  0.00    +0.179 C 
ATOM      8  C   UNL     1     -34.199  27.045   4.047  0.00  0.00    +0.138 C 
ATOM      9  C   UNL     1     -34.731  30.993   1.681  0.00  0.00    +0.104 C 
ATOM     10  C   UNL     1     -34.957  28.867   0.373  0.00  0.00    +0.125 C 
ATOM     11  C   UNL     1     -34.560  31.697   0.329  0.00  0.00    +0.162 C 
ATOM     12  C   UNL     1     -34.774  29.706  -0.886  0.00  0.00    +0.164 C 
ATOM     13  C   UNL     1     -36.162  31.144   2.207  0.00  0.00    +0.024 C 
ENDROOT
BRANCH   8  16
ATOM     14  N   UNL     1     -37.975  24.284   3.644  0.00  0.00    -0.297 N 
ATOM     15  N   UNL     1     -36.227  23.392   5.043  0.00  0.00    -0.229 NA
ATOM     16  C   UNL     1     -34.867  25.817   4.389  0.00  0.00    +0.090 C 
ATOM     17  C   UNL     1     -36.149  25.548   3.878  0.00  0.00    +0.044 C 
ATOM     18  C   UNL     1     -34.286  24.863   5.222  0.00  0.00    +0.033 C 
ATOM     19  C   UNL     1     -36.744  24.344   4.244  0.00  0.00    +0.133 C 
ATOM     20  C   UNL     1     -37.067  26.221   3.030  0.00  0.00    +0.019 C 
ATOM     21  C   UNL     1     -34.994  23.703   5.505  0.00  0.00    +0.101 C 
ATOM     22  C   UNL     1     -38.181  25.418   2.903  0.00  0.00    +0.063 C 
ATOM     23  H   UNL     1     -38.612  23.539   3.731  0.00  0.00    +0.154 HD
ENDBRANCH   8  16
BRANCH   5  24
ATOM     24  C   UNL     1     -31.474  29.059   5.377  0.00  0.00    +0.105 C 
ATOM     25  C   UNL     1     -31.693  29.451   6.809  0.00  0.00    +0.020 C 
ATOM     26  C   UNL     1     -31.346  30.496   5.790  0.00  0.00    +0.020 C 
BRANCH  24  27
ATOM     27  S   UNL     1     -29.850  28.291   5.143  0.00  0.00    -0.007 S 
ATOM     28  O   UNL     1     -29.453  27.715   6.429  0.00  0.00    -0.156 OA
ATOM     29  C   UNL     1     -28.761  29.676   4.863  0.00  0.00    +0.097 C 
BRANCH  27  30
ATOM     30  N   UNL     1     -29.907  27.505   3.803  0.00  0.00    -0.183 NA
ATOM     31  H   UNL     1     -29.568  27.917   2.976  0.00  0.00    +0.156 HD
ENDBRANCH  27  30
ENDBRANCH  24  27
ENDBRANCH   5  24
TORSDOF 4
ENDMDL
MODEL 7
REMARK VINA RESULT:      -6.6      3.041      6.812
REMARK  Name = 54761306
REMARK  4 active torsions:
REMARK  status: ('A' for Active; 'I' for Inactive)
REMARK    1  A    between atoms: C_5  and  C_24
REMARK    2  A    between atoms: C_8  and  C_16
REMARK    3  A    between atoms: C_24  and  S_27
REMARK    4  A    between atoms: S_27  and  N_29
REMARK                            x       y       z     vdW  Elec       q    Type
REMARK                         _______ _______ _______ _____ _____    ______ ____
ROOT
ATOM      1  O   UNL     1     -41.162  26.167   1.268  0.00  0.00    -0.350 OA
ATOM      2  N   UNL     1     -34.742  23.945   2.678  0.00  0.00    -0.347 NA
ATOM      3  N   UNL     1     -38.582  25.215   1.856  0.00  0.00    -0.283 N 
ATOM      4  N   UNL     1     -36.533  25.525   2.996  0.00  0.00    -0.329 NA
ATOM      5  C   UNL     1     -35.543  23.263   1.832  0.00  0.00    +0.118 C 
ATOM      6  C   UNL     1     -36.833  23.645   1.525  0.00  0.00    +0.132 C 
ATOM      7  C   UNL     1     -37.279  24.795   2.143  0.00  0.00    +0.179 C 
ATOM      8  C   UNL     1     -35.293  25.050   3.216  0.00  0.00    +0.138 C 
ATOM      9  C   UNL     1     -38.993  25.400   0.450  0.00  0.00    +0.104 C 
ATOM     10  C   UNL     1     -39.349  25.953   2.869  0.00  0.00    +0.125 C 
ATOM     11  C   UNL     1     -40.519  25.284   0.348  0.00  0.00    +0.162 C 
ATOM     12  C   UNL     1     -40.844  25.802   2.609  0.00  0.00    +0.164 C 
ATOM     13  C   UNL     1     -38.505  26.756  -0.070  0.00  0.00    +0.024 C 
ENDROOT
BRANCH   8  16
ATOM     14  N   UNL     1     -32.096  28.426   3.873  0.00  0.00    -0.297 N 
ATOM     15  N   UNL     1     -32.812  27.320   5.891  0.00  0.00    -0.229 NA
ATOM     16  C   UNL     1     -34.467  25.803   4.123  0.00  0.00    +0.090 C 
ATOM     17  C   UNL     1     -33.617  26.808   3.631  0.00  0.00    +0.044 C 
ATOM     18  C   UNL     1     -34.474  25.573   5.498  0.00  0.00    +0.033 C 
ATOM     19  C   UNL     1     -32.843  27.502   4.557  0.00  0.00    +0.133 C 
ATOM     20  C   UNL     1     -33.312  27.346   2.353  0.00  0.00    +0.019 C 
ATOM     21  C   UNL     1     -33.649  26.341   6.308  0.00  0.00    +0.101 C 
ATOM     22  C   UNL     1     -32.374  28.339   2.534  0.00  0.00    +0.063 C 
ATOM     23  H   UNL     1     -31.459  29.054   4.281  0.00  0.00    +0.154 HD
ENDBRANCH   8  16
BRANCH   5  24
ATOM     24  C   UNL     1     -34.984  22.031   1.207  0.00  0.00    +0.105 C 
ATOM     25  C   UNL     1     -33.703  22.051   0.424  0.00  0.00    +0.020 C 
ATOM     26  C   UNL     1     -35.008  21.814  -0.277  0.00  0.00    +0.020 C 
BRANCH  24  27
ATOM     27  S   UNL     1     -35.183  20.470   2.106  0.00  0.00    -0.007 S 
ATOM     28  O   UNL     1     -34.058  19.610   1.738  0.00  0.00    -0.156 OA
ATOM     29  C   UNL     1     -36.631  19.736   1.368  0.00  0.00    +0.097 C 
BRANCH  27  30
ATOM     30  N   UNL     1     -35.576  20.834   3.566  0.00  0.00    -0.183 NA
ATOM     31  H   UNL     1     -35.447  20.177   4.288  0.00  0.00    +0.156 HD
ENDBRANCH  27  30
ENDBRANCH  24  27
ENDBRANCH   5  24
TORSDOF 4
ENDMDL
MODEL 8
REMARK VINA RESULT:      -6.6      3.169      6.144
REMARK  Name = 54761306
REMARK  4 active torsions:
REMARK  status: ('A' for Active; 'I' for Inactive)
REMARK    1  A    between atoms: C_5  and  C_24
REMARK    2  A    between atoms: C_8  and  C_16
REMARK    3  A    between atoms: C_24  and  S_27
REMARK    4  A    between atoms: S_27  and  N_29
REMARK                            x       y       z     vdW  Elec       q    Type
REMARK                         _______ _______ _______ _____ _____    ______ ____
ROOT
ATOM      1  O   UNL     1     -33.396  29.382  -2.010  0.00  0.00    -0.350 OA
ATOM      2  N   UNL     1     -33.171  27.749   4.730  0.00  0.00    -0.347 NA
ATOM      3  N   UNL     1     -33.248  28.715   0.717  0.00  0.00    -0.283 N 
ATOM      4  N   UNL     1     -33.982  27.341   2.498  0.00  0.00    -0.329 NA
ATOM      5  C   UNL     1     -32.444  28.774   4.238  0.00  0.00    +0.118 C 
ATOM      6  C   UNL     1     -32.434  29.137   2.908  0.00  0.00    +0.132 C 
ATOM      7  C   UNL     1     -33.230  28.378   2.075  0.00  0.00    +0.179 C 
ATOM      8  C   UNL     1     -33.906  27.085   3.817  0.00  0.00    +0.138 C 
ATOM      9  C   UNL     1     -33.559  30.102   0.317  0.00  0.00    +0.104 C 
ATOM     10  C   UNL     1     -33.479  27.671  -0.290  0.00  0.00    +0.125 C 
ATOM     11  C   UNL     1     -32.972  30.372  -1.073  0.00  0.00    +0.162 C 
ATOM     12  C   UNL     1     -32.901  28.099  -1.634  0.00  0.00    +0.164 C 
ATOM     13  C   UNL     1     -35.074  30.330   0.332  0.00  0.00    +0.024 C 
ENDROOT
BRANCH   8  16
ATOM     14  N   UNL     1     -37.996  24.779   3.844  0.00  0.00    -0.297 N 
ATOM     15  N   UNL     1     -36.294  23.814   5.250  0.00  0.00    -0.229 NA
ATOM     16  C   UNL     1     -34.695  25.985   4.305  0.00  0.00    +0.090 C 
ATOM     17  C   UNL     1     -36.025  25.828   3.877  0.00  0.00    +0.044 C 
ATOM     18  C   UNL     1     -34.187  25.048   5.203  0.00  0.00    +0.033 C 
ATOM     19  C   UNL     1     -36.737  24.745   4.384  0.00  0.00    +0.133 C 
ATOM     20  C   UNL     1     -36.901  26.526   3.006  0.00  0.00    +0.019 C 
ATOM     21  C   UNL     1     -35.010  24.014   5.628  0.00  0.00    +0.101 C 
ATOM     22  C   UNL     1     -38.106  25.858   3.005  0.00  0.00    +0.063 C 
ATOM     23  H   UNL     1     -38.711  24.130   4.029  0.00  0.00    +0.154 HD
ENDBRANCH   8  16
BRANCH   5  24
ATOM     24  C   UNL     1     -31.611  29.545   5.206  0.00  0.00    +0.105 C 
ATOM     25  C   UNL     1     -32.182  30.662   6.030  0.00  0.00    +0.020 C 
ATOM     26  C   UNL     1     -31.195  30.961   4.941  0.00  0.00    +0.020 C 
BRANCH  24  27
ATOM     27  S   UNL     1     -30.332  28.639   6.117  0.00  0.00    -0.007 S 
ATOM     28  O   UNL     1     -29.549  29.626   6.862  0.00  0.00    -0.156 OA
ATOM     29  C   UNL     1     -29.258  28.017   4.836  0.00  0.00    +0.097 C 
BRANCH  27  30
ATOM     30  N   UNL     1     -31.019  27.397   6.750  0.00  0.00    -0.183 NA
ATOM     31  H   UNL     1     -31.925  27.137   6.464  0.00  0.00    +0.156 HD
ENDBRANCH  27  30
ENDBRANCH  24  27
ENDBRANCH   5  24
TORSDOF 4
ENDMDL
MODEL 9
REMARK VINA RESULT:      -6.5      3.149      6.693
REMARK  Name = 54761306
REMARK  4 active torsions:
REMARK  status: ('A' for Active; 'I' for Inactive)
REMARK    1  A    between atoms: C_5  and  C_24
REMARK    2  A    between atoms: C_8  and  C_16
REMARK    3  A    between atoms: C_24  and  S_27
REMARK    4  A    between atoms: S_27  and  N_29
REMARK                            x       y       z     vdW  Elec       q    Type
REMARK                         _______ _______ _______ _____ _____    ______ ____
ROOT
ATOM      1  O   UNL     1     -40.952  23.623  -0.309  0.00  0.00    -0.350 OA
ATOM      2  N   UNL     1     -34.525  23.652   2.306  0.00  0.00    -0.347 NA
ATOM      3  N   UNL     1     -38.349  23.693   0.750  0.00  0.00    -0.283 N 
ATOM      4  N   UNL     1     -36.092  23.000   0.595  0.00  0.00    -0.329 NA
ATOM      5  C   UNL     1     -35.531  24.304   2.926  0.00  0.00    +0.118 C 
ATOM      6  C   UNL     1     -36.824  24.348   2.449  0.00  0.00    +0.132 C 
ATOM      7  C   UNL     1     -37.049  23.672   1.267  0.00  0.00    +0.179 C 
ATOM      8  C   UNL     1     -34.871  23.031   1.162  0.00  0.00    +0.138 C 
ATOM      9  C   UNL     1     -39.477  23.273   1.605  0.00  0.00    +0.104 C 
ATOM     10  C   UNL     1     -38.556  23.613  -0.702  0.00  0.00    +0.125 C 
ATOM     11  C   UNL     1     -40.772  23.903   1.080  0.00  0.00    +0.162 C 
ATOM     12  C   UNL     1     -39.906  24.217  -1.074  0.00  0.00    +0.164 C 
ATOM     13  C   UNL     1     -39.578  21.744   1.635  0.00  0.00    +0.024 C 
ENDROOT
BRANCH   8  16
ATOM     14  N   UNL     1     -32.585  19.006   0.376  0.00  0.00    -0.297 N 
ATOM     15  N   UNL     1     -31.756  20.889  -0.879  0.00  0.00    -0.229 NA
ATOM     16  C   UNL     1     -33.823  22.325   0.471  0.00  0.00    +0.090 C 
ATOM     17  C   UNL     1     -33.629  20.953   0.703  0.00  0.00    +0.044 C 
ATOM     18  C   UNL     1     -32.976  22.958  -0.436  0.00  0.00    +0.033 C 
ATOM     19  C   UNL     1     -32.600  20.325   0.006  0.00  0.00    +0.133 C 
ATOM     20  C   UNL     1     -34.241  19.962   1.515  0.00  0.00    +0.019 C 
ATOM     21  C   UNL     1     -31.989  22.209  -1.062  0.00  0.00    +0.101 C 
ATOM     22  C   UNL     1     -33.579  18.774   1.292  0.00  0.00    +0.063 C 
ATOM     23  H   UNL     1     -31.958  18.329   0.036  0.00  0.00    +0.154 HD
ENDBRANCH   8  16
BRANCH   5  24
ATOM     24  C   UNL     1     -35.204  25.009   4.199  0.00  0.00    +0.105 C 
ATOM     25  C   UNL     1     -35.125  24.282   5.510  0.00  0.00    +0.020 C 
ATOM     26  C   UNL     1     -36.238  25.256   5.257  0.00  0.00    +0.020 C 
BRANCH  24  27
ATOM     27  S   UNL     1     -34.001  26.363   4.121  0.00  0.00    -0.007 S 
ATOM     28  O   UNL     1     -33.967  26.990   5.443  0.00  0.00    -0.156 OA
ATOM     29  C   UNL     1     -34.767  27.548   3.030  0.00  0.00    +0.097 C 
BRANCH  27  30
ATOM     30  N   UNL     1     -32.754  25.820   3.367  0.00  0.00    -0.183 NA
ATOM     31  H   UNL     1     -32.107  25.246   3.837  0.00  0.00    +0.156 HD
ENDBRANCH  27  30
ENDBRANCH  24  27
ENDBRANCH   5  24
TORSDOF 4
ENDMDL
