MODEL 1
REMARK VINA RESULT:      -5.6      0.000      0.000
REMARK  Name = 5300
REMARK  7 active torsions:
REMARK  status: ('A' for Active; 'I' for Inactive)
REMARK    1  A    between atoms: C_2  and  O_15
REMARK    2  A    between atoms: C_3  and  N_8
REMARK    3  A    between atoms: C_4  and  O_17
REMARK    4  A    between atoms: C_5  and  C_21
REMARK    5  A    between atoms: C_6  and  O_19
REMARK    6  A    between atoms: N_9  and  N_14
REMARK    7  A    between atoms: C_21  and  O_22
REMARK                            x       y       z     vdW  Elec       q    Type
REMARK                         _______ _______ _______ _____ _____    ______ ____
ROOT
ATOM      1  O   UNL     1     -34.520  24.298   5.743  0.00  0.00    -0.327 OA
ATOM      2  C   UNL     1     -36.548  24.692   3.728  0.00  0.00    +0.163 C 
ATOM      3  C   UNL     1     -35.593  25.812   4.156  0.00  0.00    +0.159 C 
ATOM      4  C   UNL     1     -35.962  23.310   4.056  0.00  0.00    +0.169 C 
ATOM      5  C   UNL     1     -35.455  23.239   5.503  0.00  0.00    +0.176 C 
ATOM      6  C   UNL     1     -35.104  25.592   5.597  0.00  0.00    +0.253 C 
ENDROOT
BRANCH   3   8
ATOM      7  O   UNL     1     -35.077  27.952   2.397  0.00  0.00    -0.251 OA
ATOM      8  N   UNL     1     -34.476  25.898   3.236  0.00  0.00    -0.282 N 
ATOM      9  N   UNL     1     -33.167  26.937   1.566  0.00  0.00    -0.162 N 
ATOM     10  C   UNL     1     -34.295  26.996   2.398  0.00  0.00    +0.320 C 
ATOM     11  C   UNL     1     -32.850  28.016   0.638  0.00  0.00    +0.140 C 
ATOM     12  H   UNL     1     -33.826  25.160   3.202  0.00  0.00    +0.151 HD
BRANCH   9  14
ATOM     13  O   UNL     1     -31.380  25.846   2.483  0.00  0.00    -0.078 OA
ATOM     14  N   UNL     1     -32.259  25.756   1.619  0.00  0.00    +0.054 NA
ENDBRANCH   9  14
ENDBRANCH   3   8
BRANCH   2  15
ATOM     15  O   UNL     1     -37.809  24.874   4.377  0.00  0.00    -0.380 OA
ATOM     16  H   UNL     1     -38.390  24.126   4.169  0.00  0.00    +0.211 HD
ENDBRANCH   2  15
BRANCH   4  17
ATOM     17  O   UNL     1     -36.951  22.319   3.803  0.00  0.00    -0.379 OA
ATOM     18  H   UNL     1     -36.659  21.751   3.071  0.00  0.00    +0.211 HD
ENDBRANCH   4  17
BRANCH   6  19
ATOM     19  O   UNL     1     -34.168  26.614   5.932  0.00  0.00    -0.359 OA
ATOM     20  H   UNL     1     -34.356  26.945   6.825  0.00  0.00    +0.213 HD
ENDBRANCH   6  19
BRANCH   5  21
ATOM     21  C   UNL     1     -34.731  21.927   5.794  0.00  0.00    +0.169 C 
BRANCH  21  22
ATOM     22  O   UNL     1     -35.697  20.902   5.937  0.00  0.00    -0.379 OA
ATOM     23  H   UNL     1     -35.632  20.518   6.825  0.00  0.00    +0.211 HD
ENDBRANCH  21  22
ENDBRANCH   5  21
TORSDOF 7
ENDMDL
MODEL 2
REMARK VINA RESULT:      -5.5      1.377      1.401
REMARK  Name = 5300
REMARK  7 active torsions:
REMARK  status: ('A' for Active; 'I' for Inactive)
REMARK    1  A    between atoms: C_2  and  O_15
REMARK    2  A    between atoms: C_3  and  N_8
REMARK    3  A    between atoms: C_4  and  O_17
REMARK    4  A    between atoms: C_5  and  C_21
REMARK    5  A    between atoms: C_6  and  O_19
REMARK    6  A    between atoms: N_9  and  N_14
REMARK    7  A    between atoms: C_21  and  O_22
REMARK                            x       y       z     vdW  Elec       q    Type
REMARK                         _______ _______ _______ _____ _____    ______ ____
ROOT
ATOM      1  O   UNL     1     -35.740  24.312   5.631  0.00  0.00    -0.327 OA
ATOM      2  C   UNL     1     -35.900  23.859   2.785  0.00  0.00    +0.163 C 
ATOM      3  C   UNL     1     -35.901  25.268   3.390  0.00  0.00    +0.159 C 
ATOM      4  C   UNL     1     -35.275  22.842   3.753  0.00  0.00    +0.169 C 
ATOM      5  C   UNL     1     -35.870  22.964   5.163  0.00  0.00    +0.176 C 
ATOM      6  C   UNL     1     -36.456  25.246   4.823  0.00  0.00    +0.253 C 
ENDROOT
BRANCH   3   8
ATOM      7  O   UNL     1     -35.254  27.931   2.734  0.00  0.00    -0.251 OA
ATOM      8  N   UNL     1     -34.565  25.828   3.358  0.00  0.00    -0.282 N 
ATOM      9  N   UNL     1     -32.987  27.558   3.038  0.00  0.00    -0.162 N 
ATOM     10  C   UNL     1     -34.333  27.160   3.022  0.00  0.00    +0.320 C 
ATOM     11  C   UNL     1     -32.595  28.923   2.710  0.00  0.00    +0.140 C 
ATOM     12  H   UNL     1     -33.799  25.252   3.581  0.00  0.00    +0.151 HD
BRANCH   9  14
ATOM     13  O   UNL     1     -31.571  25.860   2.458  0.00  0.00    -0.078 OA
ATOM     14  N   UNL     1     -31.922  26.580   3.400  0.00  0.00    +0.054 NA
ENDBRANCH   9  14
ENDBRANCH   3   8
BRANCH   2  15
ATOM     15  O   UNL     1     -37.240  23.486   2.456  0.00  0.00    -0.380 OA
ATOM     16  H   UNL     1     -37.648  23.044   3.217  0.00  0.00    +0.211 HD
ENDBRANCH   2  15
BRANCH   4  17
ATOM     17  O   UNL     1     -35.454  21.533   3.225  0.00  0.00    -0.379 OA
ATOM     18  H   UNL     1     -34.628  21.236   2.811  0.00  0.00    +0.211 HD
ENDBRANCH   4  17
BRANCH   6  19
ATOM     19  O   UNL     1     -36.377  26.560   5.373  0.00  0.00    -0.359 OA
ATOM     20  H   UNL     1     -35.503  26.690   5.774  0.00  0.00    +0.213 HD
ENDBRANCH   6  19
BRANCH   5  21
ATOM     21  C   UNL     1     -35.150  22.069   6.169  0.00  0.00    +0.169 C 
BRANCH  21  22
ATOM     22  O   UNL     1     -35.435  20.718   5.855  0.00  0.00    -0.379 OA
ATOM     23  H   UNL     1     -35.946  20.319   6.576  0.00  0.00    +0.211 HD
ENDBRANCH  21  22
ENDBRANCH   5  21
TORSDOF 7
ENDMDL
MODEL 3
REMARK VINA RESULT:      -4.9      1.715      2.524
REMARK  Name = 5300
REMARK  7 active torsions:
REMARK  status: ('A' for Active; 'I' for Inactive)
REMARK    1  A    between atoms: C_2  and  O_15
REMARK    2  A    between atoms: C_3  and  N_8
REMARK    3  A    between atoms: C_4  and  O_17
REMARK    4  A    between atoms: C_5  and  C_21
REMARK    5  A    between atoms: C_6  and  O_19
REMARK    6  A    between atoms: N_9  and  N_14
REMARK    7  A    between atoms: C_21  and  O_22
REMARK                            x       y       z     vdW  Elec       q    Type
REMARK                         _______ _______ _______ _____ _____    ______ ____
ROOT
ATOM      1  O   UNL     1     -35.744  22.260   3.902  0.00  0.00    -0.327 OA
ATOM      2  C   UNL     1     -37.155  24.720   3.363  0.00  0.00    +0.163 C 
ATOM      3  C   UNL     1     -36.048  24.627   4.419  0.00  0.00    +0.159 C 
ATOM      4  C   UNL     1     -37.025  23.594   2.326  0.00  0.00    +0.169 C 
ATOM      5  C   UNL     1     -36.853  22.223   2.996  0.00  0.00    +0.176 C 
ATOM      6  C   UNL     1     -35.931  23.195   4.965  0.00  0.00    +0.253 C 
ENDROOT
BRANCH   3   8
ATOM      7  O   UNL     1     -34.732  27.032   5.073  0.00  0.00    -0.251 OA
ATOM      8  N   UNL     1     -34.787  25.077   3.865  0.00  0.00    -0.282 N 
ATOM      9  N   UNL     1     -32.981  26.581   3.624  0.00  0.00    -0.162 N 
ATOM     10  C   UNL     1     -34.204  26.283   4.245  0.00  0.00    +0.320 C 
ATOM     11  C   UNL     1     -32.255  27.809   3.926  0.00  0.00    +0.140 C 
ATOM     12  H   UNL     1     -34.328  24.513   3.202  0.00  0.00    +0.151 HD
BRANCH   9  14
ATOM     13  O   UNL     1     -31.201  25.850   2.391  0.00  0.00    -0.078 OA
ATOM     14  N   UNL     1     -32.393  25.633   2.636  0.00  0.00    +0.054 NA
ENDBRANCH   9  14
ENDBRANCH   3   8
BRANCH   2  15
ATOM     15  O   UNL     1     -38.429  24.666   4.009  0.00  0.00    -0.380 OA
ATOM     16  H   UNL     1     -38.724  23.744   4.065  0.00  0.00    +0.211 HD
ENDBRANCH   2  15
BRANCH   4  17
ATOM     17  O   UNL     1     -38.164  23.617   1.474  0.00  0.00    -0.379 OA
ATOM     18  H   UNL     1     -37.890  23.853   0.574  0.00  0.00    +0.211 HD
ENDBRANCH   4  17
BRANCH   6  19
ATOM     19  O   UNL     1     -34.850  23.136   5.892  0.00  0.00    -0.359 OA
ATOM     20  H   UNL     1     -34.010  23.094   5.406  0.00  0.00    +0.213 HD
ENDBRANCH   6  19
BRANCH   5  21
ATOM     21  C   UNL     1     -36.567  21.120   1.981  0.00  0.00    +0.169 C 
BRANCH  21  22
ATOM     22  O   UNL     1     -36.678  19.868   2.634  0.00  0.00    -0.379 OA
ATOM     23  H   UNL     1     -36.515  19.155   1.997  0.00  0.00    +0.211 HD
ENDBRANCH  21  22
ENDBRANCH   5  21
TORSDOF 7
ENDMDL
MODEL 4
REMARK VINA RESULT:      -4.8      2.804      4.493
REMARK  Name = 5300
REMARK  7 active torsions:
REMARK  status: ('A' for Active; 'I' for Inactive)
REMARK    1  A    between atoms: C_2  and  O_15
REMARK    2  A    between atoms: C_3  and  N_8
REMARK    3  A    between atoms: C_4  and  O_17
REMARK    4  A    between atoms: C_5  and  C_21
REMARK    5  A    between atoms: C_6  and  O_19
REMARK    6  A    between atoms: N_9  and  N_14
REMARK    7  A    between atoms: C_21  and  O_22
REMARK                            x       y       z     vdW  Elec       q    Type
REMARK                         _______ _______ _______ _____ _____    ______ ____
ROOT
ATOM      1  O   UNL     1     -34.424  26.141   2.370  0.00  0.00    -0.327 OA
ATOM      2  C   UNL     1     -35.216  25.837   5.129  0.00  0.00    +0.163 C 
ATOM      3  C   UNL     1     -33.752  26.026   4.715  0.00  0.00    +0.159 C 
ATOM      4  C   UNL     1     -36.169  26.364   4.045  0.00  0.00    +0.169 C 
ATOM      5  C   UNL     1     -35.794  25.834   2.654  0.00  0.00    +0.176 C 
ATOM      6  C   UNL     1     -33.520  25.518   3.283  0.00  0.00    +0.253 C 
ENDROOT
BRANCH   3   8
ATOM      7  O   UNL     1     -31.864  27.050   6.539  0.00  0.00    -0.251 OA
ATOM      8  N   UNL     1     -33.370  27.418   4.842  0.00  0.00    -0.282 N 
ATOM      9  N   UNL     1     -32.158  29.218   5.774  0.00  0.00    -0.162 N 
ATOM     10  C   UNL     1     -32.425  27.840   5.773  0.00  0.00    +0.320 C 
ATOM     11  C   UNL     1     -31.189  29.803   6.694  0.00  0.00    +0.140 C 
ATOM     12  H   UNL     1     -33.790  28.084   4.252  0.00  0.00    +0.151 HD
BRANCH   9  14
ATOM     13  O   UNL     1     -32.502  29.981   3.648  0.00  0.00    -0.078 OA
ATOM     14  N   UNL     1     -32.866  30.119   4.821  0.00  0.00    +0.054 NA
ENDBRANCH   9  14
ENDBRANCH   3   8
BRANCH   2  15
ATOM     15  O   UNL     1     -35.459  24.451   5.385  0.00  0.00    -0.380 OA
ATOM     16  H   UNL     1     -36.343  24.214   5.063  0.00  0.00    +0.211 HD
ENDBRANCH   2  15
BRANCH   4  17
ATOM     17  O   UNL     1     -37.503  26.012   4.393  0.00  0.00    -0.379 OA
ATOM     18  H   UNL     1     -37.516  25.640   5.289  0.00  0.00    +0.211 HD
ENDBRANCH   4  17
BRANCH   6  19
ATOM     19  O   UNL     1     -32.166  25.773   2.912  0.00  0.00    -0.359 OA
ATOM     20  H   UNL     1     -32.112  25.894   1.951  0.00  0.00    +0.213 HD
ENDBRANCH   6  19
BRANCH   5  21
ATOM     21  C   UNL     1     -36.634  26.472   1.551  0.00  0.00    +0.169 C 
BRANCH  21  22
ATOM     22  O   UNL     1     -37.042  27.758   1.982  0.00  0.00    -0.379 OA
ATOM     23  H   UNL     1     -37.829  27.677   2.542  0.00  0.00    +0.211 HD
ENDBRANCH  21  22
ENDBRANCH   5  21
TORSDOF 7
ENDMDL
MODEL 5
REMARK VINA RESULT:      -4.7      3.463      5.341
REMARK  Name = 5300
REMARK  7 active torsions:
REMARK  status: ('A' for Active; 'I' for Inactive)
REMARK    1  A    between atoms: C_2  and  O_15
REMARK    2  A    between atoms: C_3  and  N_8
REMARK    3  A    between atoms: C_4  and  O_17
REMARK    4  A    between atoms: C_5  and  C_21
REMARK    5  A    between atoms: C_6  and  O_19
REMARK    6  A    between atoms: N_9  and  N_14
REMARK    7  A    between atoms: C_21  and  O_22
REMARK                            x       y       z     vdW  Elec       q    Type
REMARK                         _______ _______ _______ _____ _____    ______ ____
ROOT
ATOM      1  O   UNL     1     -35.531  21.889   3.751  0.00  0.00    -0.327 OA
ATOM      2  C   UNL     1     -36.142  24.660   3.225  0.00  0.00    +0.163 C 
ATOM      3  C   UNL     1     -36.259  23.578   2.145  0.00  0.00    +0.159 C 
ATOM      4  C   UNL     1     -36.215  24.047   4.632  0.00  0.00    +0.169 C 
ATOM      5  C   UNL     1     -35.264  22.851   4.779  0.00  0.00    +0.176 C 
ATOM      6  C   UNL     1     -35.308  22.407   2.440  0.00  0.00    +0.253 C 
ENDROOT
BRANCH   3   8
ATOM      7  O   UNL     1     -38.264  24.750   0.549  0.00  0.00    -0.251 OA
ATOM      8  N   UNL     1     -37.630  23.120   2.041  0.00  0.00    -0.282 N 
ATOM      9  N   UNL     1     -39.846  23.198   1.226  0.00  0.00    -0.162 N 
ATOM     10  C   UNL     1     -38.560  23.759   1.225  0.00  0.00    +0.320 C 
ATOM     11  C   UNL     1     -40.921  23.761   0.418  0.00  0.00    +0.140 C 
ATOM     12  H   UNL     1     -37.912  22.333   2.560  0.00  0.00    +0.151 HD
BRANCH   9  14
ATOM     13  O   UNL     1     -40.502  21.016   1.404  0.00  0.00    -0.078 OA
ATOM     14  N   UNL     1     -40.139  21.998   2.061  0.00  0.00    +0.054 NA
ENDBRANCH   9  14
ENDBRANCH   3   8
BRANCH   2  15
ATOM     15  O   UNL     1     -34.915  25.373   3.047  0.00  0.00    -0.380 OA
ATOM     16  H   UNL     1     -34.231  24.985   3.614  0.00  0.00    +0.211 HD
ENDBRANCH   2  15
BRANCH   4  17
ATOM     17  O   UNL     1     -35.928  25.059   5.590  0.00  0.00    -0.379 OA
ATOM     18  H   UNL     1     -35.452  25.787   5.160  0.00  0.00    +0.211 HD
ENDBRANCH   4  17
BRANCH   6  19
ATOM     19  O   UNL     1     -35.496  21.394   1.454  0.00  0.00    -0.359 OA
ATOM     20  H   UNL     1     -36.051  21.741   0.737  0.00  0.00    +0.213 HD
ENDBRANCH   6  19
BRANCH   5  21
ATOM     21  C   UNL     1     -35.439  22.139   6.117  0.00  0.00    +0.169 C 
BRANCH  21  22
ATOM     22  O   UNL     1     -35.430  20.741   5.888  0.00  0.00    -0.379 OA
ATOM     23  H   UNL     1     -35.977  20.300   6.556  0.00  0.00    +0.211 HD
ENDBRANCH  21  22
ENDBRANCH   5  21
TORSDOF 7
ENDMDL
MODEL 6
REMARK VINA RESULT:      -4.7      3.717      6.088
REMARK  Name = 5300
REMARK  7 active torsions:
REMARK  status: ('A' for Active; 'I' for Inactive)
REMARK    1  A    between atoms: C_2  and  O_15
REMARK    2  A    between atoms: C_3  and  N_8
REMARK    3  A    between atoms: C_4  and  O_17
REMARK    4  A    between atoms: C_5  and  C_21
REMARK    5  A    between atoms: C_6  and  O_19
REMARK    6  A    between atoms: N_9  and  N_14
REMARK    7  A    between atoms: C_21  and  O_22
REMARK                            x       y       z     vdW  Elec       q    Type
REMARK                         _______ _______ _______ _____ _____    ______ ____
ROOT
ATOM      1  O   UNL     1     -38.218  23.766   0.791  0.00  0.00    -0.327 OA
ATOM      2  C   UNL     1     -38.032  21.036   1.709  0.00  0.00    +0.163 C 
ATOM      3  C   UNL     1     -36.809  21.957   1.631  0.00  0.00    +0.159 C 
ATOM      4  C   UNL     1     -39.333  21.850   1.785  0.00  0.00    +0.169 C 
ATOM      5  C   UNL     1     -39.384  22.938   0.703  0.00  0.00    +0.176 C 
ATOM      6  C   UNL     1     -37.010  23.042   0.560  0.00  0.00    +0.253 C 
ENDROOT
BRANCH   3   8
ATOM      7  O   UNL     1     -35.349  20.750   3.717  0.00  0.00    -0.251 OA
ATOM      8  N   UNL     1     -36.543  22.548   2.927  0.00  0.00    -0.282 N 
ATOM      9  N   UNL     1     -35.632  22.583   5.107  0.00  0.00    -0.162 N 
ATOM     10  C   UNL     1     -35.810  21.881   3.904  0.00  0.00    +0.320 C 
ATOM     11  C   UNL     1     -34.884  22.009   6.218  0.00  0.00    +0.140 C 
ATOM     12  H   UNL     1     -36.889  23.449   3.122  0.00  0.00    +0.151 HD
BRANCH   9  14
ATOM     13  O   UNL     1     -35.545  24.834   4.721  0.00  0.00    -0.078 OA
ATOM     14  N   UNL     1     -36.210  23.948   5.269  0.00  0.00    +0.054 NA
ENDBRANCH   9  14
ENDBRANCH   3   8
BRANCH   2  15
ATOM     15  O   UNL     1     -38.044  20.170   0.572  0.00  0.00    -0.380 OA
ATOM     16  H   UNL     1     -38.753  19.516   0.671  0.00  0.00    +0.211 HD
ENDBRANCH   2  15
BRANCH   4  17
ATOM     17  O   UNL     1     -40.440  20.962   1.680  0.00  0.00    -0.379 OA
ATOM     18  H   UNL     1     -41.162  21.400   1.202  0.00  0.00    +0.211 HD
ENDBRANCH   4  17
BRANCH   6  19
ATOM     19  O   UNL     1     -35.883  23.916   0.566  0.00  0.00    -0.359 OA
ATOM     20  H   UNL     1     -35.566  24.040  -0.342  0.00  0.00    +0.213 HD
ENDBRANCH   6  19
BRANCH   5  21
ATOM     21  C   UNL     1     -40.596  23.853   0.865  0.00  0.00    +0.169 C 
BRANCH  21  22
ATOM     22  O   UNL     1     -41.741  23.172   0.384  0.00  0.00    -0.379 OA
ATOM     23  H   UNL     1     -42.169  22.702   1.116  0.00  0.00    +0.211 HD
ENDBRANCH  21  22
ENDBRANCH   5  21
TORSDOF 7
ENDMDL
MODEL 7
REMARK VINA RESULT:      -4.7      3.843      6.044
REMARK  Name = 5300
REMARK  7 active torsions:
REMARK  status: ('A' for Active; 'I' for Inactive)
REMARK    1  A    between atoms: C_2  and  O_15
REMARK    2  A    between atoms: C_3  and  N_8
REMARK    3  A    between atoms: C_4  and  O_17
REMARK    4  A    between atoms: C_5  and  C_21
REMARK    5  A    between atoms: C_6  and  O_19
REMARK    6  A    between atoms: N_9  and  N_14
REMARK    7  A    between atoms: C_21  and  O_22
REMARK                            x       y       z     vdW  Elec       q    Type
REMARK                         _______ _______ _______ _____ _____    ______ ____
ROOT
ATOM      1  O   UNL     1     -36.201  23.126   4.416  0.00  0.00    -0.327 OA
ATOM      2  C   UNL     1     -35.741  23.733   1.632  0.00  0.00    +0.163 C 
ATOM      3  C   UNL     1     -35.974  22.302   2.128  0.00  0.00    +0.159 C 
ATOM      4  C   UNL     1     -36.309  24.761   2.622  0.00  0.00    +0.169 C 
ATOM      5  C   UNL     1     -35.858  24.471   4.061  0.00  0.00    +0.176 C 
ATOM      6  C   UNL     1     -35.547  22.157   3.598  0.00  0.00    +0.253 C 
ENDROOT
BRANCH   3   8
ATOM      7  O   UNL     1     -37.091  21.182  -0.204  0.00  0.00    -0.251 OA
ATOM      8  N   UNL     1     -37.364  21.930   1.952  0.00  0.00    -0.282 N 
ATOM      9  N   UNL     1     -39.203  21.069   0.744  0.00  0.00    -0.162 N 
ATOM     10  C   UNL     1     -37.834  21.380   0.763  0.00  0.00    +0.320 C 
ATOM     11  C   UNL     1     -39.833  20.486  -0.434  0.00  0.00    +0.140 C 
ATOM     12  H   UNL     1     -37.994  22.069   2.696  0.00  0.00    +0.151 HD
BRANCH   9  14
ATOM     13  O   UNL     1     -40.175  22.529   2.209  0.00  0.00    -0.078 OA
ATOM     14  N   UNL     1     -40.045  21.328   1.946  0.00  0.00    +0.054 NA
ENDBRANCH   9  14
ENDBRANCH   3   8
BRANCH   2  15
ATOM     15  O   UNL     1     -34.340  23.942   1.435  0.00  0.00    -0.380 OA
ATOM     16  H   UNL     1     -34.206  24.699   0.845  0.00  0.00    +0.211 HD
ENDBRANCH   2  15
BRANCH   4  17
ATOM     17  O   UNL     1     -35.918  26.065   2.208  0.00  0.00    -0.379 OA
ATOM     18  H   UNL     1     -36.292  26.252   1.333  0.00  0.00    +0.211 HD
ENDBRANCH   4  17
BRANCH   6  19
ATOM     19  O   UNL     1     -35.842  20.834   4.040  0.00  0.00    -0.359 OA
ATOM     20  H   UNL     1     -36.725  20.817   4.443  0.00  0.00    +0.213 HD
ENDBRANCH   6  19
BRANCH   5  21
ATOM     21  C   UNL     1     -36.540  25.389   5.072  0.00  0.00    +0.169 C 
BRANCH  21  22
ATOM     22  O   UNL     1     -35.934  26.667   5.000  0.00  0.00    -0.379 OA
ATOM     23  H   UNL     1     -35.491  26.768   4.143  0.00  0.00    +0.211 HD
ENDBRANCH  21  22
ENDBRANCH   5  21
TORSDOF 7
ENDMDL
MODEL 8
REMARK VINA RESULT:      -4.7      3.558      5.344
REMARK  Name = 5300
REMARK  7 active torsions:
REMARK  status: ('A' for Active; 'I' for Inactive)
REMARK    1  A    between atoms: C_2  and  O_15
REMARK    2  A    between atoms: C_3  and  N_8
REMARK    3  A    between atoms: C_4  and  O_17
REMARK    4  A    between atoms: C_5  and  C_21
REMARK    5  A    between atoms: C_6  and  O_19
REMARK    6  A    between atoms: N_9  and  N_14
REMARK    7  A    between atoms: C_21  and  O_22
REMARK                            x       y       z     vdW  Elec       q    Type
REMARK                         _______ _______ _______ _____ _____    ______ ____
ROOT
ATOM      1  O   UNL     1     -35.874  22.535   1.247  0.00  0.00    -0.327 OA
ATOM      2  C   UNL     1     -36.426  23.873   3.744  0.00  0.00    +0.163 C 
ATOM      3  C   UNL     1     -36.750  24.509   2.387  0.00  0.00    +0.159 C 
ATOM      4  C   UNL     1     -36.321  22.345   3.627  0.00  0.00    +0.169 C 
ATOM      5  C   UNL     1     -35.415  21.927   2.460  0.00  0.00    +0.176 C 
ATOM      6  C   UNL     1     -35.821  23.961   1.291  0.00  0.00    +0.253 C 
ENDROOT
BRANCH   3   8
ATOM      7  O   UNL     1     -38.848  26.349   2.775  0.00  0.00    -0.251 OA
ATOM      8  N   UNL     1     -38.141  24.286   2.048  0.00  0.00    -0.282 N 
ATOM      9  N   UNL     1     -40.419  24.893   1.891  0.00  0.00    -0.162 N 
ATOM     10  C   UNL     1     -39.118  25.253   2.274  0.00  0.00    +0.320 C 
ATOM     11  C   UNL     1     -41.542  25.806   2.066  0.00  0.00    +0.140 C 
ATOM     12  H   UNL     1     -38.404  23.428   1.645  0.00  0.00    +0.151 HD
BRANCH   9  14
ATOM     13  O   UNL     1     -40.386  22.612   2.029  0.00  0.00    -0.078 OA
ATOM     14  N   UNL     1     -40.678  23.555   1.286  0.00  0.00    +0.054 NA
ENDBRANCH   9  14
ENDBRANCH   3   8
BRANCH   2  15
ATOM     15  O   UNL     1     -35.207  24.427   4.245  0.00  0.00    -0.380 OA
ATOM     16  H   UNL     1     -35.373  24.855   5.099  0.00  0.00    +0.211 HD
ENDBRANCH   2  15
BRANCH   4  17
ATOM     17  O   UNL     1     -35.851  21.819   4.863  0.00  0.00    -0.379 OA
ATOM     18  H   UNL     1     -36.201  22.352   5.594  0.00  0.00    +0.211 HD
ENDBRANCH   4  17
BRANCH   6  19
ATOM     19  O   UNL     1     -36.198  24.524   0.037  0.00  0.00    -0.359 OA
ATOM     20  H   UNL     1     -37.063  24.174  -0.228  0.00  0.00    +0.213 HD
ENDBRANCH   6  19
BRANCH   5  21
ATOM     21  C   UNL     1     -35.426  20.417   2.236  0.00  0.00    +0.169 C 
BRANCH  21  22
ATOM     22  O   UNL     1     -36.656  19.900   2.713  0.00  0.00    -0.379 OA
ATOM     23  H   UNL     1     -37.280  19.818   1.976  0.00  0.00    +0.211 HD
ENDBRANCH  21  22
ENDBRANCH   5  21
TORSDOF 7
ENDMDL
MODEL 9
REMARK VINA RESULT:      -4.6      2.621      5.080
REMARK  Name = 5300
REMARK  7 active torsions:
REMARK  status: ('A' for Active; 'I' for Inactive)
REMARK    1  A    between atoms: C_2  and  O_15
REMARK    2  A    between atoms: C_3  and  N_8
REMARK    3  A    between atoms: C_4  and  O_17
REMARK    4  A    between atoms: C_5  and  C_21
REMARK    5  A    between atoms: C_6  and  O_19
REMARK    6  A    between atoms: N_9  and  N_14
REMARK    7  A    between atoms: C_21  and  O_22
REMARK                            x       y       z     vdW  Elec       q    Type
REMARK                         _______ _______ _______ _____ _____    ______ ____
ROOT
ATOM      1  O   UNL     1     -34.939  26.330   2.615  0.00  0.00    -0.327 OA
ATOM      2  C   UNL     1     -36.023  25.482   5.152  0.00  0.00    +0.163 C 
ATOM      3  C   UNL     1     -36.724  25.180   3.823  0.00  0.00    +0.159 C 
ATOM      4  C   UNL     1     -34.525  25.754   4.938  0.00  0.00    +0.169 C 
ATOM      5  C   UNL     1     -34.289  26.771   3.813  0.00  0.00    +0.176 C 
ATOM      6  C   UNL     1     -36.356  26.230   2.761  0.00  0.00    +0.253 C 
ENDROOT
BRANCH   3   8
ATOM      7  O   UNL     1     -38.463  23.423   2.471  0.00  0.00    -0.251 OA
ATOM      8  N   UNL     1     -36.390  23.845   3.370  0.00  0.00    -0.282 N 
ATOM      9  N   UNL     1     -36.841  21.773   2.329  0.00  0.00    -0.162 N 
ATOM     10  C   UNL     1     -37.312  23.040   2.707  0.00  0.00    +0.320 C 
ATOM     11  C   UNL     1     -37.696  20.824   1.625  0.00  0.00    +0.140 C 
ATOM     12  H   UNL     1     -35.484  23.496   3.535  0.00  0.00    +0.151 HD
BRANCH   9  14
ATOM     13  O   UNL     1     -35.320  20.789   3.723  0.00  0.00    -0.078 OA
ATOM     14  N   UNL     1     -35.439  21.372   2.639  0.00  0.00    +0.054 NA
ENDBRANCH   9  14
ENDBRANCH   3   8
BRANCH   2  15
ATOM     15  O   UNL     1     -36.655  26.601   5.776  0.00  0.00    -0.380 OA
ATOM     16  H   UNL     1     -37.153  27.103   5.111  0.00  0.00    +0.211 HD
ENDBRANCH   2  15
BRANCH   4  17
ATOM     17  O   UNL     1     -33.958  26.196   6.166  0.00  0.00    -0.379 OA
ATOM     18  H   UNL     1     -33.012  25.977   6.181  0.00  0.00    +0.211 HD
ENDBRANCH   4  17
BRANCH   6  19
ATOM     19  O   UNL     1     -36.972  25.877   1.524  0.00  0.00    -0.359 OA
ATOM     20  H   UNL     1     -36.700  26.506   0.837  0.00  0.00    +0.213 HD
ENDBRANCH   6  19
BRANCH   5  21
ATOM     21  C   UNL     1     -32.808  26.932   3.486  0.00  0.00    +0.169 C 
BRANCH  21  22
ATOM     22  O   UNL     1     -32.156  27.495   4.611  0.00  0.00    -0.379 OA
ATOM     23  H   UNL     1     -31.215  27.617   4.412  0.00  0.00    +0.211 HD
ENDBRANCH  21  22
ENDBRANCH   5  21
TORSDOF 7
ENDMDL
