MODEL 1
REMARK VINA RESULT:      -6.9      0.000      0.000
REMARK  Name = 190841
REMARK  9 active torsions:
REMARK  status: ('A' for Active; 'I' for Inactive)
REMARK    1  A    between atoms: P_1  and  O_3
REMARK    2  A    between atoms: P_1  and  O_5
REMARK    3  A    between atoms: P_1  and  C_16
REMARK    4  A    between atoms: O_5  and  C_6
REMARK    5  A    between atoms: C_9  and  C_13
REMARK    6  A    between atoms: C_13  and  O_14
REMARK    7  A    between atoms: C_16  and  N_18
REMARK    8  A    between atoms: C_19  and  C_21
REMARK    9  A    between atoms: C_21  and  C_23
REMARK                            x       y       z     vdW  Elec       q    Type
REMARK                         _______ _______ _______ _____ _____    ______ ____
ROOT
ATOM      1  P   UNL     1     -36.920  21.247   1.348  0.00  0.00    +0.408 P 
ATOM      2  O   UNL     1     -37.371  22.179   0.260  0.00  0.00    -0.242 OA
ENDROOT
BRANCH   1   3
ATOM      3  O   UNL     1     -38.018  20.960   2.501  0.00  0.00    -0.314 OA
ATOM      4  H   UNL     1     -38.859  21.377   2.258  0.00  0.00    +0.221 HD
ENDBRANCH   1   3
BRANCH   1   5
ATOM      5  O   UNL     1     -35.594  21.697   2.149  0.00  0.00    -0.421 OA
BRANCH   5   6
ATOM      6  C   UNL     1     -35.564  22.241   3.402  0.00  0.00    +0.147 C 
ATOM      7  C   UNL     1     -35.881  23.585   3.580  0.00  0.00    +0.044 C 
ATOM      8  C   UNL     1     -35.216  21.448   4.492  0.00  0.00    +0.037 C 
ATOM      9  C   UNL     1     -35.849  24.140   4.859  0.00  0.00    +0.078 C 
ATOM     10  C   UNL     1     -35.185  22.005   5.771  0.00  0.00    +0.003 C 
ATOM     11  C   UNL     1     -35.501  23.350   5.955  0.00  0.00    +0.007 C 
BRANCH   9  13
ATOM     12  O   UNL     1     -35.486  26.365   5.662  0.00  0.00    -0.245 OA
ATOM     13  C   UNL     1     -36.178  25.544   5.050  0.00  0.00    +0.338 C 
BRANCH  13  14
ATOM     14  O   UNL     1     -37.361  25.885   4.470  0.00  0.00    -0.477 OA
ATOM     15  H   UNL     1     -37.871  26.586   4.824  0.00  0.00    +0.295 HD
ENDBRANCH  13  14
ENDBRANCH   9  13
ENDBRANCH   5   6
ENDBRANCH   1   5
BRANCH   1  16
ATOM     16  C   UNL     1     -36.511  19.612   0.753  0.00  0.00    +0.220 C 
BRANCH  16  18
ATOM     17  O   UNL     1     -34.464  18.034  -0.544  0.00  0.00    -0.275 OA
ATOM     18  N   UNL     1     -35.207  19.271   1.279  0.00  0.00    -0.293 N 
ATOM     19  C   UNL     1     -34.289  18.506   0.578  0.00  0.00    +0.227 C 
ATOM     20  H   UNL     1     -34.961  19.598   2.174  0.00  0.00    +0.150 HD
BRANCH  19  21
ATOM     21  C   UNL     1     -32.976  18.345   1.314  0.00  0.00    +0.111 C 
BRANCH  21  23
ATOM     22  I   UNL     1     -28.285  21.351  -1.751  0.00  0.00    -0.043 I 
ATOM     23  C   UNL     1     -31.864  19.058   0.588  0.00  0.00    -0.013 C 
ATOM     24  C   UNL     1     -32.082  20.335   0.091  0.00  0.00    -0.003 C 
ATOM     25  C   UNL     1     -30.640  18.426   0.428  0.00  0.00    -0.003 C 
ATOM     26  C   UNL     1     -31.053  20.994  -0.580  0.00  0.00    +0.005 C 
ATOM     27  C   UNL     1     -29.611  19.086  -0.244  0.00  0.00    +0.005 C 
ATOM     28  C   UNL     1     -29.818  20.369  -0.748  0.00  0.00    +0.030 C 
ENDBRANCH  21  23
ENDBRANCH  19  21
ENDBRANCH  16  18
ENDBRANCH   1  16
TORSDOF 9
ENDMDL
MODEL 2
REMARK VINA RESULT:      -6.7      5.557      8.808
REMARK  Name = 190841
REMARK  9 active torsions:
REMARK  status: ('A' for Active; 'I' for Inactive)
REMARK    1  A    between atoms: P_1  and  O_3
REMARK    2  A    between atoms: P_1  and  O_5
REMARK    3  A    between atoms: P_1  and  C_16
REMARK    4  A    between atoms: O_5  and  C_6
REMARK    5  A    between atoms: C_9  and  C_13
REMARK    6  A    between atoms: C_13  and  O_14
REMARK    7  A    between atoms: C_16  and  N_18
REMARK    8  A    between atoms: C_19  and  C_21
REMARK    9  A    between atoms: C_21  and  C_23
REMARK                            x       y       z     vdW  Elec       q    Type
REMARK                         _______ _______ _______ _____ _____    ______ ____
ROOT
ATOM      1  P   UNL     1     -34.239  26.315   3.779  0.00  0.00    +0.408 P 
ATOM      2  O   UNL     1     -33.090  25.739   3.004  0.00  0.00    -0.242 OA
ENDROOT
BRANCH   1   3
ATOM      3  O   UNL     1     -33.870  26.831   5.267  0.00  0.00    -0.314 OA
ATOM      4  H   UNL     1     -32.950  26.603   5.470  0.00  0.00    +0.221 HD
ENDBRANCH   1   3
BRANCH   1   5
ATOM      5  O   UNL     1     -35.503  25.335   3.988  0.00  0.00    -0.421 OA
BRANCH   5   6
ATOM      6  C   UNL     1     -35.441  24.020   4.353  0.00  0.00    +0.147 C 
ATOM      7  C   UNL     1     -35.512  23.027   3.378  0.00  0.00    +0.044 C 
ATOM      8  C   UNL     1     -35.308  23.679   5.696  0.00  0.00    +0.037 C 
ATOM      9  C   UNL     1     -35.450  21.685   3.751  0.00  0.00    +0.078 C 
ATOM     10  C   UNL     1     -35.245  22.336   6.067  0.00  0.00    +0.003 C 
ATOM     11  C   UNL     1     -35.317  21.339   5.096  0.00  0.00    +0.007 C 
BRANCH   9  13
ATOM     12  O   UNL     1     -34.660  20.412   1.885  0.00  0.00    -0.245 OA
ATOM     13  C   UNL     1     -35.525  20.645   2.736  0.00  0.00    +0.338 C 
BRANCH  13  14
ATOM     14  O   UNL     1     -36.676  19.924   2.814  0.00  0.00    -0.477 OA
ATOM     15  H   UNL     1     -36.687  19.029   2.539  0.00  0.00    +0.295 HD
ENDBRANCH  13  14
ENDBRANCH   9  13
ENDBRANCH   5   6
ENDBRANCH   1   5
BRANCH   1  16
ATOM     16  C   UNL     1     -34.958  27.760   3.009  0.00  0.00    +0.220 C 
BRANCH  16  18
ATOM     17  O   UNL     1     -32.608  29.214   2.155  0.00  0.00    -0.275 OA
ATOM     18  N   UNL     1     -34.374  28.925   3.639  0.00  0.00    -0.293 N 
ATOM     19  C   UNL     1     -33.242  29.556   3.151  0.00  0.00    +0.227 C 
ATOM     20  H   UNL     1     -34.802  29.286   4.449  0.00  0.00    +0.150 HD
BRANCH  19  21
ATOM     21  C   UNL     1     -32.869  30.789   3.947  0.00  0.00    +0.111 C 
BRANCH  21  23
ATOM     22  I   UNL     1     -27.734  29.697   7.535  0.00  0.00    -0.043 I 
ATOM     23  C   UNL     1     -31.652  30.530   4.797  0.00  0.00    -0.013 C 
ATOM     24  C   UNL     1     -31.761  29.716   5.916  0.00  0.00    -0.003 C 
ATOM     25  C   UNL     1     -30.440  31.108   4.448  0.00  0.00    -0.003 C 
ATOM     26  C   UNL     1     -30.635  29.477   6.702  0.00  0.00    +0.005 C 
ATOM     27  C   UNL     1     -29.314  30.868   5.235  0.00  0.00    +0.005 C 
ATOM     28  C   UNL     1     -29.411  30.053   6.362  0.00  0.00    +0.030 C 
ENDBRANCH  21  23
ENDBRANCH  19  21
ENDBRANCH  16  18
ENDBRANCH   1  16
TORSDOF 9
ENDMDL
MODEL 3
REMARK VINA RESULT:      -6.6      5.832      9.379
REMARK  Name = 190841
REMARK  9 active torsions:
REMARK  status: ('A' for Active; 'I' for Inactive)
REMARK    1  A    between atoms: P_1  and  O_3
REMARK    2  A    between atoms: P_1  and  O_5
REMARK    3  A    between atoms: P_1  and  C_16
REMARK    4  A    between atoms: O_5  and  C_6
REMARK    5  A    between atoms: C_9  and  C_13
REMARK    6  A    between atoms: C_13  and  O_14
REMARK    7  A    between atoms: C_16  and  N_18
REMARK    8  A    between atoms: C_19  and  C_21
REMARK    9  A    between atoms: C_21  and  C_23
REMARK                            x       y       z     vdW  Elec       q    Type
REMARK                         _______ _______ _______ _____ _____    ______ ____
ROOT
ATOM      1  P   UNL     1     -35.632  26.270   3.115  0.00  0.00    +0.408 P 
ATOM      2  O   UNL     1     -34.334  25.818   2.513  0.00  0.00    -0.242 OA
ENDROOT
BRANCH   1   3
ATOM      3  O   UNL     1     -35.504  27.456   4.209  0.00  0.00    -0.314 OA
ATOM      4  H   UNL     1     -36.268  28.048   4.135  0.00  0.00    +0.221 HD
ENDBRANCH   1   3
BRANCH   1   5
ATOM      5  O   UNL     1     -36.496  25.125   3.853  0.00  0.00    -0.421 OA
BRANCH   5   6
ATOM      6  C   UNL     1     -36.032  23.900   4.241  0.00  0.00    +0.147 C 
ATOM      7  C   UNL     1     -36.030  22.843   3.334  0.00  0.00    +0.044 C 
ATOM      8  C   UNL     1     -35.565  23.716   5.539  0.00  0.00    +0.037 C 
ATOM      9  C   UNL     1     -35.557  21.592   3.731  0.00  0.00    +0.078 C 
ATOM     10  C   UNL     1     -35.092  22.464   5.934  0.00  0.00    +0.003 C 
ATOM     11  C   UNL     1     -35.088  21.402   5.031  0.00  0.00    +0.007 C 
BRANCH   9  13
ATOM     12  O   UNL     1     -34.576  20.103   2.136  0.00  0.00    -0.245 OA
ATOM     13  C   UNL     1     -35.554  20.485   2.788  0.00  0.00    +0.338 C 
BRANCH  13  14
ATOM     14  O   UNL     1     -36.771  19.883   2.686  0.00  0.00    -0.477 OA
ATOM     15  H   UNL     1     -36.839  19.024   2.321  0.00  0.00    +0.295 HD
ENDBRANCH  13  14
ENDBRANCH   9  13
ENDBRANCH   5   6
ENDBRANCH   1   5
BRANCH   1  16
ATOM     16  C   UNL     1     -36.773  26.941   1.914  0.00  0.00    +0.220 C 
BRANCH  16  18
ATOM     17  O   UNL     1     -39.338  27.504   0.702  0.00  0.00    -0.275 OA
ATOM     18  N   UNL     1     -37.935  26.079   1.887  0.00  0.00    -0.293 N 
ATOM     19  C   UNL     1     -39.125  26.438   1.277  0.00  0.00    +0.227 C 
ATOM     20  H   UNL     1     -37.875  25.196   2.320  0.00  0.00    +0.150 HD
BRANCH  19  21
ATOM     21  C   UNL     1     -40.165  25.339   1.328  0.00  0.00    +0.111 C 
BRANCH  21  23
ATOM     22  I   UNL     1     -45.376  27.300   4.401  0.00  0.00    -0.043 I 
ATOM     23  C   UNL     1     -41.400  25.804   2.056  0.00  0.00    -0.013 C 
ATOM     24  C   UNL     1     -42.647  25.609   1.479  0.00  0.00    -0.003 C 
ATOM     25  C   UNL     1     -41.272  26.418   3.293  0.00  0.00    -0.003 C 
ATOM     26  C   UNL     1     -43.789  26.038   2.153  0.00  0.00    +0.005 C 
ATOM     27  C   UNL     1     -42.415  26.848   3.967  0.00  0.00    +0.005 C 
ATOM     28  C   UNL     1     -43.673  26.658   3.397  0.00  0.00    +0.030 C 
ENDBRANCH  21  23
ENDBRANCH  19  21
ENDBRANCH  16  18
ENDBRANCH   1  16
TORSDOF 9
ENDMDL
MODEL 4
REMARK VINA RESULT:      -6.5      5.292      7.634
REMARK  Name = 190841
REMARK  9 active torsions:
REMARK  status: ('A' for Active; 'I' for Inactive)
REMARK    1  A    between atoms: P_1  and  O_3
REMARK    2  A    between atoms: P_1  and  O_5
REMARK    3  A    between atoms: P_1  and  C_16
REMARK    4  A    between atoms: O_5  and  C_6
REMARK    5  A    between atoms: C_9  and  C_13
REMARK    6  A    between atoms: C_13  and  O_14
REMARK    7  A    between atoms: C_16  and  N_18
REMARK    8  A    between atoms: C_19  and  C_21
REMARK    9  A    between atoms: C_21  and  C_23
REMARK                            x       y       z     vdW  Elec       q    Type
REMARK                         _______ _______ _______ _____ _____    ______ ____
ROOT
ATOM      1  P   UNL     1     -33.792  27.062   4.619  0.00  0.00    +0.408 P 
ATOM      2  O   UNL     1     -32.901  27.366   5.789  0.00  0.00    -0.242 OA
ENDROOT
BRANCH   1   3
ATOM      3  O   UNL     1     -35.347  26.813   4.990  0.00  0.00    -0.314 OA
ATOM      4  H   UNL     1     -35.595  25.906   4.752  0.00  0.00    +0.221 HD
ENDBRANCH   1   3
BRANCH   1   5
ATOM      5  O   UNL     1     -33.372  25.779   3.736  0.00  0.00    -0.421 OA
BRANCH   5   6
ATOM      6  C   UNL     1     -34.106  24.636   3.590  0.00  0.00    +0.147 C 
ATOM      7  C   UNL     1     -34.413  23.864   4.707  0.00  0.00    +0.044 C 
ATOM      8  C   UNL     1     -34.541  24.250   2.325  0.00  0.00    +0.037 C 
ATOM      9  C   UNL     1     -35.161  22.696   4.556  0.00  0.00    +0.078 C 
ATOM     10  C   UNL     1     -35.289  23.083   2.176  0.00  0.00    +0.003 C 
ATOM     11  C   UNL     1     -35.599  22.305   3.291  0.00  0.00    +0.007 C 
BRANCH   9  13
ATOM     12  O   UNL     1     -36.029  22.297   6.750  0.00  0.00    -0.245 OA
ATOM     13  C   UNL     1     -35.484  21.885   5.720  0.00  0.00    +0.338 C 
BRANCH  13  14
ATOM     14  O   UNL     1     -35.118  20.583   5.565  0.00  0.00    -0.477 OA
ATOM     15  H   UNL     1     -35.487  20.073   4.872  0.00  0.00    +0.295 HD
ENDBRANCH  13  14
ENDBRANCH   9  13
ENDBRANCH   5   6
ENDBRANCH   1   5
BRANCH   1  16
ATOM     16  C   UNL     1     -33.861  28.387   3.421  0.00  0.00    +0.220 C 
BRANCH  16  18
ATOM     17  O   UNL     1     -34.561  27.358   0.810  0.00  0.00    -0.275 OA
ATOM     18  N   UNL     1     -35.175  28.359   2.816  0.00  0.00    -0.293 N 
ATOM     19  C   UNL     1     -35.412  27.841   1.554  0.00  0.00    +0.227 C 
ATOM     20  H   UNL     1     -35.935  28.722   3.326  0.00  0.00    +0.150 HD
BRANCH  19  21
ATOM     21  C   UNL     1     -36.878  27.866   1.175  0.00  0.00    +0.111 C 
BRANCH  21  23
ATOM     22  I   UNL     1     -39.452  22.078   1.730  0.00  0.00    -0.043 I 
ATOM     23  C   UNL     1     -37.488  26.494   1.307  0.00  0.00    -0.013 C 
ATOM     24  C   UNL     1     -37.885  26.041   2.557  0.00  0.00    -0.003 C 
ATOM     25  C   UNL     1     -37.645  25.706   0.176  0.00  0.00    -0.003 C 
ATOM     26  C   UNL     1     -38.450  24.772   2.677  0.00  0.00    +0.005 C 
ATOM     27  C   UNL     1     -38.210  24.437   0.297  0.00  0.00    +0.005 C 
ATOM     28  C   UNL     1     -38.612  23.970   1.548  0.00  0.00    +0.030 C 
ENDBRANCH  21  23
ENDBRANCH  19  21
ENDBRANCH  16  18
ENDBRANCH   1  16
TORSDOF 9
ENDMDL
MODEL 5
REMARK VINA RESULT:      -6.5      4.484      7.584
REMARK  Name = 190841
REMARK  9 active torsions:
REMARK  status: ('A' for Active; 'I' for Inactive)
REMARK    1  A    between atoms: P_1  and  O_3
REMARK    2  A    between atoms: P_1  and  O_5
REMARK    3  A    between atoms: P_1  and  C_16
REMARK    4  A    between atoms: O_5  and  C_6
REMARK    5  A    between atoms: C_9  and  C_13
REMARK    6  A    between atoms: C_13  and  O_14
REMARK    7  A    between atoms: C_16  and  N_18
REMARK    8  A    between atoms: C_19  and  C_21
REMARK    9  A    between atoms: C_21  and  C_23
REMARK                            x       y       z     vdW  Elec       q    Type
REMARK                         _______ _______ _______ _____ _____    ______ ____
ROOT
ATOM      1  P   UNL     1     -35.526  26.167   3.431  0.00  0.00    +0.408 P 
ATOM      2  O   UNL     1     -34.292  25.676   2.729  0.00  0.00    -0.242 OA
ENDROOT
BRANCH   1   3
ATOM      3  O   UNL     1     -35.319  27.499   4.326  0.00  0.00    -0.314 OA
ATOM      4  H   UNL     1     -34.373  27.639   4.485  0.00  0.00    +0.221 HD
ENDBRANCH   1   3
BRANCH   1   5
ATOM      5  O   UNL     1     -36.231  25.111   4.426  0.00  0.00    -0.421 OA
BRANCH   5   6
ATOM      6  C   UNL     1     -35.847  23.814   4.615  0.00  0.00    +0.147 C 
ATOM      7  C   UNL     1     -35.950  22.902   3.567  0.00  0.00    +0.044 C 
ATOM      8  C   UNL     1     -35.357  23.411   5.854  0.00  0.00    +0.037 C 
ATOM      9  C   UNL     1     -35.559  21.578   3.761  0.00  0.00    +0.078 C 
ATOM     10  C   UNL     1     -34.966  22.085   6.046  0.00  0.00    +0.003 C 
ATOM     11  C   UNL     1     -35.067  21.169   5.000  0.00  0.00    +0.007 C 
BRANCH   9  13
ATOM     12  O   UNL     1     -34.844  20.484   1.756  0.00  0.00    -0.245 OA
ATOM     13  C   UNL     1     -35.665  20.622   2.670  0.00  0.00    +0.338 C 
BRANCH  13  14
ATOM     14  O   UNL     1     -36.793  19.864   2.749  0.00  0.00    -0.477 OA
ATOM     15  H   UNL     1     -37.438  19.911   2.072  0.00  0.00    +0.295 HD
ENDBRANCH  13  14
ENDBRANCH   9  13
ENDBRANCH   5   6
ENDBRANCH   1   5
BRANCH   1  16
ATOM     16  C   UNL     1     -36.841  26.625   2.310  0.00  0.00    +0.220 C 
BRANCH  16  18
ATOM     17  O   UNL     1     -39.537  26.942   1.313  0.00  0.00    -0.275 OA
ATOM     18  N   UNL     1     -37.996  25.819   2.643  0.00  0.00    -0.293 N 
ATOM     19  C   UNL     1     -39.253  26.049   2.110  0.00  0.00    +0.227 C 
ATOM     20  H   UNL     1     -37.883  25.073   3.275  0.00  0.00    +0.150 HD
BRANCH  19  21
ATOM     21  C   UNL     1     -40.278  25.030   2.561  0.00  0.00    +0.111 C 
BRANCH  21  23
ATOM     22  I   UNL     1     -40.467  20.088  -1.436  0.00  0.00    -0.043 I 
ATOM     23  C   UNL     1     -40.322  23.859   1.614  0.00  0.00    -0.013 C 
ATOM     24  C   UNL     1     -41.023  23.972   0.422  0.00  0.00    -0.003 C 
ATOM     25  C   UNL     1     -39.661  22.686   1.948  0.00  0.00    -0.003 C 
ATOM     26  C   UNL     1     -41.064  22.888  -0.454  0.00  0.00    +0.005 C 
ATOM     27  C   UNL     1     -39.702  21.603   1.071  0.00  0.00    +0.005 C 
ATOM     28  C   UNL     1     -40.404  21.704  -0.130  0.00  0.00    +0.030 C 
ENDBRANCH  21  23
ENDBRANCH  19  21
ENDBRANCH  16  18
ENDBRANCH   1  16
TORSDOF 9
ENDMDL
MODEL 6
REMARK VINA RESULT:      -6.5      5.584      8.949
REMARK  Name = 190841
REMARK  9 active torsions:
REMARK  status: ('A' for Active; 'I' for Inactive)
REMARK    1  A    between atoms: P_1  and  O_3
REMARK    2  A    between atoms: P_1  and  O_5
REMARK    3  A    between atoms: P_1  and  C_16
REMARK    4  A    between atoms: O_5  and  C_6
REMARK    5  A    between atoms: C_9  and  C_13
REMARK    6  A    between atoms: C_13  and  O_14
REMARK    7  A    between atoms: C_16  and  N_18
REMARK    8  A    between atoms: C_19  and  C_21
REMARK    9  A    between atoms: C_21  and  C_23
REMARK                            x       y       z     vdW  Elec       q    Type
REMARK                         _______ _______ _______ _____ _____    ______ ____
ROOT
ATOM      1  P   UNL     1     -34.380  26.195   3.968  0.00  0.00    +0.408 P 
ATOM      2  O   UNL     1     -33.107  25.588   3.453  0.00  0.00    -0.242 OA
ENDROOT
BRANCH   1   3
ATOM      3  O   UNL     1     -34.238  26.998   5.365  0.00  0.00    -0.314 OA
ATOM      4  H   UNL     1     -35.101  27.360   5.619  0.00  0.00    +0.221 HD
ENDBRANCH   1   3
BRANCH   1   5
ATOM      5  O   UNL     1     -35.597  25.165   4.210  0.00  0.00    -0.421 OA
BRANCH   5   6
ATOM      6  C   UNL     1     -35.472  23.837   4.508  0.00  0.00    +0.147 C 
ATOM      7  C   UNL     1     -35.562  22.889   3.492  0.00  0.00    +0.044 C 
ATOM      8  C   UNL     1     -35.257  23.440   5.825  0.00  0.00    +0.037 C 
ATOM      9  C   UNL     1     -35.436  21.534   3.797  0.00  0.00    +0.078 C 
ATOM     10  C   UNL     1     -35.131  22.085   6.128  0.00  0.00    +0.003 C 
ATOM     11  C   UNL     1     -35.220  21.131   5.115  0.00  0.00    +0.007 C 
BRANCH   9  13
ATOM     12  O   UNL     1     -34.654  20.303   1.899  0.00  0.00    -0.245 OA
ATOM     13  C   UNL     1     -35.529  20.540   2.739  0.00  0.00    +0.338 C 
BRANCH  13  14
ATOM     14  O   UNL     1     -36.712  19.867   2.760  0.00  0.00    -0.477 OA
ATOM     15  H   UNL     1     -36.811  19.078   2.265  0.00  0.00    +0.295 HD
ENDBRANCH  13  14
ENDBRANCH   9  13
ENDBRANCH   5   6
ENDBRANCH   1   5
BRANCH   1  16
ATOM     16  C   UNL     1     -35.080  27.413   2.863  0.00  0.00    +0.220 C 
BRANCH  16  18
ATOM     17  O   UNL     1     -34.268  29.778   1.409  0.00  0.00    -0.275 OA
ATOM     18  N   UNL     1     -34.787  28.719   3.412  0.00  0.00    -0.293 N 
ATOM     19  C   UNL     1     -34.405  29.796   2.631  0.00  0.00    +0.227 C 
ATOM     20  H   UNL     1     -34.866  28.848   4.386  0.00  0.00    +0.150 HD
BRANCH  19  21
ATOM     21  C   UNL     1     -34.222  31.067   3.433  0.00  0.00    +0.111 C 
BRANCH  21  23
ATOM     22  I   UNL     1     -28.121  31.864   5.039  0.00  0.00    -0.043 I 
ATOM     23  C   UNL     1     -32.776  31.256   3.814  0.00  0.00    -0.013 C 
ATOM     24  C   UNL     1     -31.969  32.081   3.042  0.00  0.00    -0.003 C 
ATOM     25  C   UNL     1     -32.274  30.604   4.930  0.00  0.00    -0.003 C 
ATOM     26  C   UNL     1     -30.632  32.255   3.395  0.00  0.00    +0.005 C 
ATOM     27  C   UNL     1     -30.936  30.780   5.283  0.00  0.00    +0.005 C 
ATOM     28  C   UNL     1     -30.115  31.604   4.515  0.00  0.00    +0.030 C 
ENDBRANCH  21  23
ENDBRANCH  19  21
ENDBRANCH  16  18
ENDBRANCH   1  16
TORSDOF 9
ENDMDL
MODEL 7
REMARK VINA RESULT:      -6.5      1.748      2.051
REMARK  Name = 190841
REMARK  9 active torsions:
REMARK  status: ('A' for Active; 'I' for Inactive)
REMARK    1  A    between atoms: P_1  and  O_3
REMARK    2  A    between atoms: P_1  and  O_5
REMARK    3  A    between atoms: P_1  and  C_16
REMARK    4  A    between atoms: O_5  and  C_6
REMARK    5  A    between atoms: C_9  and  C_13
REMARK    6  A    between atoms: C_13  and  O_14
REMARK    7  A    between atoms: C_16  and  N_18
REMARK    8  A    between atoms: C_19  and  C_21
REMARK    9  A    between atoms: C_21  and  C_23
REMARK                            x       y       z     vdW  Elec       q    Type
REMARK                         _______ _______ _______ _____ _____    ______ ____
ROOT
ATOM      1  P   UNL     1     -36.703  20.886   1.656  0.00  0.00    +0.408 P 
ATOM      2  O   UNL     1     -37.913  21.678   1.252  0.00  0.00    -0.242 OA
ENDROOT
BRANCH   1   3
ATOM      3  O   UNL     1     -36.984  19.709   2.731  0.00  0.00    -0.314 OA
ATOM      4  H   UNL     1     -36.260  19.681   3.376  0.00  0.00    +0.221 HD
ENDBRANCH   1   3
BRANCH   1   5
ATOM      5  O   UNL     1     -35.489  21.737   2.289  0.00  0.00    -0.421 OA
BRANCH   5   6
ATOM      6  C   UNL     1     -35.458  22.270   3.546  0.00  0.00    +0.147 C 
ATOM      7  C   UNL     1     -35.700  23.630   3.728  0.00  0.00    +0.044 C 
ATOM      8  C   UNL     1     -35.183  21.452   4.639  0.00  0.00    +0.037 C 
ATOM      9  C   UNL     1     -35.667  24.173   5.012  0.00  0.00    +0.078 C 
ATOM     10  C   UNL     1     -35.151  21.997   5.922  0.00  0.00    +0.003 C 
ATOM     11  C   UNL     1     -35.393  23.357   6.109  0.00  0.00    +0.007 C 
BRANCH   9  13
ATOM     12  O   UNL     1     -35.158  26.384   5.772  0.00  0.00    -0.245 OA
ATOM     13  C   UNL     1     -35.919  25.592   5.206  0.00  0.00    +0.338 C 
BRANCH  13  14
ATOM     14  O   UNL     1     -37.115  25.985   4.687  0.00  0.00    -0.477 OA
ATOM     15  H   UNL     1     -37.885  25.477   4.849  0.00  0.00    +0.295 HD
ENDBRANCH  13  14
ENDBRANCH   9  13
ENDBRANCH   5   6
ENDBRANCH   1   5
BRANCH   1  16
ATOM     16  C   UNL     1     -35.938  20.021   0.291  0.00  0.00    +0.220 C 
BRANCH  16  18
ATOM     17  O   UNL     1     -33.069  20.358   0.438  0.00  0.00    -0.275 OA
ATOM     18  N   UNL     1     -34.976  19.094   0.847  0.00  0.00    -0.293 N 
ATOM     19  C   UNL     1     -33.615  19.346   0.873  0.00  0.00    +0.227 C 
ATOM     20  H   UNL     1     -35.305  18.247   1.226  0.00  0.00    +0.150 HD
BRANCH  19  21
ATOM     21  C   UNL     1     -32.829  18.254   1.566  0.00  0.00    +0.111 C 
BRANCH  21  23
ATOM     22  I   UNL     1     -28.459  15.789  -2.341  0.00  0.00    -0.043 I 
ATOM     23  C   UNL     1     -31.793  17.670   0.640  0.00  0.00    -0.013 C 
ATOM     24  C   UNL     1     -30.447  17.905   0.886  0.00  0.00    -0.003 C 
ATOM     25  C   UNL     1     -32.200  16.905  -0.443  0.00  0.00    -0.003 C 
ATOM     26  C   UNL     1     -29.490  17.364   0.029  0.00  0.00    +0.005 C 
ATOM     27  C   UNL     1     -31.242  16.363  -1.299  0.00  0.00    +0.005 C 
ATOM     28  C   UNL     1     -29.887  16.594  -1.064  0.00  0.00    +0.030 C 
ENDBRANCH  21  23
ENDBRANCH  19  21
ENDBRANCH  16  18
ENDBRANCH   1  16
TORSDOF 9
ENDMDL
MODEL 8
REMARK VINA RESULT:      -6.4      5.181      8.708
REMARK  Name = 190841
REMARK  9 active torsions:
REMARK  status: ('A' for Active; 'I' for Inactive)
REMARK    1  A    between atoms: P_1  and  O_3
REMARK    2  A    between atoms: P_1  and  O_5
REMARK    3  A    between atoms: P_1  and  C_16
REMARK    4  A    between atoms: O_5  and  C_6
REMARK    5  A    between atoms: C_9  and  C_13
REMARK    6  A    between atoms: C_13  and  O_14
REMARK    7  A    between atoms: C_16  and  N_18
REMARK    8  A    between atoms: C_19  and  C_21
REMARK    9  A    between atoms: C_21  and  C_23
REMARK                            x       y       z     vdW  Elec       q    Type
REMARK                         _______ _______ _______ _____ _____    ______ ____
ROOT
ATOM      1  P   UNL     1     -34.808  26.361   3.596  0.00  0.00    +0.408 P 
ATOM      2  O   UNL     1     -33.448  26.073   4.163  0.00  0.00    -0.242 OA
ENDROOT
BRANCH   1   3
ATOM      3  O   UNL     1     -35.468  27.758   4.078  0.00  0.00    -0.314 OA
ATOM      4  H   UNL     1     -36.409  27.770   3.842  0.00  0.00    +0.221 HD
ENDBRANCH   1   3
BRANCH   1   5
ATOM      5  O   UNL     1     -35.939  25.251   3.894  0.00  0.00    -0.421 OA
BRANCH   5   6
ATOM      6  C   UNL     1     -35.708  23.964   4.291  0.00  0.00    +0.147 C 
ATOM      7  C   UNL     1     -35.734  22.935   3.353  0.00  0.00    +0.044 C 
ATOM      8  C   UNL     1     -35.451  23.688   5.631  0.00  0.00    +0.037 C 
ATOM      9  C   UNL     1     -35.500  21.622   3.759  0.00  0.00    +0.078 C 
ATOM     10  C   UNL     1     -35.217  22.374   6.036  0.00  0.00    +0.003 C 
ATOM     11  C   UNL     1     -35.242  21.340   5.100  0.00  0.00    +0.007 C 
BRANCH   9  13
ATOM     12  O   UNL     1     -34.586  20.217   2.051  0.00  0.00    -0.245 OA
ATOM     13  C   UNL     1     -35.527  20.544   2.782  0.00  0.00    +0.338 C 
BRANCH  13  14
ATOM     14  O   UNL     1     -36.728  19.904   2.746  0.00  0.00    -0.477 OA
ATOM     15  H   UNL     1     -37.311  20.044   2.027  0.00  0.00    +0.295 HD
ENDBRANCH  13  14
ENDBRANCH   9  13
ENDBRANCH   5   6
ENDBRANCH   1   5
BRANCH   1  16
ATOM     16  C   UNL     1     -34.817  26.496   1.814  0.00  0.00    +0.220 C 
BRANCH  16  18
ATOM     17  O   UNL     1     -37.273  27.919   1.257  0.00  0.00    -0.275 OA
ATOM     18  N   UNL     1     -36.065  25.935   1.341  0.00  0.00    -0.293 N 
ATOM     19  C   UNL     1     -37.192  26.702   1.101  0.00  0.00    +0.227 C 
ATOM     20  H   UNL     1     -36.113  24.964   1.181  0.00  0.00    +0.150 HD
BRANCH  19  21
ATOM     21  C   UNL     1     -38.347  25.892   0.550  0.00  0.00    +0.111 C 
BRANCH  21  23
ATOM     22  I   UNL     1     -43.698  27.106   3.764  0.00  0.00    -0.043 I 
ATOM     23  C   UNL     1     -39.615  26.180   1.312  0.00  0.00    -0.013 C 
ATOM     24  C   UNL     1     -39.669  25.915   2.673  0.00  0.00    -0.003 C 
ATOM     25  C   UNL     1     -40.709  26.707   0.640  0.00  0.00    -0.003 C 
ATOM     26  C   UNL     1     -40.842  26.182   3.377  0.00  0.00    +0.005 C 
ATOM     27  C   UNL     1     -41.882  26.974   1.346  0.00  0.00    +0.005 C 
ATOM     28  C   UNL     1     -41.949  26.710   2.713  0.00  0.00    +0.030 C 
ENDBRANCH  21  23
ENDBRANCH  19  21
ENDBRANCH  16  18
ENDBRANCH   1  16
TORSDOF 9
ENDMDL
MODEL 9
REMARK VINA RESULT:      -6.3      5.415      8.441
REMARK  Name = 190841
REMARK  9 active torsions:
REMARK  status: ('A' for Active; 'I' for Inactive)
REMARK    1  A    between atoms: P_1  and  O_3
REMARK    2  A    between atoms: P_1  and  O_5
REMARK    3  A    between atoms: P_1  and  C_16
REMARK    4  A    between atoms: O_5  and  C_6
REMARK    5  A    between atoms: C_9  and  C_13
REMARK    6  A    between atoms: C_13  and  O_14
REMARK    7  A    between atoms: C_16  and  N_18
REMARK    8  A    between atoms: C_19  and  C_21
REMARK    9  A    between atoms: C_21  and  C_23
REMARK                            x       y       z     vdW  Elec       q    Type
REMARK                         _______ _______ _______ _____ _____    ______ ____
ROOT
ATOM      1  P   UNL     1     -36.761  21.911   1.242  0.00  0.00    +0.408 P 
ATOM      2  O   UNL     1     -36.842  20.508   0.714  0.00  0.00    -0.242 OA
ENDROOT
BRANCH   1   3
ATOM      3  O   UNL     1     -36.849  23.071   0.118  0.00  0.00    -0.314 OA
ATOM      4  H   UNL     1     -37.647  22.943  -0.418  0.00  0.00    +0.221 HD
ENDBRANCH   1   3
BRANCH   1   5
ATOM      5  O   UNL     1     -35.435  22.264   2.090  0.00  0.00    -0.421 OA
BRANCH   5   6
ATOM      6  C   UNL     1     -35.402  22.616   3.410  0.00  0.00    +0.147 C 
ATOM      7  C   UNL     1     -35.435  23.962   3.768  0.00  0.00    +0.044 C 
ATOM      8  C   UNL     1     -35.333  21.628   4.388  0.00  0.00    +0.037 C 
ATOM      9  C   UNL     1     -35.399  24.320   5.115  0.00  0.00    +0.078 C 
ATOM     10  C   UNL     1     -35.298  21.989   5.735  0.00  0.00    +0.003 C 
ATOM     11  C   UNL     1     -35.331  23.334   6.099  0.00  0.00    +0.007 C 
BRANCH   9  13
ATOM     12  O   UNL     1     -34.461  26.388   5.869  0.00  0.00    -0.245 OA
ATOM     13  C   UNL     1     -35.433  25.724   5.494  0.00  0.00    +0.338 C 
BRANCH  13  14
ATOM     14  O   UNL     1     -36.680  26.261   5.391  0.00  0.00    -0.477 OA
ATOM     15  H   UNL     1     -37.433  25.704   5.413  0.00  0.00    +0.295 HD
ENDBRANCH  13  14
ENDBRANCH   9  13
ENDBRANCH   5   6
ENDBRANCH   1   5
BRANCH   1  16
ATOM     16  C   UNL     1     -38.092  22.323   2.362  0.00  0.00    +0.220 C 
BRANCH  16  18
ATOM     17  O   UNL     1     -38.767  24.649   3.942  0.00  0.00    -0.275 OA
ATOM     18  N   UNL     1     -38.691  23.554   1.893  0.00  0.00    -0.293 N 
ATOM     19  C   UNL     1     -38.977  24.619   2.731  0.00  0.00    +0.227 C 
ATOM     20  H   UNL     1     -38.902  23.639   0.935  0.00  0.00    +0.150 HD
BRANCH  19  21
ATOM     21  C   UNL     1     -39.538  25.814   1.990  0.00  0.00    +0.111 C 
BRANCH  21  23
ATOM     22  I   UNL     1     -45.752  26.488   3.161  0.00  0.00    -0.043 I 
ATOM     23  C   UNL     1     -41.011  25.973   2.268  0.00  0.00    -0.013 C 
ATOM     24  C   UNL     1     -41.934  25.406   1.401  0.00  0.00    -0.003 C 
ATOM     25  C   UNL     1     -41.421  26.685   3.386  0.00  0.00    -0.003 C 
ATOM     26  C   UNL     1     -43.296  25.554   1.659  0.00  0.00    +0.005 C 
ATOM     27  C   UNL     1     -42.784  26.832   3.643  0.00  0.00    +0.005 C 
ATOM     28  C   UNL     1     -43.721  26.267   2.779  0.00  0.00    +0.030 C 
ENDBRANCH  21  23
ENDBRANCH  19  21
ENDBRANCH  16  18
ENDBRANCH   1  16
TORSDOF 9
ENDMDL
