MODEL 1
REMARK VINA RESULT:      -7.1      0.000      0.000
REMARK  Name = 60201958
REMARK  12 active torsions:
REMARK  status: ('A' for Active; 'I' for Inactive)
REMARK    1  A    between atoms: C_1  and  C_7
REMARK    2  A    between atoms: C_2  and  C_15
REMARK    3  A    between atoms: C_3  and  O_27
REMARK    4  A    between atoms: C_4  and  O_37
REMARK    5  A    between atoms: C_5  and  O_23
REMARK    6  A    between atoms: C_6  and  O_25
REMARK    7  A    between atoms: C_12  and  O_13
REMARK    8  A    between atoms: C_20  and  O_21
REMARK    9  A    between atoms: O_27  and  C_29
REMARK   10  A    between atoms: C_29  and  C_30
REMARK   11  A    between atoms: C_30  and  C_31
REMARK   12  A    between atoms: O_37  and  C_39
REMARK                            x       y       z     vdW  Elec       q    Type
REMARK                         _______ _______ _______ _____ _____    ______ ____
ROOT
ATOM      1  C   UNL     1     -37.091  24.189   2.657  0.00  0.00    +0.074 A 
ATOM      2  C   UNL     1     -35.138  25.727   3.926  0.00  0.00    +0.074 A 
ATOM      3  C   UNL     1     -35.761  24.112   2.240  0.00  0.00    +0.186 A 
ATOM      4  C   UNL     1     -34.786  24.880   2.874  0.00  0.00    +0.186 A 
ATOM      5  C   UNL     1     -37.443  25.036   3.708  0.00  0.00    +0.171 A 
ATOM      6  C   UNL     1     -36.467  25.804   4.342  0.00  0.00    +0.171 A 
ENDROOT
BRANCH   1   7
ATOM      7  C   UNL     1     -38.107  23.391   1.995  0.00  0.00    +0.006 C 
ATOM      8  C   UNL     1     -38.736  23.874   0.848  0.00  0.00    +0.003 C 
ATOM      9  C   UNL     1     -38.455  22.142   2.509  0.00  0.00    +0.003 C 
ATOM     10  C   UNL     1     -39.714  23.107   0.214  0.00  0.00    +0.037 C 
ATOM     11  C   UNL     1     -39.433  21.375   1.875  0.00  0.00    +0.037 C 
ATOM     12  C   UNL     1     -40.063  21.858   0.727  0.00  0.00    +0.134 C 
BRANCH  12  13
ATOM     13  O   UNL     1     -41.018  21.111   0.109  0.00  0.00    -0.506 OA
ATOM     14  H   UNL     1     -40.768  20.406  -0.455  0.00  0.00    +0.292 HD
ENDBRANCH  12  13
ENDBRANCH   1   7
BRANCH   2  15
ATOM     15  C   UNL     1     -34.127  26.526   4.582  0.00  0.00    +0.006 C 
ATOM     16  C   UNL     1     -33.537  27.594   3.908  0.00  0.00    +0.003 C 
ATOM     17  C   UNL     1     -33.744  26.228   5.891  0.00  0.00    +0.003 C 
ATOM     18  C   UNL     1     -32.562  28.366   4.541  0.00  0.00    +0.037 C 
ATOM     19  C   UNL     1     -32.770  27.000   6.523  0.00  0.00    +0.037 C 
ATOM     20  C   UNL     1     -32.179  28.069   5.850  0.00  0.00    +0.134 C 
BRANCH  20  21
ATOM     21  O   UNL     1     -31.229  28.822   6.469  0.00  0.00    -0.506 OA
ATOM     22  H   UNL     1     -30.321  28.632   6.334  0.00  0.00    +0.292 HD
ENDBRANCH  20  21
ENDBRANCH   2  15
BRANCH   5  23
ATOM     23  O   UNL     1     -38.740  25.125   4.125  0.00  0.00    -0.503 OA
ATOM     24  H   UNL     1     -39.115  24.436   4.638  0.00  0.00    +0.292 HD
ENDBRANCH   5  23
BRANCH   6  25
ATOM     25  O   UNL     1     -36.829  26.630   5.368  0.00  0.00    -0.503 OA
ATOM     26  H   UNL     1     -36.200  26.868   6.021  0.00  0.00    +0.292 HD
ENDBRANCH   6  25
BRANCH   3  27
ATOM     27  O   UNL     1     -35.402  23.287   1.213  0.00  0.00    -0.421 OA
BRANCH  27  29
ATOM     28  O   UNL     1     -35.043  21.582   2.770  0.00  0.00    -0.249 OA
ATOM     29  C   UNL     1     -35.099  21.972   1.612  0.00  0.00    +0.326 C 
BRANCH  29  30
ATOM     30  C   UNL     1     -34.859  21.126   0.384  0.00  0.00    +0.136 C 
BRANCH  30  31
ATOM     31  C   UNL     1     -33.635  20.255   0.503  0.00  0.00    -0.011 C 
ATOM     32  C   UNL     1     -32.443  20.640  -0.111  0.00  0.00    -0.004 C 
ATOM     33  C   UNL     1     -33.696  19.064   1.226  0.00  0.00    -0.004 C 
ATOM     34  C   UNL     1     -31.310  19.833  -0.000  0.00  0.00    -0.000 C 
ATOM     35  C   UNL     1     -32.563  18.258   1.336  0.00  0.00    -0.000 C 
ATOM     36  C   UNL     1     -31.370  18.642   0.723  0.00  0.00    -0.000 C 
ENDBRANCH  30  31
ENDBRANCH  29  30
ENDBRANCH  27  29
ENDBRANCH   3  27
BRANCH   4  37
ATOM     37  O   UNL     1     -33.488  24.791   2.456  0.00  0.00    -0.421 OA
BRANCH  37  39
ATOM     38  O   UNL     1     -33.605  26.490   0.850  0.00  0.00    -0.250 OA
ATOM     39  C   UNL     1     -33.252  25.372   1.201  0.00  0.00    +0.322 C 
ATOM     40  C   UNL     1     -32.500  24.411   0.329  0.00  0.00    +0.122 C 
ENDBRANCH  37  39
ENDBRANCH   4  37
TORSDOF 12
ENDMDL
MODEL 2
REMARK VINA RESULT:      -6.9      3.215      8.295
REMARK  Name = 60201958
REMARK  12 active torsions:
REMARK  status: ('A' for Active; 'I' for Inactive)
REMARK    1  A    between atoms: C_1  and  C_7
REMARK    2  A    between atoms: C_2  and  C_15
REMARK    3  A    between atoms: C_3  and  O_27
REMARK    4  A    between atoms: C_4  and  O_37
REMARK    5  A    between atoms: C_5  and  O_23
REMARK    6  A    between atoms: C_6  and  O_25
REMARK    7  A    between atoms: C_12  and  O_13
REMARK    8  A    between atoms: C_20  and  O_21
REMARK    9  A    between atoms: O_27  and  C_29
REMARK   10  A    between atoms: C_29  and  C_30
REMARK   11  A    between atoms: C_30  and  C_31
REMARK   12  A    between atoms: O_37  and  C_39
REMARK                            x       y       z     vdW  Elec       q    Type
REMARK                         _______ _______ _______ _____ _____    ______ ____
ROOT
ATOM      1  C   UNL     1     -35.249  27.885   2.333  0.00  0.00    +0.074 A 
ATOM      2  C   UNL     1     -36.860  25.608   2.250  0.00  0.00    +0.074 A 
ATOM      3  C   UNL     1     -35.353  27.062   3.455  0.00  0.00    +0.186 A 
ATOM      4  C   UNL     1     -36.158  25.924   3.414  0.00  0.00    +0.186 A 
ATOM      5  C   UNL     1     -35.953  27.569   1.171  0.00  0.00    +0.171 A 
ATOM      6  C   UNL     1     -36.757  26.432   1.130  0.00  0.00    +0.171 A 
ENDROOT
BRANCH   1   7
ATOM      7  C   UNL     1     -34.412  29.071   2.377  0.00  0.00    +0.006 C 
ATOM      8  C   UNL     1     -34.899  30.247   2.947  0.00  0.00    +0.003 C 
ATOM      9  C   UNL     1     -33.123  29.034   1.845  0.00  0.00    +0.003 C 
ATOM     10  C   UNL     1     -34.095  31.386   2.987  0.00  0.00    +0.037 C 
ATOM     11  C   UNL     1     -32.320  30.173   1.885  0.00  0.00    +0.037 C 
ATOM     12  C   UNL     1     -32.805  31.350   2.456  0.00  0.00    +0.134 C 
BRANCH  12  13
ATOM     13  O   UNL     1     -32.022  32.462   2.494  0.00  0.00    -0.506 OA
ATOM     14  H   UNL     1     -32.412  33.306   2.606  0.00  0.00    +0.292 HD
ENDBRANCH  12  13
ENDBRANCH   1   7
BRANCH   2  15
ATOM     15  C   UNL     1     -37.698  24.430   2.208  0.00  0.00    +0.006 C 
ATOM     16  C   UNL     1     -39.022  24.499   2.640  0.00  0.00    +0.003 C 
ATOM     17  C   UNL     1     -37.181  23.224   1.732  0.00  0.00    +0.003 C 
ATOM     18  C   UNL     1     -39.830  23.363   2.598  0.00  0.00    +0.037 C 
ATOM     19  C   UNL     1     -37.989  22.088   1.690  0.00  0.00    +0.037 C 
ATOM     20  C   UNL     1     -39.313  22.157   2.122  0.00  0.00    +0.134 C 
BRANCH  20  21
ATOM     21  O   UNL     1     -40.101  21.048   2.080  0.00  0.00    -0.506 OA
ATOM     22  H   UNL     1     -39.782  20.262   1.681  0.00  0.00    +0.292 HD
ENDBRANCH  20  21
ENDBRANCH   2  15
BRANCH   5  23
ATOM     23  O   UNL     1     -35.864  28.367   0.066  0.00  0.00    -0.503 OA
ATOM     24  H   UNL     1     -35.044  28.756  -0.167  0.00  0.00    +0.292 HD
ENDBRANCH   5  23
BRANCH   6  25
ATOM     25  O   UNL     1     -37.441  26.138  -0.016  0.00  0.00    -0.503 OA
ATOM     26  H   UNL     1     -37.001  26.160  -0.843  0.00  0.00    +0.292 HD
ENDBRANCH   6  25
BRANCH   3  27
ATOM     27  O   UNL     1     -34.669  27.358   4.599  0.00  0.00    -0.421 OA
BRANCH  27  29
ATOM     28  O   UNL     1     -32.812  26.236   3.730  0.00  0.00    -0.249 OA
ATOM     29  C   UNL     1     -33.328  26.933   4.593  0.00  0.00    +0.326 C 
BRANCH  29  30
ATOM     30  C   UNL     1     -32.631  27.478   5.818  0.00  0.00    +0.136 C 
BRANCH  30  31
ATOM     31  C   UNL     1     -31.748  28.661   5.513  0.00  0.00    -0.011 C 
ATOM     32  C   UNL     1     -30.540  28.475   4.841  0.00  0.00    -0.004 C 
ATOM     33  C   UNL     1     -32.141  29.941   5.902  0.00  0.00    -0.004 C 
ATOM     34  C   UNL     1     -29.724  29.570   4.558  0.00  0.00    -0.000 C 
ATOM     35  C   UNL     1     -31.324  31.036   5.619  0.00  0.00    -0.000 C 
ATOM     36  C   UNL     1     -30.116  30.851   4.948  0.00  0.00    -0.000 C 
ENDBRANCH  30  31
ENDBRANCH  29  30
ENDBRANCH  27  29
ENDBRANCH   3  27
BRANCH   4  37
ATOM     37  O   UNL     1     -36.246  25.127   4.519  0.00  0.00    -0.421 OA
BRANCH  37  39
ATOM     38  O   UNL     1     -34.545  23.786   3.633  0.00  0.00    -0.250 OA
ATOM     39  C   UNL     1     -35.370  24.031   4.503  0.00  0.00    +0.322 C 
ATOM     40  C   UNL     1     -35.594  23.181   5.718  0.00  0.00    +0.122 C 
ENDBRANCH  37  39
ENDBRANCH   4  37
TORSDOF 12
ENDMDL
MODEL 3
REMARK VINA RESULT:      -6.9      2.772      8.365
REMARK  Name = 60201958
REMARK  12 active torsions:
REMARK  status: ('A' for Active; 'I' for Inactive)
REMARK    1  A    between atoms: C_1  and  C_7
REMARK    2  A    between atoms: C_2  and  C_15
REMARK    3  A    between atoms: C_3  and  O_27
REMARK    4  A    between atoms: C_4  and  O_37
REMARK    5  A    between atoms: C_5  and  O_23
REMARK    6  A    between atoms: C_6  and  O_25
REMARK    7  A    between atoms: C_12  and  O_13
REMARK    8  A    between atoms: C_20  and  O_21
REMARK    9  A    between atoms: O_27  and  C_29
REMARK   10  A    between atoms: C_29  and  C_30
REMARK   11  A    between atoms: C_30  and  C_31
REMARK   12  A    between atoms: O_37  and  C_39
REMARK                            x       y       z     vdW  Elec       q    Type
REMARK                         _______ _______ _______ _____ _____    ______ ____
ROOT
ATOM      1  C   UNL     1     -34.861  27.809   2.253  0.00  0.00    +0.074 A 
ATOM      2  C   UNL     1     -35.465  25.085   2.252  0.00  0.00    +0.074 A 
ATOM      3  C   UNL     1     -34.536  27.021   3.359  0.00  0.00    +0.186 A 
ATOM      4  C   UNL     1     -34.838  25.660   3.359  0.00  0.00    +0.186 A 
ATOM      5  C   UNL     1     -35.488  27.233   1.149  0.00  0.00    +0.171 A 
ATOM      6  C   UNL     1     -35.790  25.872   1.148  0.00  0.00    +0.171 A 
ENDROOT
BRANCH   1   7
ATOM      7  C   UNL     1     -34.548  29.227   2.254  0.00  0.00    +0.006 C 
ATOM      8  C   UNL     1     -35.444  30.138   2.813  0.00  0.00    +0.003 C 
ATOM      9  C   UNL     1     -33.353  29.677   1.694  0.00  0.00    +0.003 C 
ATOM     10  C   UNL     1     -35.144  31.500   2.812  0.00  0.00    +0.037 C 
ATOM     11  C   UNL     1     -33.053  31.039   1.693  0.00  0.00    +0.037 C 
ATOM     12  C   UNL     1     -33.948  31.951   2.252  0.00  0.00    +0.134 C 
BRANCH  12  13
ATOM     13  O   UNL     1     -33.657  33.281   2.250  0.00  0.00    -0.506 OA
ATOM     14  H   UNL     1     -34.215  33.883   2.700  0.00  0.00    +0.292 HD
ENDBRANCH  12  13
ENDBRANCH   1   7
BRANCH   2  15
ATOM     15  C   UNL     1     -35.781  23.673   2.253  0.00  0.00    +0.006 C 
ATOM     16  C   UNL     1     -37.054  23.244   2.626  0.00  0.00    +0.003 C 
ATOM     17  C   UNL     1     -34.812  22.742   1.877  0.00  0.00    +0.003 C 
ATOM     18  C   UNL     1     -37.359  21.883   2.625  0.00  0.00    +0.037 C 
ATOM     19  C   UNL     1     -35.117  21.381   1.877  0.00  0.00    +0.037 C 
ATOM     20  C   UNL     1     -36.390  20.951   2.249  0.00  0.00    +0.134 C 
BRANCH  20  21
ATOM     21  O   UNL     1     -36.688  19.623   2.248  0.00  0.00    -0.506 OA
ATOM     22  H   UNL     1     -37.170  19.252   1.535  0.00  0.00    +0.292 HD
ENDBRANCH  20  21
ENDBRANCH   2  15
BRANCH   5  23
ATOM     23  O   UNL     1     -35.814  27.991   0.060  0.00  0.00    -0.503 OA
ATOM     24  H   UNL     1     -35.556  28.891   0.022  0.00  0.00    +0.292 HD
ENDBRANCH   5  23
BRANCH   6  25
ATOM     25  O   UNL     1     -36.406  25.324   0.059  0.00  0.00    -0.503 OA
ATOM     26  H   UNL     1     -36.717  24.441   0.092  0.00  0.00    +0.292 HD
ENDBRANCH   6  25
BRANCH   3  27
ATOM     27  O   UNL     1     -33.921  27.571   4.447  0.00  0.00    -0.421 OA
BRANCH  27  29
ATOM     28  O   UNL     1     -31.859  27.000   3.507  0.00  0.00    -0.249 OA
ATOM     29  C   UNL     1     -32.517  27.496   4.412  0.00  0.00    +0.326 C 
BRANCH  29  30
ATOM     30  C   UNL     1     -31.957  28.125   5.666  0.00  0.00    +0.136 C 
BRANCH  30  31
ATOM     31  C   UNL     1     -31.155  29.370   5.389  0.00  0.00    -0.011 C 
ATOM     32  C   UNL     1     -29.762  29.335   5.467  0.00  0.00    -0.004 C 
ATOM     33  C   UNL     1     -31.806  30.557   5.054  0.00  0.00    -0.004 C 
ATOM     34  C   UNL     1     -29.020  30.488   5.210  0.00  0.00    -0.000 C 
ATOM     35  C   UNL     1     -31.063  31.710   4.796  0.00  0.00    -0.000 C 
ATOM     36  C   UNL     1     -29.671  31.676   4.875  0.00  0.00    -0.000 C 
ENDBRANCH  30  31
ENDBRANCH  29  30
ENDBRANCH  27  29
ENDBRANCH   3  27
BRANCH   4  37
ATOM     37  O   UNL     1     -34.512  24.902   4.447  0.00  0.00    -0.421 OA
BRANCH  37  39
ATOM     38  O   UNL     1     -36.318  25.673   5.720  0.00  0.00    -0.250 OA
ATOM     39  C   UNL     1     -35.544  24.785   5.390  0.00  0.00    +0.322 C 
ATOM     40  C   UNL     1     -35.562  23.396   5.955  0.00  0.00    +0.122 C 
ENDBRANCH  37  39
ENDBRANCH   4  37
TORSDOF 12
ENDMDL
MODEL 4
REMARK VINA RESULT:      -6.8      2.772      6.530
REMARK  Name = 60201958
REMARK  12 active torsions:
REMARK  status: ('A' for Active; 'I' for Inactive)
REMARK    1  A    between atoms: C_1  and  C_7
REMARK    2  A    between atoms: C_2  and  C_15
REMARK    3  A    between atoms: C_3  and  O_27
REMARK    4  A    between atoms: C_4  and  O_37
REMARK    5  A    between atoms: C_5  and  O_23
REMARK    6  A    between atoms: C_6  and  O_25
REMARK    7  A    between atoms: C_12  and  O_13
REMARK    8  A    between atoms: C_20  and  O_21
REMARK    9  A    between atoms: O_27  and  C_29
REMARK   10  A    between atoms: C_29  and  C_30
REMARK   11  A    between atoms: C_30  and  C_31
REMARK   12  A    between atoms: O_37  and  C_39
REMARK                            x       y       z     vdW  Elec       q    Type
REMARK                         _______ _______ _______ _____ _____    ______ ____
ROOT
ATOM      1  C   UNL     1     -37.509  22.023   0.593  0.00  0.00    +0.074 A 
ATOM      2  C   UNL     1     -35.437  20.155   0.513  0.00  0.00    +0.074 A 
ATOM      3  C   UNL     1     -36.183  22.453   0.537  0.00  0.00    +0.186 A 
ATOM      4  C   UNL     1     -35.148  21.520   0.497  0.00  0.00    +0.186 A 
ATOM      5  C   UNL     1     -37.798  20.658   0.610  0.00  0.00    +0.171 A 
ATOM      6  C   UNL     1     -36.763  19.725   0.570  0.00  0.00    +0.171 A 
ENDROOT
BRANCH   1   7
ATOM      7  C   UNL     1     -38.587  22.994   0.637  0.00  0.00    +0.006 C 
ATOM      8  C   UNL     1     -39.215  23.285   1.847  0.00  0.00    +0.003 C 
ATOM      9  C   UNL     1     -38.995  23.635  -0.533  0.00  0.00    +0.003 C 
ATOM     10  C   UNL     1     -40.252  24.217   1.888  0.00  0.00    +0.037 C 
ATOM     11  C   UNL     1     -40.031  24.567  -0.492  0.00  0.00    +0.037 C 
ATOM     12  C   UNL     1     -40.661  24.858   0.718  0.00  0.00    +0.134 C 
BRANCH  12  13
ATOM     13  O   UNL     1     -41.673  25.767   0.759  0.00  0.00    -0.506 OA
ATOM     14  H   UNL     1     -41.534  26.607   1.149  0.00  0.00    +0.292 HD
ENDBRANCH  12  13
ENDBRANCH   1   7
BRANCH   2  15
ATOM     15  C   UNL     1     -34.364  19.186   0.474  0.00  0.00    +0.006 C 
ATOM     16  C   UNL     1     -34.151  18.427  -0.676  0.00  0.00    +0.003 C 
ATOM     17  C   UNL     1     -33.539  19.014   1.587  0.00  0.00    +0.003 C 
ATOM     18  C   UNL     1     -33.115  17.494  -0.714  0.00  0.00    +0.037 C 
ATOM     19  C   UNL     1     -32.503  18.082   1.548  0.00  0.00    +0.037 C 
ATOM     20  C   UNL     1     -32.290  17.322   0.398  0.00  0.00    +0.134 C 
BRANCH  20  21
ATOM     21  O   UNL     1     -31.278  16.413   0.362  0.00  0.00    -0.506 OA
ATOM     22  H   UNL     1     -31.184  15.789   1.054  0.00  0.00    +0.292 HD
ENDBRANCH  20  21
ENDBRANCH   2  15
BRANCH   5  23
ATOM     23  O   UNL     1     -39.091  20.221   0.668  0.00  0.00    -0.503 OA
ATOM     24  H   UNL     1     -39.786  20.776   0.373  0.00  0.00    +0.292 HD
ENDBRANCH   5  23
BRANCH   6  25
ATOM     25  O   UNL     1     -37.063  18.393   0.590  0.00  0.00    -0.503 OA
ATOM     26  H   UNL     1     -37.769  18.064   0.068  0.00  0.00    +0.292 HD
ENDBRANCH   6  25
BRANCH   3  27
ATOM     27  O   UNL     1     -35.885  23.785   0.518  0.00  0.00    -0.421 OA
BRANCH  27  29
ATOM     28  O   UNL     1     -34.055  24.554   1.751  0.00  0.00    -0.249 OA
ATOM     29  C   UNL     1     -35.236  24.245   1.679  0.00  0.00    +0.326 C 
BRANCH  29  30
ATOM     30  C   UNL     1     -36.232  24.297   2.814  0.00  0.00    +0.136 C 
BRANCH  30  31
ATOM     31  C   UNL     1     -35.815  23.462   3.997  0.00  0.00    -0.011 C 
ATOM     32  C   UNL     1     -35.621  22.088   3.849  0.00  0.00    -0.004 C 
ATOM     33  C   UNL     1     -35.624  24.064   5.241  0.00  0.00    -0.004 C 
ATOM     34  C   UNL     1     -35.235  21.317   4.945  0.00  0.00    -0.000 C 
ATOM     35  C   UNL     1     -35.238  23.292   6.336  0.00  0.00    -0.000 C 
ATOM     36  C   UNL     1     -35.044  21.919   6.189  0.00  0.00    -0.000 C 
ENDBRANCH  30  31
ENDBRANCH  29  30
ENDBRANCH  27  29
ENDBRANCH   3  27
BRANCH   4  37
ATOM     37  O   UNL     1     -33.855  21.957   0.439  0.00  0.00    -0.421 OA
BRANCH  37  39
ATOM     38  O   UNL     1     -33.929  22.260  -1.881  0.00  0.00    -0.250 OA
ATOM     39  C   UNL     1     -33.319  21.980  -0.857  0.00  0.00    +0.322 C 
ATOM     40  C   UNL     1     -31.868  21.600  -0.816  0.00  0.00    +0.122 C 
ENDBRANCH  37  39
ENDBRANCH   4  37
TORSDOF 12
ENDMDL
MODEL 5
REMARK VINA RESULT:      -6.6      2.743      7.883
REMARK  Name = 60201958
REMARK  12 active torsions:
REMARK  status: ('A' for Active; 'I' for Inactive)
REMARK    1  A    between atoms: C_1  and  C_7
REMARK    2  A    between atoms: C_2  and  C_15
REMARK    3  A    between atoms: C_3  and  O_27
REMARK    4  A    between atoms: C_4  and  O_37
REMARK    5  A    between atoms: C_5  and  O_23
REMARK    6  A    between atoms: C_6  and  O_25
REMARK    7  A    between atoms: C_12  and  O_13
REMARK    8  A    between atoms: C_20  and  O_21
REMARK    9  A    between atoms: O_27  and  C_29
REMARK   10  A    between atoms: C_29  and  C_30
REMARK   11  A    between atoms: C_30  and  C_31
REMARK   12  A    between atoms: O_37  and  C_39
REMARK                            x       y       z     vdW  Elec       q    Type
REMARK                         _______ _______ _______ _____ _____    ______ ____
ROOT
ATOM      1  C   UNL     1     -35.711  21.794   1.708  0.00  0.00    +0.074 A 
ATOM      2  C   UNL     1     -35.198  19.657  -0.012  0.00  0.00    +0.074 A 
ATOM      3  C   UNL     1     -34.601  21.829   0.863  0.00  0.00    +0.186 A 
ATOM      4  C   UNL     1     -34.345  20.762   0.003  0.00  0.00    +0.186 A 
ATOM      5  C   UNL     1     -36.563  20.689   1.693  0.00  0.00    +0.171 A 
ATOM      6  C   UNL     1     -36.306  19.622   0.834  0.00  0.00    +0.171 A 
ENDROOT
BRANCH   1   7
ATOM      7  C   UNL     1     -35.977  22.904   2.605  0.00  0.00    +0.006 C 
ATOM      8  C   UNL     1     -35.376  22.945   3.863  0.00  0.00    +0.003 C 
ATOM      9  C   UNL     1     -36.836  23.929   2.208  0.00  0.00    +0.003 C 
ATOM     10  C   UNL     1     -35.634  24.011   4.724  0.00  0.00    +0.037 C 
ATOM     11  C   UNL     1     -37.094  24.995   3.069  0.00  0.00    +0.037 C 
ATOM     12  C   UNL     1     -36.493  25.037   4.328  0.00  0.00    +0.134 C 
BRANCH  12  13
ATOM     13  O   UNL     1     -36.745  26.076   5.170  0.00  0.00    -0.506 OA
ATOM     14  H   UNL     1     -36.812  26.947   4.831  0.00  0.00    +0.292 HD
ENDBRANCH  12  13
ENDBRANCH   1   7
BRANCH   2  15
ATOM     15  C   UNL     1     -34.931  18.549  -0.901  0.00  0.00    +0.006 C 
ATOM     16  C   UNL     1     -34.225  17.438  -0.439  0.00  0.00    +0.003 C 
ATOM     17  C   UNL     1     -35.381  18.590  -2.221  0.00  0.00    +0.003 C 
ATOM     18  C   UNL     1     -33.969  16.368  -1.296  0.00  0.00    +0.037 C 
ATOM     19  C   UNL     1     -35.124  17.520  -3.078  0.00  0.00    +0.037 C 
ATOM     20  C   UNL     1     -34.419  16.408  -2.617  0.00  0.00    +0.134 C 
BRANCH  20  21
ATOM     21  O   UNL     1     -34.169  15.365  -3.453  0.00  0.00    -0.506 OA
ATOM     22  H   UNL     1     -33.795  14.574  -3.117  0.00  0.00    +0.292 HD
ENDBRANCH  20  21
ENDBRANCH   2  15
BRANCH   5  23
ATOM     23  O   UNL     1     -37.651  20.638   2.517  0.00  0.00    -0.503 OA
ATOM     24  H   UNL     1     -38.500  20.856   2.185  0.00  0.00    +0.292 HD
ENDBRANCH   5  23
BRANCH   6  25
ATOM     25  O   UNL     1     -37.149  18.547   0.833  0.00  0.00    -0.503 OA
ATOM     26  H   UNL     1     -38.043  18.652   1.095  0.00  0.00    +0.292 HD
ENDBRANCH   6  25
BRANCH   3  27
ATOM     27  O   UNL     1     -33.760  22.904   0.866  0.00  0.00    -0.421 OA
BRANCH  27  29
ATOM     28  O   UNL     1     -35.003  23.822  -0.887  0.00  0.00    -0.249 OA
ATOM     29  C   UNL     1     -34.094  23.898  -0.072  0.00  0.00    +0.326 C 
BRANCH  29  30
ATOM     30  C   UNL     1     -33.154  25.069   0.092  0.00  0.00    +0.136 C 
BRANCH  30  31
ATOM     31  C   UNL     1     -33.550  25.984   1.222  0.00  0.00    -0.011 C 
ATOM     32  C   UNL     1     -32.920  25.877   2.462  0.00  0.00    -0.004 C 
ATOM     33  C   UNL     1     -34.548  26.940   1.027  0.00  0.00    -0.004 C 
ATOM     34  C   UNL     1     -33.286  26.725   3.507  0.00  0.00    -0.000 C 
ATOM     35  C   UNL     1     -34.914  27.788   2.072  0.00  0.00    -0.000 C 
ATOM     36  C   UNL     1     -34.284  27.680   3.311  0.00  0.00    -0.000 C 
ENDBRANCH  30  31
ENDBRANCH  29  30
ENDBRANCH  27  29
ENDBRANCH   3  27
BRANCH   4  37
ATOM     37  O   UNL     1     -33.256  20.813  -0.820  0.00  0.00    -0.421 OA
BRANCH  37  39
ATOM     38  O   UNL     1     -31.904  19.699   0.731  0.00  0.00    -0.250 OA
ATOM     39  C   UNL     1     -32.046  20.497  -0.185  0.00  0.00    +0.322 C 
ATOM     40  C   UNL     1     -30.930  21.295  -0.791  0.00  0.00    +0.122 C 
ENDBRANCH  37  39
ENDBRANCH   4  37
TORSDOF 12
ENDMDL
MODEL 6
REMARK VINA RESULT:      -6.6      3.716      8.082
REMARK  Name = 60201958
REMARK  12 active torsions:
REMARK  status: ('A' for Active; 'I' for Inactive)
REMARK    1  A    between atoms: C_1  and  C_7
REMARK    2  A    between atoms: C_2  and  C_15
REMARK    3  A    between atoms: C_3  and  O_27
REMARK    4  A    between atoms: C_4  and  O_37
REMARK    5  A    between atoms: C_5  and  O_23
REMARK    6  A    between atoms: C_6  and  O_25
REMARK    7  A    between atoms: C_12  and  O_13
REMARK    8  A    between atoms: C_20  and  O_21
REMARK    9  A    between atoms: O_27  and  C_29
REMARK   10  A    between atoms: C_29  and  C_30
REMARK   11  A    between atoms: C_30  and  C_31
REMARK   12  A    between atoms: O_37  and  C_39
REMARK                            x       y       z     vdW  Elec       q    Type
REMARK                         _______ _______ _______ _____ _____    ______ ____
ROOT
ATOM      1  C   UNL     1     -35.553  28.243   2.150  0.00  0.00    +0.074 A 
ATOM      2  C   UNL     1     -35.467  25.721   3.340  0.00  0.00    +0.074 A 
ATOM      3  C   UNL     1     -34.441  27.864   2.903  0.00  0.00    +0.186 A 
ATOM      4  C   UNL     1     -34.398  26.604   3.498  0.00  0.00    +0.186 A 
ATOM      5  C   UNL     1     -36.622  27.360   1.994  0.00  0.00    +0.171 A 
ATOM      6  C   UNL     1     -36.578  26.100   2.589  0.00  0.00    +0.171 A 
ENDROOT
BRANCH   1   7
ATOM      7  C   UNL     1     -35.600  29.556   1.532  0.00  0.00    +0.006 C 
ATOM      8  C   UNL     1     -35.281  29.704   0.182  0.00  0.00    +0.003 C 
ATOM      9  C   UNL     1     -35.960  30.670   2.290  0.00  0.00    +0.003 C 
ATOM     10  C   UNL     1     -35.324  30.965  -0.410  0.00  0.00    +0.037 C 
ATOM     11  C   UNL     1     -36.003  31.932   1.698  0.00  0.00    +0.037 C 
ATOM     12  C   UNL     1     -35.684  32.080   0.347  0.00  0.00    +0.134 C 
BRANCH  12  13
ATOM     13  O   UNL     1     -35.724  33.312  -0.231  0.00  0.00    -0.506 OA
ATOM     14  H   UNL     1     -34.981  33.633  -0.702  0.00  0.00    +0.292 HD
ENDBRANCH  12  13
ENDBRANCH   1   7
BRANCH   2  15
ATOM     15  C   UNL     1     -35.423  24.415   3.960  0.00  0.00    +0.006 C 
ATOM     16  C   UNL     1     -35.694  24.279   5.321  0.00  0.00    +0.003 C 
ATOM     17  C   UNL     1     -35.113  23.290   3.194  0.00  0.00    +0.003 C 
ATOM     18  C   UNL     1     -35.653  23.019   5.918  0.00  0.00    +0.037 C 
ATOM     19  C   UNL     1     -35.072  22.031   3.791  0.00  0.00    +0.037 C 
ATOM     20  C   UNL     1     -35.343  21.894   5.153  0.00  0.00    +0.134 C 
BRANCH  20  21
ATOM     21  O   UNL     1     -35.304  20.664   5.734  0.00  0.00    -0.506 OA
ATOM     22  H   UNL     1     -35.958  20.027   5.525  0.00  0.00    +0.292 HD
ENDBRANCH  20  21
ENDBRANCH   2  15
BRANCH   5  23
ATOM     23  O   UNL     1     -37.719  27.718   1.263  0.00  0.00    -0.503 OA
ATOM     24  H   UNL     1     -37.892  27.298   0.443  0.00  0.00    +0.292 HD
ENDBRANCH   5  23
BRANCH   6  25
ATOM     25  O   UNL     1     -37.634  25.248   2.428  0.00  0.00    -0.503 OA
ATOM     26  H   UNL     1     -37.502  24.409   2.033  0.00  0.00    +0.292 HD
ENDBRANCH   6  25
BRANCH   3  27
ATOM     27  O   UNL     1     -33.388  28.718   3.063  0.00  0.00    -0.421 OA
BRANCH  27  29
ATOM     28  O   UNL     1     -32.410  27.791   1.154  0.00  0.00    -0.249 OA
ATOM     29  C   UNL     1     -32.399  28.603   2.069  0.00  0.00    +0.326 C 
BRANCH  29  30
ATOM     30  C   UNL     1     -31.329  29.641   2.313  0.00  0.00    +0.136 C 
BRANCH  30  31
ATOM     31  C   UNL     1     -31.748  31.025   1.887  0.00  0.00    -0.011 C 
ATOM     32  C   UNL     1     -31.672  31.395   0.544  0.00  0.00    -0.004 C 
ATOM     33  C   UNL     1     -32.211  31.936   2.837  0.00  0.00    -0.004 C 
ATOM     34  C   UNL     1     -32.060  32.676   0.151  0.00  0.00    -0.000 C 
ATOM     35  C   UNL     1     -32.599  33.216   2.443  0.00  0.00    -0.000 C 
ATOM     36  C   UNL     1     -32.523  33.586   1.101  0.00  0.00    -0.000 C 
ENDBRANCH  30  31
ENDBRANCH  29  30
ENDBRANCH  27  29
ENDBRANCH   3  27
BRANCH   4  37
ATOM     37  O   UNL     1     -33.301  26.247   4.229  0.00  0.00    -0.421 OA
BRANCH  37  39
ATOM     38  O   UNL     1     -34.077  26.557   6.415  0.00  0.00    -0.250 OA
ATOM     39  C   UNL     1     -33.275  26.792   5.521  0.00  0.00    +0.322 C 
ATOM     40  C   UNL     1     -32.110  27.727   5.657  0.00  0.00    +0.122 C 
ENDBRANCH  37  39
ENDBRANCH   4  37
TORSDOF 12
ENDMDL
MODEL 7
REMARK VINA RESULT:      -6.5      3.074      5.738
REMARK  Name = 60201958
REMARK  12 active torsions:
REMARK  status: ('A' for Active; 'I' for Inactive)
REMARK    1  A    between atoms: C_1  and  C_7
REMARK    2  A    between atoms: C_2  and  C_15
REMARK    3  A    between atoms: C_3  and  O_27
REMARK    4  A    between atoms: C_4  and  O_37
REMARK    5  A    between atoms: C_5  and  O_23
REMARK    6  A    between atoms: C_6  and  O_25
REMARK    7  A    between atoms: C_12  and  O_13
REMARK    8  A    between atoms: C_20  and  O_21
REMARK    9  A    between atoms: O_27  and  C_29
REMARK   10  A    between atoms: C_29  and  C_30
REMARK   11  A    between atoms: C_30  and  C_31
REMARK   12  A    between atoms: O_37  and  C_39
REMARK                            x       y       z     vdW  Elec       q    Type
REMARK                         _______ _______ _______ _____ _____    ______ ____
ROOT
ATOM      1  C   UNL     1     -35.235  25.826   3.484  0.00  0.00    +0.074 A 
ATOM      2  C   UNL     1     -35.110  28.398   2.407  0.00  0.00    +0.074 A 
ATOM      3  C   UNL     1     -36.160  26.224   2.518  0.00  0.00    +0.186 A 
ATOM      4  C   UNL     1     -36.098  27.509   1.979  0.00  0.00    +0.186 A 
ATOM      5  C   UNL     1     -34.250  26.715   3.912  0.00  0.00    +0.171 A 
ATOM      6  C   UNL     1     -34.187  28.000   3.374  0.00  0.00    +0.171 A 
ENDROOT
BRANCH   1   7
ATOM      7  C   UNL     1     -35.302  24.489   4.046  0.00  0.00    +0.006 C 
ATOM      8  C   UNL     1     -35.545  24.316   5.408  0.00  0.00    +0.003 C 
ATOM      9  C   UNL     1     -35.118  23.378   3.223  0.00  0.00    +0.003 C 
ATOM     10  C   UNL     1     -35.607  23.031   5.947  0.00  0.00    +0.037 C 
ATOM     11  C   UNL     1     -35.180  22.093   3.762  0.00  0.00    +0.037 C 
ATOM     12  C   UNL     1     -35.424  21.919   5.125  0.00  0.00    +0.134 C 
BRANCH  12  13
ATOM     13  O   UNL     1     -35.483  20.666   5.652  0.00  0.00    -0.506 OA
ATOM     14  H   UNL     1     -36.100  20.046   5.317  0.00  0.00    +0.292 HD
ENDBRANCH  12  13
ENDBRANCH   1   7
BRANCH   2  15
ATOM     15  C   UNL     1     -35.047  29.731   1.851  0.00  0.00    +0.006 C 
ATOM     16  C   UNL     1     -35.781  30.765   2.433  0.00  0.00    +0.003 C 
ATOM     17  C   UNL     1     -34.249  29.984   0.735  0.00  0.00    +0.003 C 
ATOM     18  C   UNL     1     -35.719  32.051   1.898  0.00  0.00    +0.037 C 
ATOM     19  C   UNL     1     -34.187  31.270   0.200  0.00  0.00    +0.037 C 
ATOM     20  C   UNL     1     -34.921  32.305   0.781  0.00  0.00    +0.134 C 
BRANCH  20  21
ATOM     21  O   UNL     1     -34.859  33.560   0.259  0.00  0.00    -0.506 OA
ATOM     22  H   UNL     1     -35.618  34.109   0.270  0.00  0.00    +0.292 HD
ENDBRANCH  20  21
ENDBRANCH   2  15
BRANCH   5  23
ATOM     23  O   UNL     1     -33.339  26.342   4.859  0.00  0.00    -0.503 OA
ATOM     24  H   UNL     1     -33.027  25.459   4.886  0.00  0.00    +0.292 HD
ENDBRANCH   5  23
BRANCH   6  25
ATOM     25  O   UNL     1     -33.217  28.859   3.805  0.00  0.00    -0.503 OA
ATOM     26  H   UNL     1     -33.154  29.075   4.715  0.00  0.00    +0.292 HD
ENDBRANCH   6  25
BRANCH   3  27
ATOM     27  O   UNL     1     -37.130  25.365   2.088  0.00  0.00    -0.421 OA
BRANCH  27  29
ATOM     28  O   UNL     1     -38.962  26.535   2.945  0.00  0.00    -0.249 OA
ATOM     29  C   UNL     1     -38.352  25.488   2.774  0.00  0.00    +0.326 C 
BRANCH  29  30
ATOM     30  C   UNL     1     -38.786  24.125   3.260  0.00  0.00    +0.136 C 
BRANCH  30  31
ATOM     31  C   UNL     1     -39.140  23.187   2.135  0.00  0.00    -0.011 C 
ATOM     32  C   UNL     1     -40.126  23.543   1.214  0.00  0.00    -0.004 C 
ATOM     33  C   UNL     1     -38.481  21.963   2.016  0.00  0.00    -0.004 C 
ATOM     34  C   UNL     1     -40.452  22.674   0.172  0.00  0.00    -0.000 C 
ATOM     35  C   UNL     1     -38.808  21.096   0.974  0.00  0.00    -0.000 C 
ATOM     36  C   UNL     1     -39.793  21.450   0.053  0.00  0.00    -0.000 C 
ENDBRANCH  30  31
ENDBRANCH  29  30
ENDBRANCH  27  29
ENDBRANCH   3  27
BRANCH   4  37
ATOM     37  O   UNL     1     -37.008  27.882   1.032  0.00  0.00    -0.421 OA
BRANCH  37  39
ATOM     38  O   UNL     1     -35.678  27.164  -0.754  0.00  0.00    -0.250 OA
ATOM     39  C   UNL     1     -36.773  27.326  -0.234  0.00  0.00    +0.322 C 
ATOM     40  C   UNL     1     -38.077  26.957  -0.878  0.00  0.00    +0.122 C 
ENDBRANCH  37  39
ENDBRANCH   4  37
TORSDOF 12
ENDMDL
MODEL 8
REMARK VINA RESULT:      -6.5      1.863      3.087
REMARK  Name = 60201958
REMARK  12 active torsions:
REMARK  status: ('A' for Active; 'I' for Inactive)
REMARK    1  A    between atoms: C_1  and  C_7
REMARK    2  A    between atoms: C_2  and  C_15
REMARK    3  A    between atoms: C_3  and  O_27
REMARK    4  A    between atoms: C_4  and  O_37
REMARK    5  A    between atoms: C_5  and  O_23
REMARK    6  A    between atoms: C_6  and  O_25
REMARK    7  A    between atoms: C_12  and  O_13
REMARK    8  A    between atoms: C_20  and  O_21
REMARK    9  A    between atoms: O_27  and  C_29
REMARK   10  A    between atoms: C_29  and  C_30
REMARK   11  A    between atoms: C_30  and  C_31
REMARK   12  A    between atoms: O_37  and  C_39
REMARK                            x       y       z     vdW  Elec       q    Type
REMARK                         _______ _______ _______ _____ _____    ______ ____
ROOT
ATOM      1  C   UNL     1     -36.995  22.911   0.700  0.00  0.00    +0.074 A 
ATOM      2  C   UNL     1     -35.168  24.751   1.730  0.00  0.00    +0.074 A 
ATOM      3  C   UNL     1     -36.424  22.699   1.955  0.00  0.00    +0.186 A 
ATOM      4  C   UNL     1     -35.511  23.619   2.470  0.00  0.00    +0.186 A 
ATOM      5  C   UNL     1     -36.651  24.042  -0.040  0.00  0.00    +0.171 A 
ATOM      6  C   UNL     1     -35.739  24.962   0.476  0.00  0.00    +0.171 A 
ENDROOT
BRANCH   1   7
ATOM      7  C   UNL     1     -37.944  21.952   0.162  0.00  0.00    +0.006 C 
ATOM      8  C   UNL     1     -39.286  22.012   0.540  0.00  0.00    +0.003 C 
ATOM      9  C   UNL     1     -37.513  20.970  -0.730  0.00  0.00    +0.003 C 
ATOM     10  C   UNL     1     -40.196  21.090   0.025  0.00  0.00    +0.037 C 
ATOM     11  C   UNL     1     -38.424  20.048  -1.245  0.00  0.00    +0.037 C 
ATOM     12  C   UNL     1     -39.766  20.107  -0.868  0.00  0.00    +0.134 C 
BRANCH  12  13
ATOM     13  O   UNL     1     -40.655  19.207  -1.369  0.00  0.00    -0.506 OA
ATOM     14  H   UNL     1     -41.377  18.921  -0.846  0.00  0.00    +0.292 HD
ENDBRANCH  12  13
ENDBRANCH   1   7
BRANCH   2  15
ATOM     15  C   UNL     1     -34.220  25.704   2.264  0.00  0.00    +0.006 C 
ATOM     16  C   UNL     1     -32.858  25.550   2.007  0.00  0.00    +0.003 C 
ATOM     17  C   UNL     1     -34.668  26.778   3.033  0.00  0.00    +0.003 C 
ATOM     18  C   UNL     1     -31.943  26.469   2.519  0.00  0.00    +0.037 C 
ATOM     19  C   UNL     1     -33.753  27.697   3.545  0.00  0.00    +0.037 C 
ATOM     20  C   UNL     1     -32.390  27.544   3.289  0.00  0.00    +0.134 C 
BRANCH  20  21
ATOM     21  O   UNL     1     -31.498  28.441   3.789  0.00  0.00    -0.506 OA
ATOM     22  H   UNL     1     -31.788  29.294   4.050  0.00  0.00    +0.292 HD
ENDBRANCH  20  21
ENDBRANCH   2  15
BRANCH   5  23
ATOM     23  O   UNL     1     -37.199  24.262  -1.271  0.00  0.00    -0.503 OA
ATOM     24  H   UNL     1     -37.252  23.562  -1.892  0.00  0.00    +0.292 HD
ENDBRANCH   5  23
BRANCH   6  25
ATOM     25  O   UNL     1     -35.411  26.064  -0.262  0.00  0.00    -0.503 OA
ATOM     26  H   UNL     1     -35.898  26.271  -1.036  0.00  0.00    +0.292 HD
ENDBRANCH   6  25
BRANCH   3  27
ATOM     27  O   UNL     1     -36.752  21.597   2.691  0.00  0.00    -0.421 OA
BRANCH  27  29
ATOM     28  O   UNL     1     -35.046  20.479   3.831  0.00  0.00    -0.249 OA
ATOM     29  C   UNL     1     -35.710  20.661   2.819  0.00  0.00    +0.326 C 
BRANCH  29  30
ATOM     30  C   UNL     1     -35.545  19.921   1.513  0.00  0.00    +0.136 C 
BRANCH  30  31
ATOM     31  C   UNL     1     -34.115  19.875   1.041  0.00  0.00    -0.011 C 
ATOM     32  C   UNL     1     -33.573  20.959   0.350  0.00  0.00    -0.004 C 
ATOM     33  C   UNL     1     -33.334  18.748   1.295  0.00  0.00    -0.004 C 
ATOM     34  C   UNL     1     -32.249  20.917  -0.085  0.00  0.00    -0.000 C 
ATOM     35  C   UNL     1     -32.009  18.706   0.859  0.00  0.00    -0.000 C 
ATOM     36  C   UNL     1     -31.467  19.789   0.169  0.00  0.00    -0.000 C 
ENDBRANCH  30  31
ENDBRANCH  29  30
ENDBRANCH  27  29
ENDBRANCH   3  27
BRANCH   4  37
ATOM     37  O   UNL     1     -34.964  23.399   3.702  0.00  0.00    -0.421 OA
BRANCH  37  39
ATOM     38  O   UNL     1     -36.757  24.504   4.721  0.00  0.00    -0.250 OA
ATOM     39  C   UNL     1     -35.811  23.729   4.770  0.00  0.00    +0.322 C 
ATOM     40  C   UNL     1     -35.385  22.994   6.006  0.00  0.00    +0.122 C 
ENDBRANCH  37  39
ENDBRANCH   4  37
TORSDOF 12
ENDMDL
MODEL 9
REMARK VINA RESULT:      -6.5      2.634      5.705
REMARK  Name = 60201958
REMARK  12 active torsions:
REMARK  status: ('A' for Active; 'I' for Inactive)
REMARK    1  A    between atoms: C_1  and  C_7
REMARK    2  A    between atoms: C_2  and  C_15
REMARK    3  A    between atoms: C_3  and  O_27
REMARK    4  A    between atoms: C_4  and  O_37
REMARK    5  A    between atoms: C_5  and  O_23
REMARK    6  A    between atoms: C_6  and  O_25
REMARK    7  A    between atoms: C_12  and  O_13
REMARK    8  A    between atoms: C_20  and  O_21
REMARK    9  A    between atoms: O_27  and  C_29
REMARK   10  A    between atoms: C_29  and  C_30
REMARK   11  A    between atoms: C_30  and  C_31
REMARK   12  A    between atoms: O_37  and  C_39
REMARK                            x       y       z     vdW  Elec       q    Type
REMARK                         _______ _______ _______ _____ _____    ______ ____
ROOT
ATOM      1  C   UNL     1     -35.165  20.530   0.981  0.00  0.00    +0.074 A 
ATOM      2  C   UNL     1     -36.882  22.610   1.695  0.00  0.00    +0.074 A 
ATOM      3  C   UNL     1     -34.743  21.855   0.864  0.00  0.00    +0.186 A 
ATOM      4  C   UNL     1     -35.601  22.895   1.221  0.00  0.00    +0.186 A 
ATOM      5  C   UNL     1     -36.445  20.247   1.454  0.00  0.00    +0.171 A 
ATOM      6  C   UNL     1     -37.304  21.286   1.811  0.00  0.00    +0.171 A 
ENDROOT
BRANCH   1   7
ATOM      7  C   UNL     1     -34.271  19.448   0.607  0.00  0.00    +0.006 C 
ATOM      8  C   UNL     1     -33.354  18.950   1.532  0.00  0.00    +0.003 C 
ATOM      9  C   UNL     1     -34.330  18.909  -0.678  0.00  0.00    +0.003 C 
ATOM     10  C   UNL     1     -32.495  17.912   1.172  0.00  0.00    +0.037 C 
ATOM     11  C   UNL     1     -33.471  17.871  -1.038  0.00  0.00    +0.037 C 
ATOM     12  C   UNL     1     -32.553  17.372  -0.113  0.00  0.00    +0.134 C 
BRANCH  12  13
ATOM     13  O   UNL     1     -31.714  16.360  -0.465  0.00  0.00    -0.506 OA
ATOM     14  H   UNL     1     -30.929  16.211   0.025  0.00  0.00    +0.292 HD
ENDBRANCH  12  13
ENDBRANCH   1   7
BRANCH   2  15
ATOM     15  C   UNL     1     -37.774  23.688   2.063  0.00  0.00    +0.006 C 
ATOM     16  C   UNL     1     -38.656  24.215   1.121  0.00  0.00    +0.003 C 
ATOM     17  C   UNL     1     -37.752  24.198   3.361  0.00  0.00    +0.003 C 
ATOM     18  C   UNL     1     -39.517  25.253   1.475  0.00  0.00    +0.037 C 
ATOM     19  C   UNL     1     -38.613  25.236   3.716  0.00  0.00    +0.037 C 
ATOM     20  C   UNL     1     -39.496  25.764   2.774  0.00  0.00    +0.134 C 
BRANCH  20  21
ATOM     21  O   UNL     1     -40.336  26.777   3.121  0.00  0.00    -0.506 OA
ATOM     22  H   UNL     1     -40.080  27.393   3.779  0.00  0.00    +0.292 HD
ENDBRANCH  20  21
ENDBRANCH   2  15
BRANCH   5  23
ATOM     23  O   UNL     1     -36.874  18.955   1.571  0.00  0.00    -0.503 OA
ATOM     24  H   UNL     1     -37.784  18.773   1.701  0.00  0.00    +0.292 HD
ENDBRANCH   5  23
BRANCH   6  25
ATOM     25  O   UNL     1     -38.556  20.991   2.270  0.00  0.00    -0.503 OA
ATOM     26  H   UNL     1     -39.261  21.591   2.125  0.00  0.00    +0.292 HD
ENDBRANCH   6  25
BRANCH   3  27
ATOM     27  O   UNL     1     -33.491  22.148   0.403  0.00  0.00    -0.421 OA
BRANCH  27  29
ATOM     28  O   UNL     1     -34.387  22.385  -1.742  0.00  0.00    -0.249 OA
ATOM     29  C   UNL     1     -33.425  22.360  -0.986  0.00  0.00    +0.326 C 
BRANCH  29  30
ATOM     30  C   UNL     1     -31.982  22.554  -1.388  0.00  0.00    +0.136 C 
BRANCH  30  31
ATOM     31  C   UNL     1     -31.269  21.253  -1.655  0.00  0.00    -0.011 C 
ATOM     32  C   UNL     1     -31.464  20.585  -2.864  0.00  0.00    -0.004 C 
ATOM     33  C   UNL     1     -30.414  20.718  -0.691  0.00  0.00    -0.004 C 
ATOM     34  C   UNL     1     -30.803  19.382  -3.110  0.00  0.00    -0.000 C 
ATOM     35  C   UNL     1     -29.753  19.515  -0.938  0.00  0.00    -0.000 C 
ATOM     36  C   UNL     1     -29.948  18.846  -2.146  0.00  0.00    -0.000 C 
ENDBRANCH  30  31
ENDBRANCH  29  30
ENDBRANCH  27  29
ENDBRANCH   3  27
BRANCH   4  37
ATOM     37  O   UNL     1     -35.173  24.186   1.104  0.00  0.00    -0.421 OA
BRANCH  37  39
ATOM     38  O   UNL     1     -34.368  24.292   3.299  0.00  0.00    -0.250 OA
ATOM     39  C   UNL     1     -34.285  24.586   2.114  0.00  0.00    +0.322 C 
ATOM     40  C   UNL     1     -33.203  25.446   1.531  0.00  0.00    +0.122 C 
ENDBRANCH  37  39
ENDBRANCH   4  37
TORSDOF 12
ENDMDL
