MODEL 1
REMARK VINA RESULT:      -5.9      0.000      0.000
REMARK  Name = 5470965
REMARK  10 active torsions:
REMARK  status: ('A' for Active; 'I' for Inactive)
REMARK    1  A    between atoms: C_1  and  C_16
REMARK    2  A    between atoms: C_2  and  C_5
REMARK    3  A    between atoms: C_6  and  C_11
REMARK    4  A    between atoms: C_10  and  C_13
REMARK    5  A    between atoms: C_16  and  O_17
REMARK    6  A    between atoms: C_16  and  C_19
REMARK    7  A    between atoms: C_19  and  C_21
REMARK    8  A    between atoms: C_21  and  O_23
REMARK    9  A    between atoms: C_22  and  C_26
REMARK   10  A    between atoms: C_26  and  O_27
REMARK                            x       y       z     vdW  Elec       q    Type
REMARK                         _______ _______ _______ _____ _____    ______ ____
ROOT
ATOM      1  C   UNL     1     -38.520  24.901   2.074  0.00  0.00    +0.006 C 
ATOM      2  C   UNL     1     -39.316  25.538   2.953  0.00  0.00    +0.026 C 
ENDROOT
BRANCH   2   5
ATOM      3  S   UNL     1     -42.658  27.106   1.567  0.00  0.00    -0.073 S 
ATOM      4  N   UNL     1     -41.212  26.876   3.698  0.00  0.00    -0.397 NA
ATOM      5  C   UNL     1     -40.569  26.197   2.680  0.00  0.00    +0.121 C 
ATOM      6  C   UNL     1     -42.324  27.394   3.225  0.00  0.00    +0.183 C 
ATOM      7  C   UNL     1     -41.199  26.212   1.454  0.00  0.00    +0.123 C 
BRANCH   6  11
ATOM      8  S   UNL     1     -45.339  29.080   5.182  0.00  0.00    -0.079 S 
ATOM      9  N   UNL     1     -42.769  29.173   4.921  0.00  0.00    -0.400 NA
ATOM     10  C   UNL     1     -43.788  29.713   5.553  0.00  0.00    +0.134 C 
ATOM     11  C   UNL     1     -43.239  28.186   4.077  0.00  0.00    +0.156 C 
ATOM     12  C   UNL     1     -44.604  27.989   4.080  0.00  0.00    +0.126 C 
BRANCH  10  13
ATOM     13  C   UNL     1     -43.674  30.805   6.543  0.00  0.00    +0.058 C 
ATOM     14  C   UNL     1     -44.704  31.936   6.321  0.00  0.00    +0.008 C 
ATOM     15  C   UNL     1     -43.763  30.309   8.005  0.00  0.00    +0.008 C 
ENDBRANCH  10  13
ENDBRANCH   6  11
ENDBRANCH   2   5
BRANCH   1  16
ATOM     16  C   UNL     1     -37.203  24.226   2.389  0.00  0.00    +0.144 C 
BRANCH  16  17
ATOM     17  O   UNL     1     -36.292  24.270   1.292  0.00  0.00    -0.349 OA
ATOM     18  C   UNL     1     -35.876  25.599   1.017  0.00  0.00    +0.174 C 
ENDBRANCH  16  17
BRANCH  16  19
ATOM     19  C   UNL     1     -37.394  22.764   2.868  0.00  0.00    +0.088 C 
ATOM     20  C   UNL     1     -38.459  22.048   2.027  0.00  0.00    +0.011 C 
BRANCH  19  21
ATOM     21  C   UNL     1     -36.103  21.958   2.882  0.00  0.00    +0.125 C 
ATOM     22  C   UNL     1     -35.262  21.994   3.932  0.00  0.00    +0.114 C 
BRANCH  21  23
ATOM     23  O   UNL     1     -35.890  21.204   1.746  0.00  0.00    -0.475 OA
ATOM     24  C   UNL     1     -34.978  20.155   2.003  0.00  0.00    +0.252 C 
ENDBRANCH  21  23
BRANCH  22  26
ATOM     25  O   UNL     1     -36.157  22.454   6.117  0.00  0.00    -0.245 OA
ATOM     26  C   UNL     1     -35.498  22.803   5.151  0.00  0.00    +0.344 C 
BRANCH  26  27
ATOM     27  O   UNL     1     -34.852  23.989   4.989  0.00  0.00    -0.441 OA
ATOM     28  C   UNL     1     -35.554  25.142   5.466  0.00  0.00    +0.256 C 
ENDBRANCH  26  27
ENDBRANCH  22  26
ENDBRANCH  19  21
ENDBRANCH  16  19
ENDBRANCH   1  16
TORSDOF 10
ENDMDL
MODEL 2
REMARK VINA RESULT:      -5.9      1.998      2.943
REMARK  Name = 5470965
REMARK  10 active torsions:
REMARK  status: ('A' for Active; 'I' for Inactive)
REMARK    1  A    between atoms: C_1  and  C_16
REMARK    2  A    between atoms: C_2  and  C_5
REMARK    3  A    between atoms: C_6  and  C_11
REMARK    4  A    between atoms: C_10  and  C_13
REMARK    5  A    between atoms: C_16  and  O_17
REMARK    6  A    between atoms: C_16  and  C_19
REMARK    7  A    between atoms: C_19  and  C_21
REMARK    8  A    between atoms: C_21  and  O_23
REMARK    9  A    between atoms: C_22  and  C_26
REMARK   10  A    between atoms: C_26  and  O_27
REMARK                            x       y       z     vdW  Elec       q    Type
REMARK                         _______ _______ _______ _____ _____    ______ ____
ROOT
ATOM      1  C   UNL     1     -38.205  25.688   2.933  0.00  0.00    +0.006 C 
ATOM      2  C   UNL     1     -39.458  25.356   2.571  0.00  0.00    +0.026 C 
ENDROOT
BRANCH   2   5
ATOM      3  S   UNL     1     -42.428  27.707   1.477  0.00  0.00    -0.073 S 
ATOM      4  N   UNL     1     -41.239  26.707   3.543  0.00  0.00    -0.397 NA
ATOM      5  C   UNL     1     -40.587  26.239   2.418  0.00  0.00    +0.121 C 
ATOM      6  C   UNL     1     -42.227  27.488   3.167  0.00  0.00    +0.183 C 
ATOM      7  C   UNL     1     -41.087  26.673   1.208  0.00  0.00    +0.123 C 
BRANCH   6  11
ATOM      8  S   UNL     1     -45.128  28.705   5.589  0.00  0.00    -0.079 S 
ATOM      9  N   UNL     1     -42.707  29.254   4.867  0.00  0.00    -0.400 NA
ATOM     10  C   UNL     1     -43.686  29.633   5.658  0.00  0.00    +0.134 C 
ATOM     11  C   UNL     1     -43.117  28.148   4.148  0.00  0.00    +0.156 C 
ATOM     12  C   UNL     1     -44.398  27.704   4.402  0.00  0.00    +0.126 C 
BRANCH  10  13
ATOM     13  C   UNL     1     -43.616  30.785   6.582  0.00  0.00    +0.058 C 
ATOM     14  C   UNL     1     -44.507  31.970   6.145  0.00  0.00    +0.008 C 
ATOM     15  C   UNL     1     -43.944  30.409   8.046  0.00  0.00    +0.008 C 
ENDBRANCH  10  13
ENDBRANCH   6  11
ENDBRANCH   2   5
BRANCH   1  16
ATOM     16  C   UNL     1     -37.041  24.735   3.096  0.00  0.00    +0.144 C 
BRANCH  16  17
ATOM     17  O   UNL     1     -37.419  23.515   3.729  0.00  0.00    -0.349 OA
ATOM     18  C   UNL     1     -37.298  22.412   2.843  0.00  0.00    +0.174 C 
ENDBRANCH  16  17
BRANCH  16  19
ATOM     19  C   UNL     1     -35.853  25.386   3.851  0.00  0.00    +0.088 C 
ATOM     20  C   UNL     1     -35.660  24.736   5.228  0.00  0.00    +0.011 C 
BRANCH  19  21
ATOM     21  C   UNL     1     -34.549  25.358   3.068  0.00  0.00    +0.125 C 
ATOM     22  C   UNL     1     -33.679  26.383   3.113  0.00  0.00    +0.114 C 
BRANCH  21  23
ATOM     23  O   UNL     1     -34.352  24.208   2.331  0.00  0.00    -0.475 OA
ATOM     24  C   UNL     1     -33.733  24.504   1.094  0.00  0.00    +0.252 C 
ENDBRANCH  21  23
BRANCH  22  26
ATOM     25  O   UNL     1     -34.509  28.601   3.539  0.00  0.00    -0.245 OA
ATOM     26  C   UNL     1     -33.894  27.614   3.909  0.00  0.00    +0.344 C 
BRANCH  26  27
ATOM     27  O   UNL     1     -33.284  27.437   5.112  0.00  0.00    -0.441 OA
ATOM     28  C   UNL     1     -32.111  28.229   5.329  0.00  0.00    +0.256 C 
ENDBRANCH  26  27
ENDBRANCH  22  26
ENDBRANCH  19  21
ENDBRANCH  16  19
ENDBRANCH   1  16
TORSDOF 10
ENDMDL
MODEL 3
REMARK VINA RESULT:      -5.8      1.855      3.154
REMARK  Name = 5470965
REMARK  10 active torsions:
REMARK  status: ('A' for Active; 'I' for Inactive)
REMARK    1  A    between atoms: C_1  and  C_16
REMARK    2  A    between atoms: C_2  and  C_5
REMARK    3  A    between atoms: C_6  and  C_11
REMARK    4  A    between atoms: C_10  and  C_13
REMARK    5  A    between atoms: C_16  and  O_17
REMARK    6  A    between atoms: C_16  and  C_19
REMARK    7  A    between atoms: C_19  and  C_21
REMARK    8  A    between atoms: C_21  and  O_23
REMARK    9  A    between atoms: C_22  and  C_26
REMARK   10  A    between atoms: C_26  and  O_27
REMARK                            x       y       z     vdW  Elec       q    Type
REMARK                         _______ _______ _______ _____ _____    ______ ____
ROOT
ATOM      1  C   UNL     1     -38.333  25.568   3.326  0.00  0.00    +0.006 C 
ATOM      2  C   UNL     1     -39.431  25.299   2.597  0.00  0.00    +0.026 C 
ENDROOT
BRANCH   2   5
ATOM      3  S   UNL     1     -42.496  27.490   1.434  0.00  0.00    -0.073 S 
ATOM      4  N   UNL     1     -41.227  26.658   3.528  0.00  0.00    -0.397 NA
ATOM      5  C   UNL     1     -40.590  26.138   2.418  0.00  0.00    +0.121 C 
ATOM      6  C   UNL     1     -42.247  27.386   3.129  0.00  0.00    +0.183 C 
ATOM      7  C   UNL     1     -41.132  26.479   1.197  0.00  0.00    +0.123 C 
BRANCH   6  11
ATOM      8  S   UNL     1     -45.157  28.733   5.470  0.00  0.00    -0.079 S 
ATOM      9  N   UNL     1     -42.686  29.154   4.837  0.00  0.00    -0.400 NA
ATOM     10  C   UNL     1     -43.669  29.578   5.600  0.00  0.00    +0.134 C 
ATOM     11  C   UNL     1     -43.132  28.083   4.089  0.00  0.00    +0.156 C 
ATOM     12  C   UNL     1     -44.443  27.708   4.294  0.00  0.00    +0.126 C 
BRANCH  10  13
ATOM     13  C   UNL     1     -43.566  30.713   6.543  0.00  0.00    +0.058 C 
ATOM     14  C   UNL     1     -44.439  31.922   6.136  0.00  0.00    +0.008 C 
ATOM     15  C   UNL     1     -43.886  30.318   8.004  0.00  0.00    +0.008 C 
ENDBRANCH  10  13
ENDBRANCH   6  11
ENDBRANCH   2   5
BRANCH   1  16
ATOM     16  C   UNL     1     -37.135  24.661   3.504  0.00  0.00    +0.144 C 
BRANCH  16  17
ATOM     17  O   UNL     1     -36.750  24.528   4.871  0.00  0.00    -0.349 OA
ATOM     18  C   UNL     1     -35.763  23.522   5.036  0.00  0.00    +0.174 C 
ENDBRANCH  16  17
BRANCH  16  19
ATOM     19  C   UNL     1     -35.924  25.115   2.648  0.00  0.00    +0.088 C 
ATOM     20  C   UNL     1     -36.013  24.540   1.228  0.00  0.00    +0.011 C 
BRANCH  19  21
ATOM     21  C   UNL     1     -35.753  26.626   2.596  0.00  0.00    +0.125 C 
ATOM     22  C   UNL     1     -34.816  27.255   3.328  0.00  0.00    +0.114 C 
BRANCH  21  23
ATOM     23  O   UNL     1     -36.628  27.269   1.743  0.00  0.00    -0.475 OA
ATOM     24  C   UNL     1     -36.034  28.430   1.196  0.00  0.00    +0.252 C 
ENDBRANCH  21  23
BRANCH  22  26
ATOM     25  O   UNL     1     -32.897  25.918   3.893  0.00  0.00    -0.245 OA
ATOM     26  C   UNL     1     -33.876  26.559   4.238  0.00  0.00    +0.344 C 
BRANCH  26  27
ATOM     27  O   UNL     1     -34.308  26.766   5.512  0.00  0.00    -0.441 OA
ATOM     28  C   UNL     1     -33.307  26.647   6.528  0.00  0.00    +0.256 C 
ENDBRANCH  26  27
ENDBRANCH  22  26
ENDBRANCH  19  21
ENDBRANCH  16  19
ENDBRANCH   1  16
TORSDOF 10
ENDMDL
MODEL 4
REMARK VINA RESULT:      -5.8      1.773      2.873
REMARK  Name = 5470965
REMARK  10 active torsions:
REMARK  status: ('A' for Active; 'I' for Inactive)
REMARK    1  A    between atoms: C_1  and  C_16
REMARK    2  A    between atoms: C_2  and  C_5
REMARK    3  A    between atoms: C_6  and  C_11
REMARK    4  A    between atoms: C_10  and  C_13
REMARK    5  A    between atoms: C_16  and  O_17
REMARK    6  A    between atoms: C_16  and  C_19
REMARK    7  A    between atoms: C_19  and  C_21
REMARK    8  A    between atoms: C_21  and  O_23
REMARK    9  A    between atoms: C_22  and  C_26
REMARK   10  A    between atoms: C_26  and  O_27
REMARK                            x       y       z     vdW  Elec       q    Type
REMARK                         _______ _______ _______ _____ _____    ______ ____
ROOT
ATOM      1  C   UNL     1     -37.355  26.946   2.171  0.00  0.00    +0.006 C 
ATOM      2  C   UNL     1     -38.231  25.934   2.299  0.00  0.00    +0.026 C 
ENDROOT
BRANCH   2   5
ATOM      3  S   UNL     1     -42.110  25.720   1.624  0.00  0.00    -0.073 S 
ATOM      4  N   UNL     1     -40.339  26.785   3.177  0.00  0.00    -0.397 NA
ATOM      5  C   UNL     1     -39.670  26.010   2.250  0.00  0.00    +0.121 C 
ATOM      6  C   UNL     1     -41.630  26.707   2.943  0.00  0.00    +0.183 C 
ATOM      7  C   UNL     1     -40.460  25.357   1.327  0.00  0.00    +0.123 C 
BRANCH   6  11
ATOM      8  S   UNL     1     -44.753  28.051   4.993  0.00  0.00    -0.079 S 
ATOM      9  N   UNL     1     -42.315  28.639   4.369  0.00  0.00    -0.400 NA
ATOM     10  C   UNL     1     -43.365  29.059   5.039  0.00  0.00    +0.134 C 
ATOM     11  C   UNL     1     -42.619  27.432   3.771  0.00  0.00    +0.156 C 
ATOM     12  C   UNL     1     -43.893  26.953   3.995  0.00  0.00    +0.126 C 
BRANCH  10  13
ATOM     13  C   UNL     1     -43.416  30.318   5.812  0.00  0.00    +0.058 C 
ATOM     14  C   UNL     1     -44.337  31.385   5.176  0.00  0.00    +0.008 C 
ATOM     15  C   UNL     1     -43.820  30.107   7.290  0.00  0.00    +0.008 C 
ENDBRANCH  10  13
ENDBRANCH   6  11
ENDBRANCH   2   5
BRANCH   1  16
ATOM     16  C   UNL     1     -35.847  26.837   2.238  0.00  0.00    +0.144 C 
BRANCH  16  17
ATOM     17  O   UNL     1     -35.228  27.060   0.972  0.00  0.00    -0.349 OA
ATOM     18  C   UNL     1     -34.915  28.431   0.782  0.00  0.00    +0.174 C 
ENDBRANCH  16  17
BRANCH  16  19
ATOM     19  C   UNL     1     -35.383  25.481   2.830  0.00  0.00    +0.088 C 
ATOM     20  C   UNL     1     -34.007  25.085   2.279  0.00  0.00    +0.011 C 
BRANCH  19  21
ATOM     21  C   UNL     1     -35.368  25.460   4.352  0.00  0.00    +0.125 C 
ATOM     22  C   UNL     1     -35.760  24.375   5.045  0.00  0.00    +0.114 C 
BRANCH  21  23
ATOM     23  O   UNL     1     -34.921  26.629   4.934  0.00  0.00    -0.475 OA
ATOM     24  C   UNL     1     -33.888  26.364   5.863  0.00  0.00    +0.252 C 
ENDBRANCH  21  23
BRANCH  22  26
ATOM     25  O   UNL     1     -37.263  22.996   3.770  0.00  0.00    -0.245 OA
ATOM     26  C   UNL     1     -36.235  23.121   4.414  0.00  0.00    +0.344 C 
BRANCH  26  27
ATOM     27  O   UNL     1     -35.321  22.151   4.689  0.00  0.00    -0.441 OA
ATOM     28  C   UNL     1     -35.215  21.777   6.067  0.00  0.00    +0.256 C 
ENDBRANCH  26  27
ENDBRANCH  22  26
ENDBRANCH  19  21
ENDBRANCH  16  19
ENDBRANCH   1  16
TORSDOF 10
ENDMDL
MODEL 5
REMARK VINA RESULT:      -5.8      4.816      9.829
REMARK  Name = 5470965
REMARK  10 active torsions:
REMARK  status: ('A' for Active; 'I' for Inactive)
REMARK    1  A    between atoms: C_1  and  C_16
REMARK    2  A    between atoms: C_2  and  C_5
REMARK    3  A    between atoms: C_6  and  C_11
REMARK    4  A    between atoms: C_10  and  C_13
REMARK    5  A    between atoms: C_16  and  O_17
REMARK    6  A    between atoms: C_16  and  C_19
REMARK    7  A    between atoms: C_19  and  C_21
REMARK    8  A    between atoms: C_21  and  O_23
REMARK    9  A    between atoms: C_22  and  C_26
REMARK   10  A    between atoms: C_26  and  O_27
REMARK                            x       y       z     vdW  Elec       q    Type
REMARK                         _______ _______ _______ _____ _____    ______ ____
ROOT
ATOM      1  C   UNL     1     -43.013  27.460   3.444  0.00  0.00    +0.006 C 
ATOM      2  C   UNL     1     -42.041  26.606   3.814  0.00  0.00    +0.026 C 
ENDROOT
BRANCH   2   5
ATOM      3  S   UNL     1     -39.333  25.661   1.109  0.00  0.00    -0.073 S 
ATOM      4  N   UNL     1     -40.033  25.248   3.563  0.00  0.00    -0.397 NA
ATOM      5  C   UNL     1     -40.950  26.120   3.007  0.00  0.00    +0.121 C 
ATOM      6  C   UNL     1     -39.135  24.940   2.654  0.00  0.00    +0.183 C 
ATOM      7  C   UNL     1     -40.736  26.458   1.688  0.00  0.00    +0.123 C 
BRANCH   6  11
ATOM      8  S   UNL     1     -36.396  22.070   2.814  0.00  0.00    -0.079 S 
ATOM      9  N   UNL     1     -37.151  24.241   3.999  0.00  0.00    -0.400 NA
ATOM     10  C   UNL     1     -36.258  23.276   4.027  0.00  0.00    +0.134 C 
ATOM     11  C   UNL     1     -38.014  24.018   2.944  0.00  0.00    +0.156 C 
ATOM     12  C   UNL     1     -37.766  22.892   2.188  0.00  0.00    +0.126 C 
BRANCH  10  13
ATOM     13  C   UNL     1     -35.166  23.177   5.019  0.00  0.00    +0.058 C 
ATOM     14  C   UNL     1     -34.701  24.552   5.551  0.00  0.00    +0.008 C 
ATOM     15  C   UNL     1     -35.513  22.256   6.212  0.00  0.00    +0.008 C 
ENDBRANCH  10  13
ENDBRANCH   6  11
ENDBRANCH   2   5
BRANCH   1  16
ATOM     16  C   UNL     1     -44.154  27.945   4.312  0.00  0.00    +0.144 C 
BRANCH  16  17
ATOM     17  O   UNL     1     -45.216  26.998   4.396  0.00  0.00    -0.349 OA
ATOM     18  C   UNL     1     -45.395  26.537   5.727  0.00  0.00    +0.174 C 
ENDBRANCH  16  17
BRANCH  16  19
ATOM     19  C   UNL     1     -44.698  29.321   3.849  0.00  0.00    +0.088 C 
ATOM     20  C   UNL     1     -45.244  29.239   2.417  0.00  0.00    +0.011 C 
BRANCH  19  21
ATOM     21  C   UNL     1     -45.750  29.902   4.782  0.00  0.00    +0.125 C 
ATOM     22  C   UNL     1     -45.422  30.748   5.774  0.00  0.00    +0.114 C 
BRANCH  21  23
ATOM     23  O   UNL     1     -47.040  29.488   4.513  0.00  0.00    -0.475 OA
ATOM     24  C   UNL     1     -47.799  29.408   5.703  0.00  0.00    +0.252 C 
ENDBRANCH  21  23
BRANCH  22  26
ATOM     25  O   UNL     1     -43.507  32.195   5.604  0.00  0.00    -0.245 OA
ATOM     26  C   UNL     1     -44.036  31.192   6.055  0.00  0.00    +0.344 C 
BRANCH  26  27
ATOM     27  O   UNL     1     -43.475  30.282   6.897  0.00  0.00    -0.441 OA
ATOM     28  C   UNL     1     -43.892  30.370   8.263  0.00  0.00    +0.256 C 
ENDBRANCH  26  27
ENDBRANCH  22  26
ENDBRANCH  19  21
ENDBRANCH  16  19
ENDBRANCH   1  16
TORSDOF 10
ENDMDL
MODEL 6
REMARK VINA RESULT:      -5.7      1.478      2.900
REMARK  Name = 5470965
REMARK  10 active torsions:
REMARK  status: ('A' for Active; 'I' for Inactive)
REMARK    1  A    between atoms: C_1  and  C_16
REMARK    2  A    between atoms: C_2  and  C_5
REMARK    3  A    between atoms: C_6  and  C_11
REMARK    4  A    between atoms: C_10  and  C_13
REMARK    5  A    between atoms: C_16  and  O_17
REMARK    6  A    between atoms: C_16  and  C_19
REMARK    7  A    between atoms: C_19  and  C_21
REMARK    8  A    between atoms: C_21  and  O_23
REMARK    9  A    between atoms: C_22  and  C_26
REMARK   10  A    between atoms: C_26  and  O_27
REMARK                            x       y       z     vdW  Elec       q    Type
REMARK                         _______ _______ _______ _____ _____    ______ ____
ROOT
ATOM      1  C   UNL     1     -38.858  24.888   3.459  0.00  0.00    +0.006 C 
ATOM      2  C   UNL     1     -39.501  25.566   2.492  0.00  0.00    +0.026 C 
ENDROOT
BRANCH   2   5
ATOM      3  S   UNL     1     -43.334  26.274   1.893  0.00  0.00    -0.073 S 
ATOM      4  N   UNL     1     -41.350  26.828   3.456  0.00  0.00    -0.397 NA
ATOM      5  C   UNL     1     -40.886  25.969   2.478  0.00  0.00    +0.121 C 
ATOM      6  C   UNL     1     -42.628  27.057   3.247  0.00  0.00    +0.183 C 
ATOM      7  C   UNL     1     -41.814  25.562   1.543  0.00  0.00    +0.123 C 
BRANCH   6  11
ATOM      8  S   UNL     1     -45.346  28.986   5.404  0.00  0.00    -0.079 S 
ATOM      9  N   UNL     1     -42.830  28.992   4.813  0.00  0.00    -0.400 NA
ATOM     10  C   UNL     1     -43.752  29.611   5.516  0.00  0.00    +0.134 C 
ATOM     11  C   UNL     1     -43.417  27.945   4.130  0.00  0.00    +0.156 C 
ATOM     12  C   UNL     1     -44.772  27.782   4.324  0.00  0.00    +0.126 C 
BRANCH  10  13
ATOM     13  C   UNL     1     -43.498  30.785   6.379  0.00  0.00    +0.058 C 
ATOM     14  C   UNL     1     -44.220  32.063   5.893  0.00  0.00    +0.008 C 
ATOM     15  C   UNL     1     -43.846  30.531   7.864  0.00  0.00    +0.008 C 
ENDBRANCH  10  13
ENDBRANCH   6  11
ENDBRANCH   2   5
BRANCH   1  16
ATOM     16  C   UNL     1     -37.404  24.468   3.442  0.00  0.00    +0.144 C 
BRANCH  16  17
ATOM     17  O   UNL     1     -36.519  25.562   3.673  0.00  0.00    -0.349 OA
ATOM     18  C   UNL     1     -36.126  25.631   5.036  0.00  0.00    +0.174 C 
ENDBRANCH  16  17
BRANCH  16  19
ATOM     19  C   UNL     1     -37.022  23.738   2.129  0.00  0.00    +0.088 C 
ATOM     20  C   UNL     1     -35.786  24.382   1.485  0.00  0.00    +0.011 C 
BRANCH  19  21
ATOM     21  C   UNL     1     -36.803  22.243   2.310  0.00  0.00    +0.125 C 
ATOM     22  C   UNL     1     -37.759  21.348   2.002  0.00  0.00    +0.114 C 
BRANCH  21  23
ATOM     23  O   UNL     1     -35.558  21.905   2.804  0.00  0.00    -0.475 OA
ATOM     24  C   UNL     1     -35.270  20.544   2.550  0.00  0.00    +0.252 C 
ENDBRANCH  21  23
BRANCH  22  26
ATOM     25  O   UNL     1     -40.077  21.977   2.138  0.00  0.00    -0.245 OA
ATOM     26  C   UNL     1     -39.092  21.716   1.468  0.00  0.00    +0.344 C 
BRANCH  26  27
ATOM     27  O   UNL     1     -39.008  21.706   0.110  0.00  0.00    -0.441 OA
ATOM     28  C   UNL     1     -39.255  20.441  -0.512  0.00  0.00    +0.256 C 
ENDBRANCH  26  27
ENDBRANCH  22  26
ENDBRANCH  19  21
ENDBRANCH  16  19
ENDBRANCH   1  16
TORSDOF 10
ENDMDL
MODEL 7
REMARK VINA RESULT:      -5.7      4.686      9.470
REMARK  Name = 5470965
REMARK  10 active torsions:
REMARK  status: ('A' for Active; 'I' for Inactive)
REMARK    1  A    between atoms: C_1  and  C_16
REMARK    2  A    between atoms: C_2  and  C_5
REMARK    3  A    between atoms: C_6  and  C_11
REMARK    4  A    between atoms: C_10  and  C_13
REMARK    5  A    between atoms: C_16  and  O_17
REMARK    6  A    between atoms: C_16  and  C_19
REMARK    7  A    between atoms: C_19  and  C_21
REMARK    8  A    between atoms: C_21  and  O_23
REMARK    9  A    between atoms: C_22  and  C_26
REMARK   10  A    between atoms: C_26  and  O_27
REMARK                            x       y       z     vdW  Elec       q    Type
REMARK                         _______ _______ _______ _____ _____    ______ ____
ROOT
ATOM      1  C   UNL     1     -43.075  26.671   3.741  0.00  0.00    +0.006 C 
ATOM      2  C   UNL     1     -42.583  26.258   2.560  0.00  0.00    +0.026 C 
ENDROOT
BRANCH   2   5
ATOM      3  S   UNL     1     -38.938  26.340   1.060  0.00  0.00    -0.073 S 
ATOM      4  N   UNL     1     -40.392  25.245   2.896  0.00  0.00    -0.397 NA
ATOM      5  C   UNL     1     -41.197  26.118   2.189  0.00  0.00    +0.121 C 
ATOM      6  C   UNL     1     -39.180  25.281   2.388  0.00  0.00    +0.183 C 
ATOM      7  C   UNL     1     -40.586  26.800   1.158  0.00  0.00    +0.123 C 
BRANCH   6  11
ATOM      8  S   UNL     1     -36.360  22.610   3.210  0.00  0.00    -0.079 S 
ATOM      9  N   UNL     1     -37.442  24.778   4.110  0.00  0.00    -0.400 NA
ATOM     10  C   UNL     1     -36.517  23.877   4.356  0.00  0.00    +0.134 C 
ATOM     11  C   UNL     1     -38.081  24.450   2.931  0.00  0.00    +0.156 C 
ATOM     12  C   UNL     1     -37.634  23.309   2.299  0.00  0.00    +0.126 C 
BRANCH  10  13
ATOM     13  C   UNL     1     -35.624  23.896   5.535  0.00  0.00    +0.058 C 
ATOM     14  C   UNL     1     -35.070  22.500   5.900  0.00  0.00    +0.008 C 
ATOM     15  C   UNL     1     -34.449  24.892   5.389  0.00  0.00    +0.008 C 
ENDBRANCH  10  13
ENDBRANCH   6  11
ENDBRANCH   2   5
BRANCH   1  16
ATOM     16  C   UNL     1     -44.539  26.817   4.098  0.00  0.00    +0.144 C 
BRANCH  16  17
ATOM     17  O   UNL     1     -45.401  26.308   3.083  0.00  0.00    -0.349 OA
ATOM     18  C   UNL     1     -46.060  25.125   3.507  0.00  0.00    +0.174 C 
ENDBRANCH  16  17
BRANCH  16  19
ATOM     19  C   UNL     1     -44.915  28.282   4.437  0.00  0.00    +0.088 C 
ATOM     20  C   UNL     1     -45.951  28.824   3.442  0.00  0.00    +0.011 C 
BRANCH  19  21
ATOM     21  C   UNL     1     -45.409  28.466   5.864  0.00  0.00    +0.125 C 
ATOM     22  C   UNL     1     -44.918  29.433   6.660  0.00  0.00    +0.114 C 
BRANCH  21  23
ATOM     23  O   UNL     1     -46.387  27.571   6.248  0.00  0.00    -0.475 OA
ATOM     24  C   UNL     1     -46.051  26.955   7.476  0.00  0.00    +0.252 C 
ENDBRANCH  21  23
BRANCH  22  26
ATOM     25  O   UNL     1     -42.741  30.102   5.885  0.00  0.00    -0.245 OA
ATOM     26  C   UNL     1     -43.871  30.394   6.241  0.00  0.00    +0.344 C 
BRANCH  26  27
ATOM     27  O   UNL     1     -44.401  31.644   6.330  0.00  0.00    -0.441 OA
ATOM     28  C   UNL     1     -44.926  32.178   5.110  0.00  0.00    +0.256 C 
ENDBRANCH  26  27
ENDBRANCH  22  26
ENDBRANCH  19  21
ENDBRANCH  16  19
ENDBRANCH   1  16
TORSDOF 10
ENDMDL
MODEL 8
REMARK VINA RESULT:      -5.7      6.620     11.427
REMARK  Name = 5470965
REMARK  10 active torsions:
REMARK  status: ('A' for Active; 'I' for Inactive)
REMARK    1  A    between atoms: C_1  and  C_16
REMARK    2  A    between atoms: C_2  and  C_5
REMARK    3  A    between atoms: C_6  and  C_11
REMARK    4  A    between atoms: C_10  and  C_13
REMARK    5  A    between atoms: C_16  and  O_17
REMARK    6  A    between atoms: C_16  and  C_19
REMARK    7  A    between atoms: C_19  and  C_21
REMARK    8  A    between atoms: C_21  and  O_23
REMARK    9  A    between atoms: C_22  and  C_26
REMARK   10  A    between atoms: C_26  and  O_27
REMARK                            x       y       z     vdW  Elec       q    Type
REMARK                         _______ _______ _______ _____ _____    ______ ____
ROOT
ATOM      1  C   UNL     1     -36.372  22.150   2.136  0.00  0.00    +0.006 C 
ATOM      2  C   UNL     1     -36.147  20.830   2.257  0.00  0.00    +0.026 C 
ENDROOT
BRANCH   2   5
ATOM      3  S   UNL     1     -34.590  18.308  -0.344  0.00  0.00    -0.073 S 
ATOM      4  N   UNL     1     -33.977  20.072   1.444  0.00  0.00    -0.397 NA
ATOM      5  C   UNL     1     -35.356  19.993   1.388  0.00  0.00    +0.121 C 
ATOM      6  C   UNL     1     -33.469  19.228   0.573  0.00  0.00    +0.183 C 
ATOM      7  C   UNL     1     -35.872  19.093   0.480  0.00  0.00    +0.123 C 
BRANCH   6  11
ATOM      8  S   UNL     1     -29.617  19.459  -0.357  0.00  0.00    -0.079 S 
ATOM      9  N   UNL     1     -31.308  18.052   1.000  0.00  0.00    -0.400 NA
ATOM     10  C   UNL     1     -30.038  18.154   0.674  0.00  0.00    +0.134 C 
ATOM     11  C   UNL     1     -32.008  19.076   0.394  0.00  0.00    +0.156 C 
ATOM     12  C   UNL     1     -31.263  19.940  -0.381  0.00  0.00    +0.126 C 
BRANCH  10  13
ATOM     13  C   UNL     1     -28.980  17.231   1.137  0.00  0.00    +0.058 C 
ATOM     14  C   UNL     1     -28.583  16.180   0.076  0.00  0.00    +0.008 C 
ATOM     15  C   UNL     1     -27.711  17.964   1.633  0.00  0.00    +0.008 C 
ENDBRANCH  10  13
ENDBRANCH   6  11
ENDBRANCH   2   5
BRANCH   1  16
ATOM     16  C   UNL     1     -37.216  23.001   3.060  0.00  0.00    +0.144 C 
BRANCH  16  17
ATOM     17  O   UNL     1     -38.395  23.490   2.425  0.00  0.00    -0.349 OA
ATOM     18  C   UNL     1     -39.329  22.447   2.192  0.00  0.00    +0.174 C 
ENDBRANCH  16  17
BRANCH  16  19
ATOM     19  C   UNL     1     -36.411  24.175   3.674  0.00  0.00    +0.088 C 
ATOM     20  C   UNL     1     -37.302  25.411   3.860  0.00  0.00    +0.011 C 
BRANCH  19  21
ATOM     21  C   UNL     1     -35.724  23.818   4.985  0.00  0.00    +0.125 C 
ATOM     22  C   UNL     1     -34.685  24.533   5.453  0.00  0.00    +0.114 C 
BRANCH  21  23
ATOM     23  O   UNL     1     -36.261  22.722   5.629  0.00  0.00    -0.475 OA
ATOM     24  C   UNL     1     -35.253  21.988   6.297  0.00  0.00    +0.252 C 
ENDBRANCH  21  23
BRANCH  22  26
ATOM     25  O   UNL     1     -34.446  26.872   4.943  0.00  0.00    -0.245 OA
ATOM     26  C   UNL     1     -34.116  25.712   4.758  0.00  0.00    +0.344 C 
BRANCH  26  27
ATOM     27  O   UNL     1     -33.171  25.261   3.889  0.00  0.00    -0.441 OA
ATOM     28  C   UNL     1     -33.072  25.985   2.658  0.00  0.00    +0.256 C 
ENDBRANCH  26  27
ENDBRANCH  22  26
ENDBRANCH  19  21
ENDBRANCH  16  19
ENDBRANCH   1  16
TORSDOF 10
ENDMDL
MODEL 9
REMARK VINA RESULT:      -5.7      1.108      2.741
REMARK  Name = 5470965
REMARK  10 active torsions:
REMARK  status: ('A' for Active; 'I' for Inactive)
REMARK    1  A    between atoms: C_1  and  C_16
REMARK    2  A    between atoms: C_2  and  C_5
REMARK    3  A    between atoms: C_6  and  C_11
REMARK    4  A    between atoms: C_10  and  C_13
REMARK    5  A    between atoms: C_16  and  O_17
REMARK    6  A    between atoms: C_16  and  C_19
REMARK    7  A    between atoms: C_19  and  C_21
REMARK    8  A    between atoms: C_21  and  O_23
REMARK    9  A    between atoms: C_22  and  C_26
REMARK   10  A    between atoms: C_26  and  O_27
REMARK                            x       y       z     vdW  Elec       q    Type
REMARK                         _______ _______ _______ _____ _____    ______ ____
ROOT
ATOM      1  C   UNL     1     -38.897  24.811   2.131  0.00  0.00    +0.006 C 
ATOM      2  C   UNL     1     -40.112  24.954   2.690  0.00  0.00    +0.026 C 
ENDROOT
BRANCH   2   5
ATOM      3  S   UNL     1     -42.382  28.005   1.645  0.00  0.00    -0.073 S 
ATOM      4  N   UNL     1     -41.718  26.516   3.652  0.00  0.00    -0.397 NA
ATOM      5  C   UNL     1     -41.015  26.070   2.549  0.00  0.00    +0.121 C 
ATOM      6  C   UNL     1     -42.470  27.532   3.292  0.00  0.00    +0.183 C 
ATOM      7  C   UNL     1     -41.242  26.753   1.373  0.00  0.00    +0.123 C 
BRANCH   6  11
ATOM      8  S   UNL     1     -45.362  28.897   5.646  0.00  0.00    -0.079 S 
ATOM      9  N   UNL     1     -42.891  29.301   5.004  0.00  0.00    -0.400 NA
ATOM     10  C   UNL     1     -43.868  29.732   5.771  0.00  0.00    +0.134 C 
ATOM     11  C   UNL     1     -43.347  28.234   4.257  0.00  0.00    +0.156 C 
ATOM     12  C   UNL     1     -44.660  27.868   4.466  0.00  0.00    +0.126 C 
BRANCH  10  13
ATOM     13  C   UNL     1     -43.753  30.865   6.714  0.00  0.00    +0.058 C 
ATOM     14  C   UNL     1     -44.763  31.999   6.427  0.00  0.00    +0.008 C 
ATOM     15  C   UNL     1     -43.872  30.435   8.195  0.00  0.00    +0.008 C 
ENDBRANCH  10  13
ENDBRANCH   6  11
ENDBRANCH   2   5
BRANCH   1  16
ATOM     16  C   UNL     1     -37.966  23.631   2.306  0.00  0.00    +0.144 C 
BRANCH  16  17
ATOM     17  O   UNL     1     -38.619  22.504   2.888  0.00  0.00    -0.349 OA
ATOM     18  C   UNL     1     -39.087  21.606   1.894  0.00  0.00    +0.174 C 
ENDBRANCH  16  17
BRANCH  16  19
ATOM     19  C   UNL     1     -36.701  23.999   3.123  0.00  0.00    +0.088 C 
ATOM     20  C   UNL     1     -37.016  25.086   4.159  0.00  0.00    +0.011 C 
BRANCH  19  21
ATOM     21  C   UNL     1     -36.047  22.802   3.798  0.00  0.00    +0.125 C 
ATOM     22  C   UNL     1     -35.292  21.929   3.106  0.00  0.00    +0.114 C 
BRANCH  21  23
ATOM     23  O   UNL     1     -36.294  22.706   5.152  0.00  0.00    -0.475 OA
ATOM     24  C   UNL     1     -35.197  22.119   5.823  0.00  0.00    +0.252 C 
ENDBRANCH  21  23
BRANCH  22  26
ATOM     25  O   UNL     1     -34.289  22.856   1.126  0.00  0.00    -0.245 OA
ATOM     26  C   UNL     1     -35.026  22.039   1.652  0.00  0.00    +0.344 C 
BRANCH  26  27
ATOM     27  O   UNL     1     -35.751  21.072   1.027  0.00  0.00    -0.441 OA
ATOM     28  C   UNL     1     -35.201  19.752   1.094  0.00  0.00    +0.256 C 
ENDBRANCH  26  27
ENDBRANCH  22  26
ENDBRANCH  19  21
ENDBRANCH  16  19
ENDBRANCH   1  16
TORSDOF 10
ENDMDL
