MODEL 1
REMARK VINA RESULT:      -6.0      0.000      0.000
REMARK  Name = 5433
REMARK  8 active torsions:
REMARK  status: ('A' for Active; 'I' for Inactive)
REMARK    1  A    between atoms: C_1  and  C_2
REMARK    2  A    between atoms: C_1  and  O_12
REMARK    3  A    between atoms: C_1  and  CA_14
REMARK    4  A    between atoms: C_5  and  S_8
REMARK    5  A    between atoms: CA_14  and  N_16
REMARK    6  A    between atoms: CA_14  and  C_22
REMARK    7  A    between atoms: C_17  and  C_21
REMARK    8  A    between atoms: C_22  and  O_23
REMARK                            x       y       z     vdW  Elec       q    Type
REMARK                         _______ _______ _______ _____ _____    ______ ____
ROOT
ATOM      1  C   UNL     1     -36.690  20.631   1.813  0.00  0.00    +0.153 C 
ENDROOT
BRANCH   1   2
ATOM      2  C   UNL     1     -35.319  20.682   1.176  0.00  0.00    +0.006 C 
ATOM      3  C   UNL     1     -34.986  21.758   0.372  0.00  0.00    -0.001 C 
ATOM      4  C   UNL     1     -34.425  19.650   1.411  0.00  0.00    -0.001 C 
ATOM      5  C   UNL     1     -32.809  20.774   0.011  0.00  0.00    +0.106 C 
ATOM      6  C   UNL     1     -33.722  21.804  -0.216  0.00  0.00    +0.018 C 
ATOM      7  C   UNL     1     -33.160  19.698   0.824  0.00  0.00    +0.018 C 
BRANCH   5   8
ATOM      8  S   UNL     1     -31.227  20.834  -0.725  0.00  0.00    +0.010 S 
ATOM      9  O   UNL     1     -30.805  22.227  -0.767  0.00  0.00    -0.169 OA
ATOM     10  O   UNL     1     -30.372  19.839  -0.092  0.00  0.00    -0.169 OA
ATOM     11  C   UNL     1     -31.497  20.295  -2.398  0.00  0.00    +0.182 C 
ENDBRANCH   5   8
ENDBRANCH   1   2
BRANCH   1  12
ATOM     12  O   UNL     1     -36.584  19.798   2.971  0.00  0.00    -0.378 OA
ATOM     13  H   UNL     1     -37.440  19.374   3.145  0.00  0.00    +0.211 HD
ENDBRANCH   1  12
BRANCH   1  14
ATOM     14  CA  UNL     1     -37.241  22.014   2.223  0.00  0.00    +0.132 C 
BRANCH  14  16
ATOM     15  O   UNL     1     -35.315  23.961   3.068  0.00  0.00    -0.272 OA
ATOM     16  N   UNL     1     -36.852  22.306   3.589  0.00  0.00    -0.299 N 
ATOM     17  C   UNL     1     -35.907  23.270   3.894  0.00  0.00    +0.253 C 
ATOM     18  H   UNL     1     -37.272  21.802   4.323  0.00  0.00    +0.150 HD
BRANCH  17  21
ATOM     19 CL   UNL     1     -34.918  21.894   5.947  0.00  0.00    -0.087 Cl
ATOM     20 CL   UNL     1     -34.608  24.784   5.656  0.00  0.00    -0.087 Cl
ATOM     21  C   UNL     1     -35.671  23.394   5.382  0.00  0.00    +0.234 C 
ENDBRANCH  17  21
ENDBRANCH  14  16
BRANCH  14  22
ATOM     22  C   UNL     1     -38.762  22.149   2.088  0.00  0.00    +0.159 C 
BRANCH  22  23
ATOM     23  O   UNL     1     -39.415  20.895   2.242  0.00  0.00    -0.380 OA
ATOM     24  H   UNL     1     -39.042  20.428   3.007  0.00  0.00    +0.211 HD
ENDBRANCH  22  23
ENDBRANCH  14  22
ENDBRANCH   1  14
TORSDOF 8
ENDMDL
MODEL 2
REMARK VINA RESULT:      -5.9      0.102      1.058
REMARK  Name = 5433
REMARK  8 active torsions:
REMARK  status: ('A' for Active; 'I' for Inactive)
REMARK    1  A    between atoms: C_1  and  C_2
REMARK    2  A    between atoms: C_1  and  O_12
REMARK    3  A    between atoms: C_1  and  CA_14
REMARK    4  A    between atoms: C_5  and  S_8
REMARK    5  A    between atoms: CA_14  and  N_16
REMARK    6  A    between atoms: CA_14  and  C_22
REMARK    7  A    between atoms: C_17  and  C_21
REMARK    8  A    between atoms: C_22  and  O_23
REMARK                            x       y       z     vdW  Elec       q    Type
REMARK                         _______ _______ _______ _____ _____    ______ ____
ROOT
ATOM      1  C   UNL     1     -36.765  20.663   1.768  0.00  0.00    +0.153 C 
ENDROOT
BRANCH   1   2
ATOM      2  C   UNL     1     -35.393  20.723   1.133  0.00  0.00    +0.006 C 
ATOM      3  C   UNL     1     -34.463  19.744   1.436  0.00  0.00    -0.001 C 
ATOM      4  C   UNL     1     -35.096  21.758   0.261  0.00  0.00    -0.001 C 
ATOM      5  C   UNL     1     -32.882  20.835  -0.028  0.00  0.00    +0.106 C 
ATOM      6  C   UNL     1     -33.198  19.800   0.851  0.00  0.00    +0.018 C 
ATOM      7  C   UNL     1     -33.830  21.814  -0.324  0.00  0.00    +0.018 C 
BRANCH   5   8
ATOM      8  S   UNL     1     -31.299  20.903  -0.760  0.00  0.00    +0.010 S 
ATOM      9  O   UNL     1     -30.862  22.293  -0.753  0.00  0.00    -0.169 OA
ATOM     10  O   UNL     1     -30.456  19.878  -0.161  0.00  0.00    -0.169 OA
ATOM     11  C   UNL     1     -31.572  20.425  -2.451  0.00  0.00    +0.182 C 
ENDBRANCH   5   8
ENDBRANCH   1   2
BRANCH   1  12
ATOM     12  O   UNL     1     -36.661  19.809   2.911  0.00  0.00    -0.378 OA
ATOM     13  H   UNL     1     -35.927  20.107   3.472  0.00  0.00    +0.211 HD
ENDBRANCH   1  12
BRANCH   1  14
ATOM     14  CA  UNL     1     -37.313  22.040   2.203  0.00  0.00    +0.132 C 
BRANCH  14  16
ATOM     15  O   UNL     1     -35.290  23.906   3.006  0.00  0.00    -0.272 OA
ATOM     16  N   UNL     1     -36.891  22.324   3.561  0.00  0.00    -0.299 N 
ATOM     17  C   UNL     1     -35.900  23.247   3.845  0.00  0.00    +0.253 C 
ATOM     18  H   UNL     1     -37.322  21.844   4.305  0.00  0.00    +0.150 HD
BRANCH  17  21
ATOM     19 CL   UNL     1     -34.907  21.856   5.886  0.00  0.00    -0.087 Cl
ATOM     20 CL   UNL     1     -34.539  24.738   5.580  0.00  0.00    -0.087 Cl
ATOM     21  C   UNL     1     -35.637  23.371   5.328  0.00  0.00    +0.234 C 
ENDBRANCH  17  21
ENDBRANCH  14  16
BRANCH  14  22
ATOM     22  C   UNL     1     -38.837  22.168   2.107  0.00  0.00    +0.159 C 
BRANCH  22  23
ATOM     23  O   UNL     1     -39.477  20.903   2.228  0.00  0.00    -0.380 OA
ATOM     24  H   UNL     1     -39.687  20.561   1.344  0.00  0.00    +0.211 HD
ENDBRANCH  22  23
ENDBRANCH  14  22
ENDBRANCH   1  14
TORSDOF 8
ENDMDL
MODEL 3
REMARK VINA RESULT:      -5.9      4.245      6.048
REMARK  Name = 5433
REMARK  8 active torsions:
REMARK  status: ('A' for Active; 'I' for Inactive)
REMARK    1  A    between atoms: C_1  and  C_2
REMARK    2  A    between atoms: C_1  and  O_12
REMARK    3  A    between atoms: C_1  and  CA_14
REMARK    4  A    between atoms: C_5  and  S_8
REMARK    5  A    between atoms: CA_14  and  N_16
REMARK    6  A    between atoms: CA_14  and  C_22
REMARK    7  A    between atoms: C_17  and  C_21
REMARK    8  A    between atoms: C_22  and  O_23
REMARK                            x       y       z     vdW  Elec       q    Type
REMARK                         _______ _______ _______ _____ _____    ______ ____
ROOT
ATOM      1  C   UNL     1     -35.340  22.539   4.400  0.00  0.00    +0.153 C 
ENDROOT
BRANCH   1   2
ATOM      2  C   UNL     1     -34.743  23.928   4.389  0.00  0.00    +0.006 C 
ATOM      3  C   UNL     1     -34.690  24.652   5.568  0.00  0.00    -0.001 C 
ATOM      4  C   UNL     1     -34.262  24.448   3.199  0.00  0.00    -0.001 C 
ATOM      5  C   UNL     1     -33.652  26.473   4.367  0.00  0.00    +0.106 C 
ATOM      6  C   UNL     1     -34.140  25.934   5.557  0.00  0.00    +0.018 C 
ATOM      7  C   UNL     1     -33.712  25.731   3.188  0.00  0.00    +0.018 C 
BRANCH   5   8
ATOM      8  S   UNL     1     -32.963  28.077   4.355  0.00  0.00    +0.010 S 
ATOM      9  O   UNL     1     -33.896  28.959   3.668  0.00  0.00    -0.169 OA
ATOM     10  O   UNL     1     -32.513  28.409   5.700  0.00  0.00    -0.169 OA
ATOM     11  C   UNL     1     -31.508  27.926   3.344  0.00  0.00    +0.182 C 
ENDBRANCH   5   8
ENDBRANCH   1   2
BRANCH   1  12
ATOM     12  O   UNL     1     -36.343  22.522   5.420  0.00  0.00    -0.378 OA
ATOM     13  H   UNL     1     -37.067  21.933   5.153  0.00  0.00    +0.211 HD
ENDBRANCH   1  12
BRANCH   1  14
ATOM     14  CA  UNL     1     -35.968  22.117   3.054  0.00  0.00    +0.132 C 
BRANCH  14  16
ATOM     15  O   UNL     1     -37.448  24.118   1.630  0.00  0.00    -0.272 OA
ATOM     16  N   UNL     1     -37.402  22.326   3.101  0.00  0.00    -0.299 N 
ATOM     17  C   UNL     1     -38.024  23.325   2.373  0.00  0.00    +0.253 C 
ATOM     18  H   UNL     1     -37.952  21.739   3.669  0.00  0.00    +0.150 HD
BRANCH  17  21
ATOM     19 CL   UNL     1     -39.943  24.859   3.396  0.00  0.00    -0.087 Cl
ATOM     20 CL   UNL     1     -40.299  23.233   0.995  0.00  0.00    -0.087 Cl
ATOM     21  C   UNL     1     -39.520  23.343   2.582  0.00  0.00    +0.234 C 
ENDBRANCH  17  21
ENDBRANCH  14  16
BRANCH  14  22
ATOM     22  C   UNL     1     -35.678  20.666   2.653  0.00  0.00    +0.159 C 
BRANCH  22  23
ATOM     23  O   UNL     1     -36.850  19.863   2.712  0.00  0.00    -0.380 OA
ATOM     24  H   UNL     1     -37.201  19.869   3.616  0.00  0.00    +0.211 HD
ENDBRANCH  22  23
ENDBRANCH  14  22
ENDBRANCH   1  14
TORSDOF 8
ENDMDL
MODEL 4
REMARK VINA RESULT:      -5.9      4.388      6.626
REMARK  Name = 5433
REMARK  8 active torsions:
REMARK  status: ('A' for Active; 'I' for Inactive)
REMARK    1  A    between atoms: C_1  and  C_2
REMARK    2  A    between atoms: C_1  and  O_12
REMARK    3  A    between atoms: C_1  and  CA_14
REMARK    4  A    between atoms: C_5  and  S_8
REMARK    5  A    between atoms: CA_14  and  N_16
REMARK    6  A    between atoms: CA_14  and  C_22
REMARK    7  A    between atoms: C_17  and  C_21
REMARK    8  A    between atoms: C_22  and  O_23
REMARK                            x       y       z     vdW  Elec       q    Type
REMARK                         _______ _______ _______ _____ _____    ______ ____
ROOT
ATOM      1  C   UNL     1     -36.139  24.469   5.357  0.00  0.00    +0.153 C 
ENDROOT
BRANCH   1   2
ATOM      2  C   UNL     1     -35.085  25.529   5.127  0.00  0.00    +0.006 C 
ATOM      3  C   UNL     1     -35.006  26.149   3.892  0.00  0.00    -0.001 C 
ATOM      4  C   UNL     1     -34.219  25.857   6.157  0.00  0.00    -0.001 C 
ATOM      5  C   UNL     1     -33.153  27.468   4.706  0.00  0.00    +0.106 C 
ATOM      6  C   UNL     1     -34.033  27.126   3.680  0.00  0.00    +0.018 C 
ATOM      7  C   UNL     1     -33.246  26.834   5.945  0.00  0.00    +0.018 C 
BRANCH   5   8
ATOM      8  S   UNL     1     -31.936  28.691   4.439  0.00  0.00    +0.010 S 
ATOM      9  O   UNL     1     -32.372  29.909   5.108  0.00  0.00    -0.169 OA
ATOM     10  O   UNL     1     -30.627  28.130   4.740  0.00  0.00    -0.169 OA
ATOM     11  C   UNL     1     -31.982  28.984   2.685  0.00  0.00    +0.182 C 
ENDBRANCH   5   8
ENDBRANCH   1   2
BRANCH   1  12
ATOM     12  O   UNL     1     -37.276  24.831   4.568  0.00  0.00    -0.378 OA
ATOM     13  H   UNL     1     -37.127  25.701   4.164  0.00  0.00    +0.211 HD
ENDBRANCH   1  12
BRANCH   1  14
ATOM     14  CA  UNL     1     -35.684  23.043   4.981  0.00  0.00    +0.132 C 
BRANCH  14  16
ATOM     15  O   UNL     1     -35.218  22.364   2.234  0.00  0.00    -0.272 OA
ATOM     16  N   UNL     1     -36.640  22.454   4.063  0.00  0.00    -0.299 N 
ATOM     17  C   UNL     1     -36.316  22.163   2.750  0.00  0.00    +0.253 C 
ATOM     18  H   UNL     1     -37.550  22.256   4.384  0.00  0.00    +0.150 HD
BRANCH  17  21
ATOM     19 CL   UNL     1     -38.910  22.547   2.293  0.00  0.00    -0.087 Cl
ATOM     20 CL   UNL     1     -37.058  21.541   0.270  0.00  0.00    -0.087 Cl
ATOM     21  C   UNL     1     -37.474  21.555   1.992  0.00  0.00    +0.234 C 
ENDBRANCH  17  21
ENDBRANCH  14  16
BRANCH  14  22
ATOM     22  C   UNL     1     -35.489  22.108   6.180  0.00  0.00    +0.159 C 
BRANCH  22  23
ATOM     23  O   UNL     1     -35.270  20.765   5.767  0.00  0.00    -0.380 OA
ATOM     24  H   UNL     1     -34.489  20.410   6.221  0.00  0.00    +0.211 HD
ENDBRANCH  22  23
ENDBRANCH  14  22
ENDBRANCH   1  14
TORSDOF 8
ENDMDL
MODEL 5
REMARK VINA RESULT:      -5.3      4.152      6.363
REMARK  Name = 5433
REMARK  8 active torsions:
REMARK  status: ('A' for Active; 'I' for Inactive)
REMARK    1  A    between atoms: C_1  and  C_2
REMARK    2  A    between atoms: C_1  and  O_12
REMARK    3  A    between atoms: C_1  and  CA_14
REMARK    4  A    between atoms: C_5  and  S_8
REMARK    5  A    between atoms: CA_14  and  N_16
REMARK    6  A    between atoms: CA_14  and  C_22
REMARK    7  A    between atoms: C_17  and  C_21
REMARK    8  A    between atoms: C_22  and  O_23
REMARK                            x       y       z     vdW  Elec       q    Type
REMARK                         _______ _______ _______ _____ _____    ______ ____
ROOT
ATOM      1  C   UNL     1     -35.317  23.100   4.659  0.00  0.00    +0.153 C 
ENDROOT
BRANCH   1   2
ATOM      2  C   UNL     1     -34.623  24.444   4.649  0.00  0.00    +0.006 C 
ATOM      3  C   UNL     1     -33.976  24.863   3.500  0.00  0.00    -0.001 C 
ATOM      4  C   UNL     1     -34.650  25.227   5.791  0.00  0.00    -0.001 C 
ATOM      5  C   UNL     1     -33.352  26.903   4.633  0.00  0.00    +0.106 C 
ATOM      6  C   UNL     1     -33.335  26.102   3.491  0.00  0.00    +0.018 C 
ATOM      7  C   UNL     1     -34.009  26.466   5.782  0.00  0.00    +0.018 C 
BRANCH   5   8
ATOM      8  S   UNL     1     -32.550  28.454   4.620  0.00  0.00    +0.010 S 
ATOM      9  O   UNL     1     -33.335  29.357   3.790  0.00  0.00    -0.169 OA
ATOM     10  O   UNL     1     -32.224  28.830   5.989  0.00  0.00    -0.169 OA
ATOM     11  C   UNL     1     -31.009  28.147   3.787  0.00  0.00    +0.182 C 
ENDBRANCH   5   8
ENDBRANCH   1   2
BRANCH   1  12
ATOM     12  O   UNL     1     -35.985  22.982   5.919  0.00  0.00    -0.378 OA
ATOM     13  H   UNL     1     -35.432  22.471   6.532  0.00  0.00    +0.211 HD
ENDBRANCH   1  12
BRANCH   1  14
ATOM     14  CA  UNL     1     -36.340  22.915   3.517  0.00  0.00    +0.132 C 
BRANCH  14  16
ATOM     15  O   UNL     1     -35.610  20.203   2.940  0.00  0.00    -0.272 OA
ATOM     16  N   UNL     1     -35.659  22.439   2.328  0.00  0.00    -0.299 N 
ATOM     17  C   UNL     1     -35.350  21.103   2.143  0.00  0.00    +0.253 C 
ATOM     18  H   UNL     1     -35.408  23.087   1.630  0.00  0.00    +0.150 HD
BRANCH  17  21
ATOM     19 CL   UNL     1     -33.859  22.358   0.330  0.00  0.00    -0.087 Cl
ATOM     20 CL   UNL     1     -33.454  19.565   1.083  0.00  0.00    -0.087 Cl
ATOM     21  C   UNL     1     -34.645  20.851   0.830  0.00  0.00    +0.234 C 
ENDBRANCH  17  21
ENDBRANCH  14  16
BRANCH  14  22
ATOM     22  C   UNL     1     -37.135  24.180   3.175  0.00  0.00    +0.159 C 
BRANCH  22  23
ATOM     23  O   UNL     1     -37.956  24.591   4.261  0.00  0.00    -0.380 OA
ATOM     24  H   UNL     1     -37.761  24.045   5.039  0.00  0.00    +0.211 HD
ENDBRANCH  22  23
ENDBRANCH  14  22
ENDBRANCH   1  14
TORSDOF 8
ENDMDL
MODEL 6
REMARK VINA RESULT:      -5.3      4.674      6.729
REMARK  Name = 5433
REMARK  8 active torsions:
REMARK  status: ('A' for Active; 'I' for Inactive)
REMARK    1  A    between atoms: C_1  and  C_2
REMARK    2  A    between atoms: C_1  and  O_12
REMARK    3  A    between atoms: C_1  and  CA_14
REMARK    4  A    between atoms: C_5  and  S_8
REMARK    5  A    between atoms: CA_14  and  N_16
REMARK    6  A    between atoms: CA_14  and  C_22
REMARK    7  A    between atoms: C_17  and  C_21
REMARK    8  A    between atoms: C_22  and  O_23
REMARK                            x       y       z     vdW  Elec       q    Type
REMARK                         _______ _______ _______ _____ _____    ______ ____
ROOT
ATOM      1  C   UNL     1     -36.176  22.577   3.769  0.00  0.00    +0.153 C 
ENDROOT
BRANCH   1   2
ATOM      2  C   UNL     1     -37.396  23.205   3.132  0.00  0.00    +0.006 C 
ATOM      3  C   UNL     1     -38.243  22.418   2.369  0.00  0.00    -0.001 C 
ATOM      4  C   UNL     1     -37.640  24.555   3.324  0.00  0.00    -0.001 C 
ATOM      5  C   UNL     1     -39.627  24.355   1.964  0.00  0.00    +0.106 C 
ATOM      6  C   UNL     1     -39.366  22.998   1.781  0.00  0.00    +0.018 C 
ATOM      7  C   UNL     1     -38.765  25.134   2.735  0.00  0.00    +0.018 C 
BRANCH   5   8
ATOM      8  S   UNL     1     -41.035  25.079   1.228  0.00  0.00    +0.010 S 
ATOM      9  O   UNL     1     -40.586  25.893   0.107  0.00  0.00    -0.169 OA
ATOM     10  O   UNL     1     -42.041  24.047   1.014  0.00  0.00    -0.169 OA
ATOM     11  C   UNL     1     -41.674  26.174   2.476  0.00  0.00    +0.182 C 
ENDBRANCH   5   8
ENDBRANCH   1   2
BRANCH   1  12
ATOM     12  O   UNL     1     -35.078  22.797   2.879  0.00  0.00    -0.378 OA
ATOM     13  H   UNL     1     -34.639  23.632   3.106  0.00  0.00    +0.211 HD
ENDBRANCH   1  12
BRANCH   1  14
ATOM     14  CA  UNL     1     -35.833  23.151   5.161  0.00  0.00    +0.132 C 
BRANCH  14  16
ATOM     15  O   UNL     1     -35.850  25.924   5.889  0.00  0.00    -0.272 OA
ATOM     16  N   UNL     1     -34.726  24.081   5.043  0.00  0.00    -0.299 N 
ATOM     17  C   UNL     1     -34.836  25.407   5.424  0.00  0.00    +0.253 C 
ATOM     18  H   UNL     1     -33.869  23.760   4.679  0.00  0.00    +0.150 HD
BRANCH  17  21
ATOM     19 CL   UNL     1     -33.856  27.421   3.986  0.00  0.00    -0.087 Cl
ATOM     20 CL   UNL     1     -33.082  26.902   6.754  0.00  0.00    -0.087 Cl
ATOM     21  C   UNL     1     -33.553  26.176   5.209  0.00  0.00    +0.234 C 
ENDBRANCH  17  21
ENDBRANCH  14  16
BRANCH  14  22
ATOM     22  C   UNL     1     -35.494  22.088   6.212  0.00  0.00    +0.159 C 
BRANCH  22  23
ATOM     23  O   UNL     1     -35.224  20.827   5.613  0.00  0.00    -0.380 OA
ATOM     24  H   UNL     1     -35.982  20.235   5.750  0.00  0.00    +0.211 HD
ENDBRANCH  22  23
ENDBRANCH  14  22
ENDBRANCH   1  14
TORSDOF 8
ENDMDL
MODEL 7
REMARK VINA RESULT:      -5.2      2.224      2.734
REMARK  Name = 5433
REMARK  8 active torsions:
REMARK  status: ('A' for Active; 'I' for Inactive)
REMARK    1  A    between atoms: C_1  and  C_2
REMARK    2  A    between atoms: C_1  and  O_12
REMARK    3  A    between atoms: C_1  and  CA_14
REMARK    4  A    between atoms: C_5  and  S_8
REMARK    5  A    between atoms: CA_14  and  N_16
REMARK    6  A    between atoms: CA_14  and  C_22
REMARK    7  A    between atoms: C_17  and  C_21
REMARK    8  A    between atoms: C_22  and  O_23
REMARK                            x       y       z     vdW  Elec       q    Type
REMARK                         _______ _______ _______ _____ _____    ______ ____
ROOT
ATOM      1  C   UNL     1     -36.374  20.201   1.411  0.00  0.00    +0.153 C 
ENDROOT
BRANCH   1   2
ATOM      2  C   UNL     1     -35.189  19.327   1.064  0.00  0.00    +0.006 C 
ATOM      3  C   UNL     1     -35.311  18.391   0.051  0.00  0.00    -0.001 C 
ATOM      4  C   UNL     1     -34.006  19.482   1.768  0.00  0.00    -0.001 C 
ATOM      5  C   UNL     1     -33.019  17.728   0.431  0.00  0.00    +0.106 C 
ATOM      6  C   UNL     1     -34.218  17.585  -0.267  0.00  0.00    +0.018 C 
ATOM      7  C   UNL     1     -32.913  18.675   1.448  0.00  0.00    +0.018 C 
BRANCH   5   8
ATOM      8  S   UNL     1     -31.653  16.718   0.031  0.00  0.00    +0.010 S 
ATOM      9  O   UNL     1     -30.511  17.181   0.807  0.00  0.00    -0.169 OA
ATOM     10  O   UNL     1     -32.058  15.321   0.104  0.00  0.00    -0.169 OA
ATOM     11  C   UNL     1     -31.328  17.073  -1.682  0.00  0.00    +0.182 C 
ENDBRANCH   5   8
ENDBRANCH   1   2
BRANCH   1  12
ATOM     12  O   UNL     1     -36.964  19.655   2.595  0.00  0.00    -0.378 OA
ATOM     13  H   UNL     1     -37.909  19.878   2.617  0.00  0.00    +0.211 HD
ENDBRANCH   1  12
BRANCH   1  14
ATOM     14  CA  UNL     1     -36.009  21.682   1.654  0.00  0.00    +0.132 C 
BRANCH  14  16
ATOM     15  O   UNL     1     -34.642  23.722   3.133  0.00  0.00    -0.272 OA
ATOM     16  N   UNL     1     -36.197  22.005   3.056  0.00  0.00    -0.299 N 
ATOM     17  C   UNL     1     -35.484  23.012   3.680  0.00  0.00    +0.253 C 
ATOM     18  H   UNL     1     -36.852  21.490   3.580  0.00  0.00    +0.150 HD
BRANCH  17  21
ATOM     19 CL   UNL     1     -35.008  21.903   6.051  0.00  0.00    -0.087 Cl
ATOM     20 CL   UNL     1     -35.358  24.777   5.668  0.00  0.00    -0.087 Cl
ATOM     21  C   UNL     1     -35.854  23.162   5.137  0.00  0.00    +0.234 C 
ENDBRANCH  17  21
ENDBRANCH  14  16
BRANCH  14  22
ATOM     22  C   UNL     1     -36.801  22.673   0.793  0.00  0.00    +0.159 C 
BRANCH  22  23
ATOM     23  O   UNL     1     -36.003  23.785   0.408  0.00  0.00    -0.380 OA
ATOM     24  H   UNL     1     -35.100  23.667   0.744  0.00  0.00    +0.211 HD
ENDBRANCH  22  23
ENDBRANCH  14  22
ENDBRANCH   1  14
TORSDOF 8
ENDMDL
MODEL 8
REMARK VINA RESULT:      -5.1      4.079      5.584
REMARK  Name = 5433
REMARK  8 active torsions:
REMARK  status: ('A' for Active; 'I' for Inactive)
REMARK    1  A    between atoms: C_1  and  C_2
REMARK    2  A    between atoms: C_1  and  O_12
REMARK    3  A    between atoms: C_1  and  CA_14
REMARK    4  A    between atoms: C_5  and  S_8
REMARK    5  A    between atoms: CA_14  and  N_16
REMARK    6  A    between atoms: CA_14  and  C_22
REMARK    7  A    between atoms: C_17  and  C_21
REMARK    8  A    between atoms: C_22  and  O_23
REMARK                            x       y       z     vdW  Elec       q    Type
REMARK                         _______ _______ _______ _____ _____    ______ ____
ROOT
ATOM      1  C   UNL     1     -35.718  20.631   2.071  0.00  0.00    +0.153 C 
ENDROOT
BRANCH   1   2
ATOM      2  C   UNL     1     -35.442  21.977   2.703  0.00  0.00    +0.006 C 
ATOM      3  C   UNL     1     -34.992  23.018   1.909  0.00  0.00    -0.001 C 
ATOM      4  C   UNL     1     -35.643  22.139   4.064  0.00  0.00    -0.001 C 
ATOM      5  C   UNL     1     -34.933  24.440   3.862  0.00  0.00    +0.106 C 
ATOM      6  C   UNL     1     -34.736  24.259   2.493  0.00  0.00    +0.018 C 
ATOM      7  C   UNL     1     -35.387  23.381   4.647  0.00  0.00    +0.018 C 
BRANCH   5   8
ATOM      8  S   UNL     1     -34.613  25.993   4.590  0.00  0.00    +0.010 S 
ATOM      9  O   UNL     1     -35.783  26.373   5.369  0.00  0.00    -0.169 OA
ATOM     10  O   UNL     1     -33.303  25.958   5.225  0.00  0.00    -0.169 OA
ATOM     11  C   UNL     1     -34.488  27.110   3.211  0.00  0.00    +0.182 C 
ENDBRANCH   5   8
ENDBRANCH   1   2
BRANCH   1  12
ATOM     12  O   UNL     1     -36.565  19.911   2.972  0.00  0.00    -0.378 OA
ATOM     13  H   UNL     1     -36.137  19.852   3.841  0.00  0.00    +0.211 HD
ENDBRANCH   1  12
BRANCH   1  14
ATOM     14  CA  UNL     1     -36.397  20.718   0.687  0.00  0.00    +0.132 C 
BRANCH  14  16
ATOM     15  O   UNL     1     -37.623  22.856  -0.779  0.00  0.00    -0.272 OA
ATOM     16  N   UNL     1     -37.755  21.203   0.841  0.00  0.00    -0.299 N 
ATOM     17  C   UNL     1     -38.254  22.246   0.082  0.00  0.00    +0.253 C 
ATOM     18  H   UNL     1     -38.341  20.777   1.508  0.00  0.00    +0.150 HD
BRANCH  17  21
ATOM     19 CL   UNL     1     -40.695  21.198  -0.074  0.00  0.00    -0.087 Cl
ATOM     20 CL   UNL     1     -39.796  22.838   2.169  0.00  0.00    -0.087 Cl
ATOM     21  C   UNL     1     -39.691  22.569   0.422  0.00  0.00    +0.234 C 
ENDBRANCH  17  21
ENDBRANCH  14  16
BRANCH  14  22
ATOM     22  C   UNL     1     -36.414  19.396  -0.089  0.00  0.00    +0.159 C 
BRANCH  22  23
ATOM     23  O   UNL     1     -37.036  18.358   0.660  0.00  0.00    -0.380 OA
ATOM     24  H   UNL     1     -36.527  18.195   1.470  0.00  0.00    +0.211 HD
ENDBRANCH  22  23
ENDBRANCH  14  22
ENDBRANCH   1  14
TORSDOF 8
ENDMDL
MODEL 9
REMARK VINA RESULT:      -5.1      2.253      3.098
REMARK  Name = 5433
REMARK  8 active torsions:
REMARK  status: ('A' for Active; 'I' for Inactive)
REMARK    1  A    between atoms: C_1  and  C_2
REMARK    2  A    between atoms: C_1  and  O_12
REMARK    3  A    between atoms: C_1  and  CA_14
REMARK    4  A    between atoms: C_5  and  S_8
REMARK    5  A    between atoms: CA_14  and  N_16
REMARK    6  A    between atoms: CA_14  and  C_22
REMARK    7  A    between atoms: C_17  and  C_21
REMARK    8  A    between atoms: C_22  and  O_23
REMARK                            x       y       z     vdW  Elec       q    Type
REMARK                         _______ _______ _______ _____ _____    ______ ____
ROOT
ATOM      1  C   UNL     1     -36.760  22.782   2.899  0.00  0.00    +0.153 C 
ENDROOT
BRANCH   1   2
ATOM      2  C   UNL     1     -35.709  21.948   2.200  0.00  0.00    +0.006 C 
ATOM      3  C   UNL     1     -35.459  20.662   2.646  0.00  0.00    -0.001 C 
ATOM      4  C   UNL     1     -35.018  22.490   1.129  0.00  0.00    -0.001 C 
ATOM      5  C   UNL     1     -33.785  20.423   0.922  0.00  0.00    +0.106 C 
ATOM      6  C   UNL     1     -34.490  19.893   2.002  0.00  0.00    +0.018 C 
ATOM      7  C   UNL     1     -34.048  21.720   0.485  0.00  0.00    +0.018 C 
BRANCH   5   8
ATOM      8  S   UNL     1     -32.572  19.459   0.117  0.00  0.00    +0.010 S 
ATOM      9  O   UNL     1     -33.161  18.925  -1.103  0.00  0.00    -0.169 OA
ATOM     10  O   UNL     1     -31.332  20.219   0.047  0.00  0.00    -0.169 OA
ATOM     11  C   UNL     1     -32.282  18.098   1.224  0.00  0.00    +0.182 C 
ENDBRANCH   5   8
ENDBRANCH   1   2
BRANCH   1  12
ATOM     12  O   UNL     1     -36.676  22.479   4.295  0.00  0.00    -0.378 OA
ATOM     13  H   UNL     1     -35.844  22.827   4.653  0.00  0.00    +0.211 HD
ENDBRANCH   1  12
BRANCH   1  14
ATOM     14  CA  UNL     1     -36.589  24.303   2.693  0.00  0.00    +0.132 C 
BRANCH  14  16
ATOM     15  O   UNL     1     -34.401  26.061   2.108  0.00  0.00    -0.272 OA
ATOM     16  N   UNL     1     -35.616  24.816   3.639  0.00  0.00    -0.299 N 
ATOM     17  C   UNL     1     -34.592  25.662   3.255  0.00  0.00    +0.253 C 
ATOM     18  H   UNL     1     -35.687  24.552   4.585  0.00  0.00    +0.150 HD
BRANCH  17  21
ATOM     19 CL   UNL     1     -33.124  27.707   4.119  0.00  0.00    -0.087 Cl
ATOM     20 CL   UNL     1     -34.681  25.988   5.895  0.00  0.00    -0.087 Cl
ATOM     21  C   UNL     1     -33.710  26.063   4.415  0.00  0.00    +0.234 C 
ENDBRANCH  17  21
ENDBRANCH  14  16
BRANCH  14  22
ATOM     22  C   UNL     1     -37.890  25.104   2.817  0.00  0.00    +0.159 C 
BRANCH  22  23
ATOM     23  O   UNL     1     -38.487  24.937   4.097  0.00  0.00    -0.380 OA
ATOM     24  H   UNL     1     -39.440  25.112   4.035  0.00  0.00    +0.211 HD
ENDBRANCH  22  23
ENDBRANCH  14  22
ENDBRANCH   1  14
TORSDOF 8
ENDMDL
