MODEL 1
REMARK VINA RESULT:      -5.3      0.000      0.000
REMARK  Name = 196960
REMARK  12 active torsions:
REMARK  status: ('A' for Active; 'I' for Inactive)
REMARK    1  A    between atoms: N_3  and  N_9
REMARK    2  A    between atoms: C_5  and  C_19
REMARK    3  A    between atoms: N_9  and  C_10
REMARK    4  A    between atoms: C_10  and  C_12
REMARK    5  A    between atoms: C_12  and  C_13
REMARK    6  A    between atoms: C_19  and  C_20
REMARK    7  A    between atoms: C_20  and  C_21
REMARK    8  A    between atoms: C_21  and  C_22
REMARK    9  A    between atoms: C_22  and  C_23
REMARK   10  A    between atoms: C_23  and  C_24
REMARK   11  A    between atoms: C_24  and  C_26
REMARK   12  A    between atoms: C_26  and  O_27
REMARK                            x       y       z     vdW  Elec       q    Type
REMARK                         _______ _______ _______ _____ _____    ______ ____
ROOT
ATOM      1  O   UNL     1     -34.302  28.845   2.482  0.00  0.00    -0.273 OA
ATOM      2  O   UNL     1     -32.586  26.935   6.283  0.00  0.00    -0.251 OA
ATOM      3  N   UNL     1     -33.870  26.082   4.512  0.00  0.00    -0.184 N 
ATOM      4  N   UNL     1     -33.303  28.221   4.483  0.00  0.00    -0.237 N 
ATOM      5  C   UNL     1     -34.468  26.549   3.287  0.00  0.00    +0.171 C 
ATOM      6  C   UNL     1     -34.031  28.011   3.335  0.00  0.00    +0.249 C 
ATOM      7  C   UNL     1     -33.184  27.062   5.223  0.00  0.00    +0.325 C 
ATOM      8  H   UNL     1     -32.916  29.088   4.744  0.00  0.00    +0.159 HD
ENDROOT
BRANCH   3   9
ATOM      9  N   UNL     1     -33.930  24.801   4.912  0.00  0.00    -0.118 NA
BRANCH   9  10
ATOM     10  C   UNL     1     -35.067  24.485   5.425  0.00  0.00    +0.176 C 
BRANCH  10  12
ATOM     11  O   UNL     1     -35.949  22.454   6.182  0.00  0.00    -0.294 OA
ATOM     12  C   UNL     1     -35.581  23.097   5.212  0.00  0.00    +0.170 C 
BRANCH  12  13
ATOM     13  C   UNL     1     -35.631  22.624   3.790  0.00  0.00    +0.059 C 
ATOM     14  C   UNL     1     -37.012  22.907   3.194  0.00  0.00    +0.007 C 
ATOM     15  C   UNL     1     -35.290  21.133   3.724  0.00  0.00    +0.007 C 
ATOM     16  C   UNL     1     -37.139  22.356   1.775  0.00  0.00    +0.000 C 
ATOM     17  C   UNL     1     -35.420  20.586   2.305  0.00  0.00    +0.000 C 
ATOM     18  C   UNL     1     -36.798  20.870   1.717  0.00  0.00    +0.000 C 
ENDBRANCH  12  13
ENDBRANCH  10  12
ENDBRANCH   9  10
ENDBRANCH   3   9
BRANCH   5  19
ATOM     19  C   UNL     1     -33.932  25.850   2.048  0.00  0.00    +0.031 C 
BRANCH  19  20
ATOM     20  C   UNL     1     -35.066  25.321   1.169  0.00  0.00    +0.002 C 
BRANCH  20  21
ATOM     21  C   UNL     1     -35.691  26.443   0.336  0.00  0.00    +0.000 C 
BRANCH  21  22
ATOM     22  C   UNL     1     -37.221  26.457   0.381  0.00  0.00    +0.001 C 
BRANCH  22  23
ATOM     23  C   UNL     1     -37.848  26.363   1.776  0.00  0.00    +0.012 C 
BRANCH  23  24
ATOM     24  C   UNL     1     -39.126  25.528   1.813  0.00  0.00    +0.109 C 
BRANCH  24  26
ATOM     25  O   UNL     1     -40.652  26.852   3.172  0.00  0.00    -0.250 OA
ATOM     26  C   UNL     1     -39.972  25.846   3.025  0.00  0.00    +0.314 C 
BRANCH  26  27
ATOM     27  O   UNL     1     -39.897  24.859   3.956  0.00  0.00    -0.480 OA
ATOM     28  H   UNL     1     -39.100  24.378   4.064  0.00  0.00    +0.295 HD
ENDBRANCH  26  27
ENDBRANCH  24  26
ENDBRANCH  23  24
ENDBRANCH  22  23
ENDBRANCH  21  22
ENDBRANCH  20  21
ENDBRANCH  19  20
ENDBRANCH   5  19
TORSDOF 12
ENDMDL
MODEL 2
REMARK VINA RESULT:      -5.2      3.692      7.059
REMARK  Name = 196960
REMARK  12 active torsions:
REMARK  status: ('A' for Active; 'I' for Inactive)
REMARK    1  A    between atoms: N_3  and  N_9
REMARK    2  A    between atoms: C_5  and  C_19
REMARK    3  A    between atoms: N_9  and  C_10
REMARK    4  A    between atoms: C_10  and  C_12
REMARK    5  A    between atoms: C_12  and  C_13
REMARK    6  A    between atoms: C_19  and  C_20
REMARK    7  A    between atoms: C_20  and  C_21
REMARK    8  A    between atoms: C_21  and  C_22
REMARK    9  A    between atoms: C_22  and  C_23
REMARK   10  A    between atoms: C_23  and  C_24
REMARK   11  A    between atoms: C_24  and  C_26
REMARK   12  A    between atoms: C_26  and  O_27
REMARK                            x       y       z     vdW  Elec       q    Type
REMARK                         _______ _______ _______ _____ _____    ______ ____
ROOT
ATOM      1  O   UNL     1     -36.048  20.167   2.446  0.00  0.00    -0.273 OA
ATOM      2  O   UNL     1     -40.185  22.089   1.967  0.00  0.00    -0.251 OA
ATOM      3  N   UNL     1     -38.004  22.939   1.789  0.00  0.00    -0.184 N 
ATOM      4  N   UNL     1     -38.276  20.801   2.290  0.00  0.00    -0.237 N 
ATOM      5  C   UNL     1     -36.647  22.470   1.912  0.00  0.00    +0.171 C 
ATOM      6  C   UNL     1     -36.917  21.005   2.247  0.00  0.00    +0.249 C 
ATOM      7  C   UNL     1     -38.969  21.961   2.012  0.00  0.00    +0.325 C 
ATOM      8  H   UNL     1     -38.701  19.936   2.493  0.00  0.00    +0.159 HD
ENDROOT
BRANCH   3   9
ATOM      9  N   UNL     1     -38.313  24.200   1.444  0.00  0.00    -0.118 NA
BRANCH   9  10
ATOM     10  C   UNL     1     -38.405  24.991   2.453  0.00  0.00    +0.176 C 
BRANCH  10  12
ATOM     11  O   UNL     1     -37.713  27.142   1.845  0.00  0.00    -0.294 OA
ATOM     12  C   UNL     1     -37.474  26.159   2.528  0.00  0.00    +0.170 C 
BRANCH  12  13
ATOM     13  C   UNL     1     -36.326  26.027   3.484  0.00  0.00    +0.059 C 
ATOM     14  C   UNL     1     -35.050  25.669   2.720  0.00  0.00    +0.007 C 
ATOM     15  C   UNL     1     -36.653  24.977   4.549  0.00  0.00    +0.007 C 
ATOM     16  C   UNL     1     -33.873  25.432   3.665  0.00  0.00    +0.000 C 
ATOM     17  C   UNL     1     -35.474  24.742   5.490  0.00  0.00    +0.000 C 
ATOM     18  C   UNL     1     -34.205  24.384   4.723  0.00  0.00    +0.000 C 
ENDBRANCH  12  13
ENDBRANCH  10  12
ENDBRANCH   9  10
ENDBRANCH   3   9
BRANCH   5  19
ATOM     19  C   UNL     1     -35.841  22.607   0.630  0.00  0.00    +0.031 C 
BRANCH  19  20
ATOM     20  C   UNL     1     -34.341  22.684   0.916  0.00  0.00    +0.002 C 
BRANCH  20  21
ATOM     21  C   UNL     1     -33.536  22.827  -0.377  0.00  0.00    +0.000 C 
BRANCH  21  22
ATOM     22  C   UNL     1     -32.312  21.910  -0.438  0.00  0.00    +0.001 C 
BRANCH  22  23
ATOM     23  C   UNL     1     -32.606  20.407  -0.479  0.00  0.00    +0.012 C 
BRANCH  23  24
ATOM     24  C   UNL     1     -31.651  19.578   0.377  0.00  0.00    +0.109 C 
BRANCH  24  26
ATOM     25  O   UNL     1     -32.002  17.385   1.376  0.00  0.00    -0.250 OA
ATOM     26  C   UNL     1     -32.384  18.532   1.186  0.00  0.00    +0.314 C 
BRANCH  26  27
ATOM     27  O   UNL     1     -33.543  19.022   1.699  0.00  0.00    -0.480 OA
ATOM     28  H   UNL     1     -34.206  19.351   1.124  0.00  0.00    +0.295 HD
ENDBRANCH  26  27
ENDBRANCH  24  26
ENDBRANCH  23  24
ENDBRANCH  22  23
ENDBRANCH  21  22
ENDBRANCH  20  21
ENDBRANCH  19  20
ENDBRANCH   5  19
TORSDOF 12
ENDMDL
MODEL 3
REMARK VINA RESULT:      -5.2      2.927      5.063
REMARK  Name = 196960
REMARK  12 active torsions:
REMARK  status: ('A' for Active; 'I' for Inactive)
REMARK    1  A    between atoms: N_3  and  N_9
REMARK    2  A    between atoms: C_5  and  C_19
REMARK    3  A    between atoms: N_9  and  C_10
REMARK    4  A    between atoms: C_10  and  C_12
REMARK    5  A    between atoms: C_12  and  C_13
REMARK    6  A    between atoms: C_19  and  C_20
REMARK    7  A    between atoms: C_20  and  C_21
REMARK    8  A    between atoms: C_21  and  C_22
REMARK    9  A    between atoms: C_22  and  C_23
REMARK   10  A    between atoms: C_23  and  C_24
REMARK   11  A    between atoms: C_24  and  C_26
REMARK   12  A    between atoms: C_26  and  O_27
REMARK                            x       y       z     vdW  Elec       q    Type
REMARK                         _______ _______ _______ _____ _____    ______ ____
ROOT
ATOM      1  O   UNL     1     -36.615  25.029   4.345  0.00  0.00    -0.273 OA
ATOM      2  O   UNL     1     -35.298  21.010   6.121  0.00  0.00    -0.251 OA
ATOM      3  N   UNL     1     -35.562  21.766   3.913  0.00  0.00    -0.184 N 
ATOM      4  N   UNL     1     -36.007  23.157   5.577  0.00  0.00    -0.237 N 
ATOM      5  C   UNL     1     -35.959  22.966   3.222  0.00  0.00    +0.171 C 
ATOM      6  C   UNL     1     -36.239  23.867   4.422  0.00  0.00    +0.249 C 
ATOM      7  C   UNL     1     -35.590  21.871   5.301  0.00  0.00    +0.325 C 
ATOM      8  H   UNL     1     -36.124  23.520   6.484  0.00  0.00    +0.159 HD
ENDROOT
BRANCH   3   9
ATOM      9  N   UNL     1     -35.155  20.656   3.276  0.00  0.00    -0.118 NA
BRANCH   9  10
ATOM     10  C   UNL     1     -35.865  20.381   2.239  0.00  0.00    +0.176 C 
BRANCH  10  12
ATOM     11  O   UNL     1     -35.822  19.781  -0.022  0.00  0.00    -0.294 OA
ATOM     12  C   UNL     1     -35.162  19.959   0.989  0.00  0.00    +0.170 C 
BRANCH  12  13
ATOM     13  C   UNL     1     -33.671  19.823   1.085  0.00  0.00    +0.059 C 
ATOM     14  C   UNL     1     -33.007  20.503  -0.114  0.00  0.00    +0.007 C 
ATOM     15  C   UNL     1     -33.286  18.344   1.172  0.00  0.00    +0.007 C 
ATOM     16  C   UNL     1     -31.492  20.308  -0.107  0.00  0.00    +0.000 C 
ATOM     17  C   UNL     1     -31.772  18.154   1.177  0.00  0.00    +0.000 C 
ATOM     18  C   UNL     1     -31.116  18.832  -0.022  0.00  0.00    +0.000 C 
ENDBRANCH  12  13
ENDBRANCH  10  12
ENDBRANCH   9  10
ENDBRANCH   3   9
BRANCH   5  19
ATOM     19  C   UNL     1     -34.866  23.544   2.336  0.00  0.00    +0.031 C 
BRANCH  19  20
ATOM     20  C   UNL     1     -35.411  23.946   0.965  0.00  0.00    +0.002 C 
BRANCH  20  21
ATOM     21  C   UNL     1     -35.900  25.396   0.967  0.00  0.00    +0.000 C 
BRANCH  21  22
ATOM     22  C   UNL     1     -34.916  26.373   0.318  0.00  0.00    +0.001 C 
BRANCH  22  23
ATOM     23  C   UNL     1     -34.363  27.468   1.235  0.00  0.00    +0.012 C 
BRANCH  23  24
ATOM     24  C   UNL     1     -33.555  26.925   2.412  0.00  0.00    +0.109 C 
BRANCH  24  26
ATOM     25  O   UNL     1     -33.489  27.474   4.784  0.00  0.00    -0.250 OA
ATOM     26  C   UNL     1     -34.120  27.377   3.740  0.00  0.00    +0.314 C 
BRANCH  26  27
ATOM     27  O   UNL     1     -35.441  27.679   3.641  0.00  0.00    -0.480 OA
ATOM     28  H   UNL     1     -36.078  27.135   4.062  0.00  0.00    +0.295 HD
ENDBRANCH  26  27
ENDBRANCH  24  26
ENDBRANCH  23  24
ENDBRANCH  22  23
ENDBRANCH  21  22
ENDBRANCH  20  21
ENDBRANCH  19  20
ENDBRANCH   5  19
TORSDOF 12
ENDMDL
MODEL 4
REMARK VINA RESULT:      -5.2      3.420      6.043
REMARK  Name = 196960
REMARK  12 active torsions:
REMARK  status: ('A' for Active; 'I' for Inactive)
REMARK    1  A    between atoms: N_3  and  N_9
REMARK    2  A    between atoms: C_5  and  C_19
REMARK    3  A    between atoms: N_9  and  C_10
REMARK    4  A    between atoms: C_10  and  C_12
REMARK    5  A    between atoms: C_12  and  C_13
REMARK    6  A    between atoms: C_19  and  C_20
REMARK    7  A    between atoms: C_20  and  C_21
REMARK    8  A    between atoms: C_21  and  C_22
REMARK    9  A    between atoms: C_22  and  C_23
REMARK   10  A    between atoms: C_23  and  C_24
REMARK   11  A    between atoms: C_24  and  C_26
REMARK   12  A    between atoms: C_26  and  O_27
REMARK                            x       y       z     vdW  Elec       q    Type
REMARK                         _______ _______ _______ _____ _____    ______ ____
ROOT
ATOM      1  O   UNL     1     -38.811  24.850  -0.727  0.00  0.00    -0.273 OA
ATOM      2  O   UNL     1     -40.411  21.015   1.215  0.00  0.00    -0.251 OA
ATOM      3  N   UNL     1     -38.297  22.038   1.215  0.00  0.00    -0.184 N 
ATOM      4  N   UNL     1     -39.945  22.996   0.090  0.00  0.00    -0.237 N 
ATOM      5  C   UNL     1     -37.663  23.208   0.663  0.00  0.00    +0.171 C 
ATOM      6  C   UNL     1     -38.851  23.811  -0.082  0.00  0.00    +0.249 C 
ATOM      7  C   UNL     1     -39.641  21.905   0.879  0.00  0.00    +0.325 C 
ATOM      8  H   UNL     1     -40.833  23.169  -0.300  0.00  0.00    +0.159 HD
ENDROOT
BRANCH   3   9
ATOM      9  N   UNL     1     -37.660  21.172   2.021  0.00  0.00    -0.118 NA
BRANCH   9  10
ATOM     10  C   UNL     1     -36.843  20.404   1.391  0.00  0.00    +0.176 C 
BRANCH  10  12
ATOM     11  O   UNL     1     -35.304  20.315   3.151  0.00  0.00    -0.294 OA
ATOM     12  C   UNL     1     -35.466  20.225   1.945  0.00  0.00    +0.170 C 
BRANCH  12  13
ATOM     13  C   UNL     1     -34.391  19.908   0.948  0.00  0.00    +0.059 C 
ATOM     14  C   UNL     1     -33.435  18.862   1.526  0.00  0.00    +0.007 C 
ATOM     15  C   UNL     1     -33.648  21.189   0.559  0.00  0.00    +0.007 C 
ATOM     16  C   UNL     1     -32.270  18.579   0.581  0.00  0.00    +0.000 C 
ATOM     17  C   UNL     1     -32.483  20.901  -0.384  0.00  0.00    +0.000 C 
ATOM     18  C   UNL     1     -31.533  19.859   0.198  0.00  0.00    +0.000 C 
ENDBRANCH  12  13
ENDBRANCH  10  12
ENDBRANCH   9  10
ENDBRANCH   3   9
BRANCH   5  19
ATOM     19  C   UNL     1     -37.129  24.162   1.721  0.00  0.00    +0.031 C 
BRANCH  19  20
ATOM     20  C   UNL     1     -35.606  24.281   1.650  0.00  0.00    +0.002 C 
BRANCH  20  21
ATOM     21  C   UNL     1     -34.949  23.756   2.928  0.00  0.00    +0.000 C 
BRANCH  21  22
ATOM     22  C   UNL     1     -35.921  23.616   4.101  0.00  0.00    +0.001 C 
BRANCH  22  23
ATOM     23  C   UNL     1     -35.509  24.321   5.397  0.00  0.00    +0.012 C 
BRANCH  23  24
ATOM     24  C   UNL     1     -35.721  25.834   5.359  0.00  0.00    +0.109 C 
BRANCH  24  26
ATOM     25  O   UNL     1     -34.356  27.448   4.151  0.00  0.00    -0.250 OA
ATOM     26  C   UNL     1     -34.452  26.572   5.000  0.00  0.00    +0.314 C 
BRANCH  26  27
ATOM     27  O   UNL     1     -33.401  26.148   5.749  0.00  0.00    -0.480 OA
ATOM     28  H   UNL     1     -32.570  26.576   5.675  0.00  0.00    +0.295 HD
ENDBRANCH  26  27
ENDBRANCH  24  26
ENDBRANCH  23  24
ENDBRANCH  22  23
ENDBRANCH  21  22
ENDBRANCH  20  21
ENDBRANCH  19  20
ENDBRANCH   5  19
TORSDOF 12
ENDMDL
MODEL 5
REMARK VINA RESULT:      -5.1      3.297      4.658
REMARK  Name = 196960
REMARK  12 active torsions:
REMARK  status: ('A' for Active; 'I' for Inactive)
REMARK    1  A    between atoms: N_3  and  N_9
REMARK    2  A    between atoms: C_5  and  C_19
REMARK    3  A    between atoms: N_9  and  C_10
REMARK    4  A    between atoms: C_10  and  C_12
REMARK    5  A    between atoms: C_12  and  C_13
REMARK    6  A    between atoms: C_19  and  C_20
REMARK    7  A    between atoms: C_20  and  C_21
REMARK    8  A    between atoms: C_21  and  C_22
REMARK    9  A    between atoms: C_22  and  C_23
REMARK   10  A    between atoms: C_23  and  C_24
REMARK   11  A    between atoms: C_24  and  C_26
REMARK   12  A    between atoms: C_26  and  O_27
REMARK                            x       y       z     vdW  Elec       q    Type
REMARK                         _______ _______ _______ _____ _____    ______ ____
ROOT
ATOM      1  O   UNL     1     -36.888  25.635   3.298  0.00  0.00    -0.273 OA
ATOM      2  O   UNL     1     -35.772  22.148   6.061  0.00  0.00    -0.251 OA
ATOM      3  N   UNL     1     -35.765  22.395   3.725  0.00  0.00    -0.184 N 
ATOM      4  N   UNL     1     -36.424  24.098   4.976  0.00  0.00    -0.237 N 
ATOM      5  C   UNL     1     -36.082  23.401   2.744  0.00  0.00    +0.171 C 
ATOM      6  C   UNL     1     -36.516  24.532   3.674  0.00  0.00    +0.249 C 
ATOM      7  C   UNL     1     -35.966  22.799   5.043  0.00  0.00    +0.325 C 
ATOM      8  H   UNL     1     -36.656  24.646   5.760  0.00  0.00    +0.159 HD
ENDROOT
BRANCH   3   9
ATOM      9  N   UNL     1     -35.273  21.187   3.402  0.00  0.00    -0.118 NA
BRANCH   9  10
ATOM     10  C   UNL     1     -36.050  20.518   2.626  0.00  0.00    +0.176 C 
BRANCH  10  12
ATOM     11  O   UNL     1     -36.212  19.399   0.577  0.00  0.00    -0.294 OA
ATOM     12  C   UNL     1     -35.460  19.874   1.413  0.00  0.00    +0.170 C 
BRANCH  12  13
ATOM     13  C   UNL     1     -33.963  19.902   1.314  0.00  0.00    +0.059 C 
ATOM     14  C   UNL     1     -33.535  20.734   0.104  0.00  0.00    +0.007 C 
ATOM     15  C   UNL     1     -33.420  18.473   1.230  0.00  0.00    +0.007 C 
ATOM     16  C   UNL     1     -32.021  20.712  -0.090  0.00  0.00    +0.000 C 
ATOM     17  C   UNL     1     -31.906  18.456   1.035  0.00  0.00    +0.000 C 
ATOM     18  C   UNL     1     -31.486  19.285  -0.174  0.00  0.00    +0.000 C 
ENDBRANCH  12  13
ENDBRANCH  10  12
ENDBRANCH   9  10
ENDBRANCH   3   9
BRANCH   5  19
ATOM     19  C   UNL     1     -34.892  23.810   1.890  0.00  0.00    +0.031 C 
BRANCH  19  20
ATOM     20  C   UNL     1     -35.284  23.964   0.420  0.00  0.00    +0.002 C 
BRANCH  20  21
ATOM     21  C   UNL     1     -36.503  23.105   0.079  0.00  0.00    +0.000 C 
BRANCH  21  22
ATOM     22  C   UNL     1     -37.764  23.923  -0.214  0.00  0.00    +0.001 C 
BRANCH  22  23
ATOM     23  C   UNL     1     -39.060  23.394   0.407  0.00  0.00    +0.012 C 
BRANCH  23  24
ATOM     24  C   UNL     1     -39.820  22.430  -0.503  0.00  0.00    +0.109 C 
BRANCH  24  26
ATOM     25  O   UNL     1     -41.345  20.708   0.295  0.00  0.00    -0.250 OA
ATOM     26  C   UNL     1     -40.211  21.162   0.221  0.00  0.00    +0.314 C 
BRANCH  26  27
ATOM     27  O   UNL     1     -39.134  20.563   0.792  0.00  0.00    -0.480 OA
ATOM     28  H   UNL     1     -38.659  21.002   1.471  0.00  0.00    +0.295 HD
ENDBRANCH  26  27
ENDBRANCH  24  26
ENDBRANCH  23  24
ENDBRANCH  22  23
ENDBRANCH  21  22
ENDBRANCH  20  21
ENDBRANCH  19  20
ENDBRANCH   5  19
TORSDOF 12
ENDMDL
MODEL 6
REMARK VINA RESULT:      -5.0      2.956      5.360
REMARK  Name = 196960
REMARK  12 active torsions:
REMARK  status: ('A' for Active; 'I' for Inactive)
REMARK    1  A    between atoms: N_3  and  N_9
REMARK    2  A    between atoms: C_5  and  C_19
REMARK    3  A    between atoms: N_9  and  C_10
REMARK    4  A    between atoms: C_10  and  C_12
REMARK    5  A    between atoms: C_12  and  C_13
REMARK    6  A    between atoms: C_19  and  C_20
REMARK    7  A    between atoms: C_20  and  C_21
REMARK    8  A    between atoms: C_21  and  C_22
REMARK    9  A    between atoms: C_22  and  C_23
REMARK   10  A    between atoms: C_23  and  C_24
REMARK   11  A    between atoms: C_24  and  C_26
REMARK   12  A    between atoms: C_26  and  O_27
REMARK                            x       y       z     vdW  Elec       q    Type
REMARK                         _______ _______ _______ _____ _____    ______ ____
ROOT
ATOM      1  O   UNL     1     -38.402  26.715   0.226  0.00  0.00    -0.273 OA
ATOM      2  O   UNL     1     -40.150  22.895   2.067  0.00  0.00    -0.251 OA
ATOM      3  N   UNL     1     -37.948  23.656   1.769  0.00  0.00    -0.184 N 
ATOM      4  N   UNL     1     -39.620  24.925   1.064  0.00  0.00    -0.237 N 
ATOM      5  C   UNL     1     -37.266  24.800   1.220  0.00  0.00    +0.171 C 
ATOM      6  C   UNL     1     -38.471  25.621   0.768  0.00  0.00    +0.249 C 
ATOM      7  C   UNL     1     -39.336  23.722   1.678  0.00  0.00    +0.325 C 
ATOM      8  H   UNL     1     -40.529  25.245   0.864  0.00  0.00    +0.159 HD
ENDROOT
BRANCH   3   9
ATOM      9  N   UNL     1     -37.306  22.634   2.358  0.00  0.00    -0.118 NA
BRANCH   9  10
ATOM     10  C   UNL     1     -36.862  21.766   1.519  0.00  0.00    +0.176 C 
BRANCH  10  12
ATOM     11  O   UNL     1     -35.887  20.359   3.114  0.00  0.00    -0.294 OA
ATOM     12  C   UNL     1     -35.815  20.804   1.979  0.00  0.00    +0.170 C 
BRANCH  12  13
ATOM     13  C   UNL     1     -34.767  20.438   0.971  0.00  0.00    +0.059 C 
ATOM     14  C   UNL     1     -33.841  19.364   1.546  0.00  0.00    +0.007 C 
ATOM     15  C   UNL     1     -33.984  21.686   0.556  0.00  0.00    +0.007 C 
ATOM     16  C   UNL     1     -32.701  19.028   0.587  0.00  0.00    +0.000 C 
ATOM     17  C   UNL     1     -32.845  21.346  -0.401  0.00  0.00    +0.000 C 
ATOM     18  C   UNL     1     -31.925  20.276   0.179  0.00  0.00    +0.000 C 
ENDBRANCH  12  13
ENDBRANCH  10  12
ENDBRANCH   9  10
ENDBRANCH   3   9
BRANCH   5  19
ATOM     19  C   UNL     1     -36.432  25.555   2.244  0.00  0.00    +0.031 C 
BRANCH  19  20
ATOM     20  C   UNL     1     -34.937  25.297   2.050  0.00  0.00    +0.002 C 
BRANCH  20  21
ATOM     21  C   UNL     1     -34.135  25.734   3.277  0.00  0.00    +0.000 C 
BRANCH  21  22
ATOM     22  C   UNL     1     -35.010  26.212   4.439  0.00  0.00    +0.001 C 
BRANCH  22  23
ATOM     23  C   UNL     1     -35.497  25.122   5.399  0.00  0.00    +0.012 C 
BRANCH  23  24
ATOM     24  C   UNL     1     -34.524  23.952   5.534  0.00  0.00    +0.109 C 
BRANCH  24  26
ATOM     25  O   UNL     1     -34.823  21.647   6.261  0.00  0.00    -0.250 OA
ATOM     26  C   UNL     1     -35.247  22.631   5.671  0.00  0.00    +0.314 C 
BRANCH  26  27
ATOM     27  O   UNL     1     -36.458  22.661   5.054  0.00  0.00    -0.480 OA
ATOM     28  H   UNL     1     -37.099  22.006   5.251  0.00  0.00    +0.295 HD
ENDBRANCH  26  27
ENDBRANCH  24  26
ENDBRANCH  23  24
ENDBRANCH  22  23
ENDBRANCH  21  22
ENDBRANCH  20  21
ENDBRANCH  19  20
ENDBRANCH   5  19
TORSDOF 12
ENDMDL
MODEL 7
REMARK VINA RESULT:      -4.9      1.636      2.406
REMARK  Name = 196960
REMARK  12 active torsions:
REMARK  status: ('A' for Active; 'I' for Inactive)
REMARK    1  A    between atoms: N_3  and  N_9
REMARK    2  A    between atoms: C_5  and  C_19
REMARK    3  A    between atoms: N_9  and  C_10
REMARK    4  A    between atoms: C_10  and  C_12
REMARK    5  A    between atoms: C_12  and  C_13
REMARK    6  A    between atoms: C_19  and  C_20
REMARK    7  A    between atoms: C_20  and  C_21
REMARK    8  A    between atoms: C_21  and  C_22
REMARK    9  A    between atoms: C_22  and  C_23
REMARK   10  A    between atoms: C_23  and  C_24
REMARK   11  A    between atoms: C_24  and  C_26
REMARK   12  A    between atoms: C_26  and  O_27
REMARK                            x       y       z     vdW  Elec       q    Type
REMARK                         _______ _______ _______ _____ _____    ______ ____
ROOT
ATOM      1  O   UNL     1     -33.006  30.383   2.974  0.00  0.00    -0.273 OA
ATOM      2  O   UNL     1     -31.294  27.698   6.275  0.00  0.00    -0.251 OA
ATOM      3  N   UNL     1     -32.908  27.339   4.607  0.00  0.00    -0.184 N 
ATOM      4  N   UNL     1     -31.937  29.323   4.741  0.00  0.00    -0.237 N 
ATOM      5  C   UNL     1     -33.532  28.068   3.533  0.00  0.00    +0.171 C 
ATOM      6  C   UNL     1     -32.813  29.406   3.685  0.00  0.00    +0.249 C 
ATOM      7  C   UNL     1     -31.968  28.073   5.325  0.00  0.00    +0.325 C 
ATOM      8  H   UNL     1     -31.360  30.062   5.043  0.00  0.00    +0.159 HD
ENDROOT
BRANCH   3   9
ATOM      9  N   UNL     1     -33.174  26.048   4.867  0.00  0.00    -0.118 NA
BRANCH   9  10
ATOM     10  C   UNL     1     -34.037  25.891   5.807  0.00  0.00    +0.176 C 
BRANCH  10  12
ATOM     11  O   UNL     1     -36.208  26.568   5.255  0.00  0.00    -0.294 OA
ATOM     12  C   UNL     1     -35.458  25.620   5.430  0.00  0.00    +0.170 C 
BRANCH  12  13
ATOM     13  C   UNL     1     -35.832  24.178   5.261  0.00  0.00    +0.059 C 
ATOM     14  C   UNL     1     -35.172  23.336   6.355  0.00  0.00    +0.007 C 
ATOM     15  C   UNL     1     -35.430  23.694   3.866  0.00  0.00    +0.007 C 
ATOM     16  C   UNL     1     -35.450  21.846   6.167  0.00  0.00    +0.000 C 
ATOM     17  C   UNL     1     -35.707  22.205   3.682  0.00  0.00    +0.000 C 
ATOM     18  C   UNL     1     -35.045  21.371   4.775  0.00  0.00    +0.000 C 
ENDBRANCH  12  13
ENDBRANCH  10  12
ENDBRANCH   9  10
ENDBRANCH   3   9
BRANCH   5  19
ATOM     19  C   UNL     1     -33.284  27.457   2.163  0.00  0.00    +0.031 C 
BRANCH  19  20
ATOM     20  C   UNL     1     -34.101  28.160   1.079  0.00  0.00    +0.002 C 
BRANCH  20  21
ATOM     21  C   UNL     1     -35.531  27.618   1.024  0.00  0.00    +0.000 C 
BRANCH  21  22
ATOM     22  C   UNL     1     -35.603  26.090   0.958  0.00  0.00    +0.001 C 
BRANCH  22  23
ATOM     23  C   UNL     1     -36.924  25.465   1.416  0.00  0.00    +0.012 C 
BRANCH  23  24
ATOM     24  C   UNL     1     -37.799  26.418   2.227  0.00  0.00    +0.109 C 
BRANCH  24  26
ATOM     25  O   UNL     1     -38.776  24.484   3.338  0.00  0.00    -0.250 OA
ATOM     26  C   UNL     1     -38.816  25.676   3.064  0.00  0.00    +0.314 C 
BRANCH  26  27
ATOM     27  O   UNL     1     -39.805  26.503   3.494  0.00  0.00    -0.480 OA
ATOM     28  H   UNL     1     -40.681  26.386   3.183  0.00  0.00    +0.295 HD
ENDBRANCH  26  27
ENDBRANCH  24  26
ENDBRANCH  23  24
ENDBRANCH  22  23
ENDBRANCH  21  22
ENDBRANCH  20  21
ENDBRANCH  19  20
ENDBRANCH   5  19
TORSDOF 12
ENDMDL
MODEL 8
REMARK VINA RESULT:      -4.9      2.576      6.016
REMARK  Name = 196960
REMARK  12 active torsions:
REMARK  status: ('A' for Active; 'I' for Inactive)
REMARK    1  A    between atoms: N_3  and  N_9
REMARK    2  A    between atoms: C_5  and  C_19
REMARK    3  A    between atoms: N_9  and  C_10
REMARK    4  A    between atoms: C_10  and  C_12
REMARK    5  A    between atoms: C_12  and  C_13
REMARK    6  A    between atoms: C_19  and  C_20
REMARK    7  A    between atoms: C_20  and  C_21
REMARK    8  A    between atoms: C_21  and  C_22
REMARK    9  A    between atoms: C_22  and  C_23
REMARK   10  A    between atoms: C_23  and  C_24
REMARK   11  A    between atoms: C_24  and  C_26
REMARK   12  A    between atoms: C_26  and  O_27
REMARK                            x       y       z     vdW  Elec       q    Type
REMARK                         _______ _______ _______ _____ _____    ______ ____
ROOT
ATOM      1  O   UNL     1     -33.350  26.685   2.924  0.00  0.00    -0.273 OA
ATOM      2  O   UNL     1     -37.094  28.529   1.022  0.00  0.00    -0.251 OA
ATOM      3  N   UNL     1     -36.782  26.753   2.527  0.00  0.00    -0.184 N 
ATOM      4  N   UNL     1     -35.006  27.846   1.784  0.00  0.00    -0.237 N 
ATOM      5  C   UNL     1     -35.697  26.078   3.192  0.00  0.00    +0.171 C 
ATOM      6  C   UNL     1     -34.523  26.884   2.641  0.00  0.00    +0.249 C 
ATOM      7  C   UNL     1     -36.382  27.795   1.695  0.00  0.00    +0.325 C 
ATOM      8  H   UNL     1     -34.442  28.489   1.297  0.00  0.00    +0.159 HD
ENDROOT
BRANCH   3   9
ATOM      9  N   UNL     1     -38.072  26.437   2.728  0.00  0.00    -0.118 NA
BRANCH   9  10
ATOM     10  C   UNL     1     -38.420  25.345   2.144  0.00  0.00    +0.176 C 
BRANCH  10  12
ATOM     11  O   UNL     1     -39.979  23.661   2.602  0.00  0.00    -0.294 OA
ATOM     12  C   UNL     1     -39.814  24.844   2.348  0.00  0.00    +0.170 C 
BRANCH  12  13
ATOM     13  C   UNL     1     -40.904  25.870   2.253  0.00  0.00    +0.059 C 
ATOM     14  C   UNL     1     -41.365  26.272   3.655  0.00  0.00    +0.007 C 
ATOM     15  C   UNL     1     -42.065  25.322   1.419  0.00  0.00    +0.007 C 
ATOM     16  C   UNL     1     -42.540  27.246   3.606  0.00  0.00    +0.000 C 
ATOM     17  C   UNL     1     -43.237  26.298   1.373  0.00  0.00    +0.000 C 
ATOM     18  C   UNL     1     -43.694  26.693   2.774  0.00  0.00    +0.000 C 
ENDBRANCH  12  13
ENDBRANCH  10  12
ENDBRANCH   9  10
ENDBRANCH   3   9
BRANCH   5  19
ATOM     19  C   UNL     1     -35.768  26.167   4.709  0.00  0.00    +0.031 C 
BRANCH  19  20
ATOM     20  C   UNL     1     -36.098  24.811   5.334  0.00  0.00    +0.002 C 
BRANCH  20  21
ATOM     21  C   UNL     1     -34.876  23.890   5.336  0.00  0.00    +0.000 C 
BRANCH  21  22
ATOM     22  C   UNL     1     -35.132  22.538   6.009  0.00  0.00    +0.001 C 
BRANCH  22  23
ATOM     23  C   UNL     1     -35.262  21.339   5.065  0.00  0.00    +0.012 C 
BRANCH  23  24
ATOM     24  C   UNL     1     -35.480  21.734   3.606  0.00  0.00    +0.109 C 
BRANCH  24  26
ATOM     25  O   UNL     1     -34.598  20.145   1.985  0.00  0.00    -0.250 OA
ATOM     26  C   UNL     1     -35.518  20.528   2.695  0.00  0.00    +0.314 C 
BRANCH  26  27
ATOM     27  O   UNL     1     -36.719  19.895   2.758  0.00  0.00    -0.480 OA
ATOM     28  H   UNL     1     -37.486  20.371   3.009  0.00  0.00    +0.295 HD
ENDBRANCH  26  27
ENDBRANCH  24  26
ENDBRANCH  23  24
ENDBRANCH  22  23
ENDBRANCH  21  22
ENDBRANCH  20  21
ENDBRANCH  19  20
ENDBRANCH   5  19
TORSDOF 12
ENDMDL
MODEL 9
REMARK VINA RESULT:      -4.9      3.028      6.490
REMARK  Name = 196960
REMARK  12 active torsions:
REMARK  status: ('A' for Active; 'I' for Inactive)
REMARK    1  A    between atoms: N_3  and  N_9
REMARK    2  A    between atoms: C_5  and  C_19
REMARK    3  A    between atoms: N_9  and  C_10
REMARK    4  A    between atoms: C_10  and  C_12
REMARK    5  A    between atoms: C_12  and  C_13
REMARK    6  A    between atoms: C_19  and  C_20
REMARK    7  A    between atoms: C_20  and  C_21
REMARK    8  A    between atoms: C_21  and  C_22
REMARK    9  A    between atoms: C_22  and  C_23
REMARK   10  A    between atoms: C_23  and  C_24
REMARK   11  A    between atoms: C_24  and  C_26
REMARK   12  A    between atoms: C_26  and  O_27
REMARK                            x       y       z     vdW  Elec       q    Type
REMARK                         _______ _______ _______ _____ _____    ______ ____
ROOT
ATOM      1  O   UNL     1     -35.697  20.707   2.956  0.00  0.00    -0.273 OA
ATOM      2  O   UNL     1     -40.017  21.298   1.533  0.00  0.00    -0.251 OA
ATOM      3  N   UNL     1     -38.145  22.715   1.573  0.00  0.00    -0.184 N 
ATOM      4  N   UNL     1     -37.938  20.654   2.352  0.00  0.00    -0.237 N 
ATOM      5  C   UNL     1     -36.765  22.670   1.981  0.00  0.00    +0.171 C 
ATOM      6  C   UNL     1     -36.699  21.234   2.493  0.00  0.00    +0.249 C 
ATOM      7  C   UNL     1     -38.844  21.531   1.790  0.00  0.00    +0.325 C 
ATOM      8  H   UNL     1     -38.152  19.730   2.618  0.00  0.00    +0.159 HD
ENDROOT
BRANCH   3   9
ATOM      9  N   UNL     1     -38.701  23.790   0.990  0.00  0.00    -0.118 NA
BRANCH   9  10
ATOM     10  C   UNL     1     -38.667  24.840   1.732  0.00  0.00    +0.176 C 
BRANCH  10  12
ATOM     11  O   UNL     1     -39.675  24.515   3.818  0.00  0.00    -0.294 OA
ATOM     12  C   UNL     1     -39.767  25.047   2.723  0.00  0.00    +0.170 C 
BRANCH  12  13
ATOM     13  C   UNL     1     -40.891  25.937   2.284  0.00  0.00    +0.059 C 
ATOM     14  C   UNL     1     -41.547  26.588   3.503  0.00  0.00    +0.007 C 
ATOM     15  C   UNL     1     -41.905  25.133   1.467  0.00  0.00    +0.007 C 
ATOM     16  C   UNL     1     -42.758  27.431   3.111  0.00  0.00    +0.000 C 
ATOM     17  C   UNL     1     -43.114  25.978   1.078  0.00  0.00    +0.000 C 
ATOM     18  C   UNL     1     -43.765  26.623   2.298  0.00  0.00    +0.000 C 
ENDBRANCH  12  13
ENDBRANCH  10  12
ENDBRANCH   9  10
ENDBRANCH   3   9
BRANCH   5  19
ATOM     19  C   UNL     1     -35.788  22.897   0.837  0.00  0.00    +0.031 C 
BRANCH  19  20
ATOM     20  C   UNL     1     -34.482  23.521   1.331  0.00  0.00    +0.002 C 
BRANCH  20  21
ATOM     21  C   UNL     1     -34.545  25.049   1.283  0.00  0.00    +0.000 C 
BRANCH  21  22
ATOM     22  C   UNL     1     -34.646  25.699   2.666  0.00  0.00    +0.001 C 
BRANCH  22  23
ATOM     23  C   UNL     1     -34.000  24.921   3.816  0.00  0.00    +0.012 C 
BRANCH  23  24
ATOM     24  C   UNL     1     -34.712  25.114   5.155  0.00  0.00    +0.109 C 
BRANCH  24  26
ATOM     25  O   UNL     1     -36.104  23.141   5.467  0.00  0.00    -0.250 OA
ATOM     26  C   UNL     1     -36.006  24.335   5.222  0.00  0.00    +0.314 C 
BRANCH  26  27
ATOM     27  O   UNL     1     -37.079  25.133   4.980  0.00  0.00    -0.480 OA
ATOM     28  H   UNL     1     -37.074  26.025   5.269  0.00  0.00    +0.295 HD
ENDBRANCH  26  27
ENDBRANCH  24  26
ENDBRANCH  23  24
ENDBRANCH  22  23
ENDBRANCH  21  22
ENDBRANCH  20  21
ENDBRANCH  19  20
ENDBRANCH   5  19
TORSDOF 12
ENDMDL
