MODEL 1
REMARK VINA RESULT:      -6.3      0.000      0.000
REMARK  Name = 196800
REMARK  12 active torsions:
REMARK  status: ('A' for Active; 'I' for Inactive)
REMARK    1  A    between atoms: N_2  and  C_5
REMARK    2  A    between atoms: C_3  and  C_23
REMARK    3  A    between atoms: C_5  and  C_8
REMARK    4  A    between atoms: C_5  and  C_19
REMARK    5  A    between atoms: C_14  and  O_17
REMARK    6  A    between atoms: C_19  and  C_20
REMARK    7  A    between atoms: C_23  and  O_24
REMARK    8  A    between atoms: C_23  and  C_26
REMARK    9  A    between atoms: C_26  and  O_27
REMARK   10  A    between atoms: C_26  and  C_29
REMARK   11  A    between atoms: C_29  and  N_30
REMARK   12  A    between atoms: C_29  and  C_34
REMARK                            x       y       z     vdW  Elec       q    Type
REMARK                         _______ _______ _______ _____ _____    ______ ____
ROOT
ATOM      1  O   UNL     1     -35.966  28.015   0.614  0.00  0.00    -0.272 OA
ATOM      2  N   UNL     1     -35.487  28.430   2.845  0.00  0.00    -0.300 N 
ATOM      3  C   UNL     1     -36.109  27.754   1.807  0.00  0.00    +0.252 C 
ATOM      4  H   UNL     1     -35.666  28.148   3.771  0.00  0.00    +0.150 HD
ENDROOT
BRANCH   2   5
ATOM      5  C   UNL     1     -34.587  29.535   2.614  0.00  0.00    +0.112 C 
BRANCH   5   8
ATOM      6  O   UNL     1     -33.511  28.265   4.337  0.00  0.00    -0.447 OA
ATOM      7  O   UNL     1     -32.627  26.973   5.972  0.00  0.00    -0.245 OA
ATOM      8  C   UNL     1     -33.273  29.284   3.339  0.00  0.00    +0.191 C 
ATOM      9  C   UNL     1     -32.758  30.551   4.007  0.00  0.00    +0.072 C 
ATOM     10  C   UNL     1     -31.526  30.190   4.780  0.00  0.00    -0.009 C 
ATOM     11  C   UNL     1     -31.436  28.927   5.377  0.00  0.00    +0.105 C 
ATOM     12  C   UNL     1     -32.558  27.965   5.258  0.00  0.00    +0.344 C 
ATOM     13  C   UNL     1     -30.484  31.109   4.950  0.00  0.00    -0.004 C 
ATOM     14  C   UNL     1     -30.304  28.578   6.122  0.00  0.00    +0.140 C 
ATOM     15  C   UNL     1     -29.354  30.758   5.689  0.00  0.00    +0.003 C 
ATOM     16  C   UNL     1     -29.264  29.495   6.272  0.00  0.00    +0.037 C 
BRANCH  14  17
ATOM     17  O   UNL     1     -30.160  27.358   6.713  0.00  0.00    -0.505 OA
ATOM     18  H   UNL     1     -29.407  27.179   7.241  0.00  0.00    +0.292 HD
ENDBRANCH  14  17
ENDBRANCH   5   8
BRANCH   5  19
ATOM     19  C   UNL     1     -35.208  30.868   3.064  0.00  0.00    +0.023 C 
BRANCH  19  20
ATOM     20  C   UNL     1     -35.579  31.834   1.919  0.00  0.00    +0.002 C 
ATOM     21  C   UNL     1     -34.867  31.407   0.632  0.00  0.00    +0.000 C 
ATOM     22  C   UNL     1     -37.088  31.901   1.675  0.00  0.00    +0.000 C 
ENDBRANCH  19  20
ENDBRANCH   5  19
ENDBRANCH   2   5
BRANCH   3  23
ATOM     23  C   UNL     1     -37.024  26.639   2.297  0.00  0.00    +0.212 C 
BRANCH  23  24
ATOM     24  O   UNL     1     -38.086  26.520   1.354  0.00  0.00    -0.374 OA
ATOM     25  H   UNL     1     -38.050  25.646   0.934  0.00  0.00    +0.211 HD
ENDBRANCH  23  24
BRANCH  23  26
ATOM     26  C   UNL     1     -36.323  25.270   2.401  0.00  0.00    +0.126 C 
BRANCH  26  27
ATOM     27  O   UNL     1     -34.909  25.461   2.282  0.00  0.00    -0.384 OA
ATOM     28  H   UNL     1     -34.469  24.600   2.226  0.00  0.00    +0.210 HD
ENDBRANCH  26  27
BRANCH  26  29
ATOM     29  C   UNL     1     -36.632  24.455   3.683  0.00  0.00    -0.035 C 
BRANCH  29  30
ATOM     30  N   UNL     1     -37.987  24.773   4.138  0.00  0.00    +0.383 N 
ATOM     31  H   UNL     1     -38.130  25.783   4.102  0.00  0.00    -0.089 HD
ATOM     32  H   UNL     1     -38.109  24.446   5.096  0.00  0.00    -0.089 HD
ATOM     33  H   UNL     1     -38.665  24.312   3.532  0.00  0.00    -0.089 HD
ENDBRANCH  29  30
BRANCH  29  34
ATOM     34  C   UNL     1     -35.559  24.642   4.801  0.00  0.00    -0.018 C 
ATOM     35  C   UNL     1     -35.882  25.841   5.704  0.00  0.00    -0.002 C 
ATOM     36  C   UNL     1     -35.333  23.399   5.666  0.00  0.00    -0.002 C 
ENDBRANCH  29  34
ENDBRANCH  26  29
ENDBRANCH  23  26
ENDBRANCH   3  23
TORSDOF 12
ENDMDL
MODEL 2
REMARK VINA RESULT:      -5.9      4.944      9.000
REMARK  Name = 196800
REMARK  12 active torsions:
REMARK  status: ('A' for Active; 'I' for Inactive)
REMARK    1  A    between atoms: N_2  and  C_5
REMARK    2  A    between atoms: C_3  and  C_23
REMARK    3  A    between atoms: C_5  and  C_8
REMARK    4  A    between atoms: C_5  and  C_19
REMARK    5  A    between atoms: C_14  and  O_17
REMARK    6  A    between atoms: C_19  and  C_20
REMARK    7  A    between atoms: C_23  and  O_24
REMARK    8  A    between atoms: C_23  and  C_26
REMARK    9  A    between atoms: C_26  and  O_27
REMARK   10  A    between atoms: C_26  and  C_29
REMARK   11  A    between atoms: C_29  and  N_30
REMARK   12  A    between atoms: C_29  and  C_34
REMARK                            x       y       z     vdW  Elec       q    Type
REMARK                         _______ _______ _______ _____ _____    ______ ____
ROOT
ATOM      1  O   UNL     1     -35.492  22.160   4.572  0.00  0.00    -0.272 OA
ATOM      2  N   UNL     1     -36.797  22.756   2.750  0.00  0.00    -0.300 N 
ATOM      3  C   UNL     1     -35.928  21.930   3.446  0.00  0.00    +0.252 C 
ATOM      4  H   UNL     1     -37.090  22.486   1.850  0.00  0.00    +0.150 HD
ENDROOT
BRANCH   2   5
ATOM      5  C   UNL     1     -37.285  23.997   3.299  0.00  0.00    +0.112 C 
BRANCH   5   8
ATOM      6  O   UNL     1     -38.972  23.636   1.638  0.00  0.00    -0.447 OA
ATOM      7  O   UNL     1     -40.459  23.206  -0.015  0.00  0.00    -0.245 OA
ATOM      8  C   UNL     1     -38.762  24.157   2.971  0.00  0.00    +0.191 C 
ATOM      9  C   UNL     1     -39.189  25.617   3.028  0.00  0.00    +0.072 C 
ATOM     10  C   UNL     1     -40.620  25.691   2.589  0.00  0.00    -0.009 C 
ATOM     11  C   UNL     1     -41.086  24.802   1.614  0.00  0.00    +0.105 C 
ATOM     12  C   UNL     1     -40.165  23.810   1.008  0.00  0.00    +0.344 C 
ATOM     13  C   UNL     1     -41.485  26.661   3.109  0.00  0.00    -0.004 C 
ATOM     14  C   UNL     1     -42.412  24.870   1.173  0.00  0.00    +0.140 C 
ATOM     15  C   UNL     1     -42.809  26.724   2.673  0.00  0.00    +0.003 C 
ATOM     16  C   UNL     1     -43.271  25.830   1.709  0.00  0.00    +0.037 C 
BRANCH  14  17
ATOM     17  O   UNL     1     -42.919  24.021   0.235  0.00  0.00    -0.505 OA
ATOM     18  H   UNL     1     -42.346  23.606  -0.379  0.00  0.00    +0.292 HD
ENDBRANCH  14  17
ENDBRANCH   5   8
BRANCH   5  19
ATOM     19  C   UNL     1     -36.481  25.199   2.774  0.00  0.00    +0.023 C 
BRANCH  19  20
ATOM     20  C   UNL     1     -35.528  25.845   3.802  0.00  0.00    +0.002 C 
ATOM     21  C   UNL     1     -36.078  25.640   5.217  0.00  0.00    +0.000 C 
ATOM     22  C   UNL     1     -34.107  25.284   3.717  0.00  0.00    +0.000 C 
ENDBRANCH  19  20
ENDBRANCH   5  19
ENDBRANCH   2   5
BRANCH   3  23
ATOM     23  C   UNL     1     -35.539  20.686   2.657  0.00  0.00    +0.212 C 
BRANCH  23  24
ATOM     24  O   UNL     1     -36.664  19.811   2.669  0.00  0.00    -0.374 OA
ATOM     25  H   UNL     1     -37.406  20.231   2.208  0.00  0.00    +0.211 HD
ENDBRANCH  23  24
BRANCH  23  26
ATOM     26  C   UNL     1     -35.179  20.979   1.187  0.00  0.00    +0.126 C 
BRANCH  26  27
ATOM     27  O   UNL     1     -34.423  22.192   1.126  0.00  0.00    -0.384 OA
ATOM     28  H   UNL     1     -34.474  22.650   1.979  0.00  0.00    +0.210 HD
ENDBRANCH  26  27
BRANCH  26  29
ATOM     29  C   UNL     1     -34.414  19.851   0.449  0.00  0.00    -0.035 C 
BRANCH  29  30
ATOM     30  N   UNL     1     -35.213  18.625   0.486  0.00  0.00    +0.383 N 
ATOM     31  H   UNL     1     -34.598  17.822   0.622  0.00  0.00    -0.089 HD
ATOM     32  H   UNL     1     -35.719  18.521  -0.394  0.00  0.00    -0.089 HD
ATOM     33  H   UNL     1     -35.880  18.677   1.256  0.00  0.00    -0.089 HD
ENDBRANCH  29  30
BRANCH  29  34
ATOM     34  C   UNL     1     -32.963  19.642   0.983  0.00  0.00    -0.018 C 
ATOM     35  C   UNL     1     -32.712  18.185   1.393  0.00  0.00    -0.002 C 
ATOM     36  C   UNL     1     -31.866  20.096   0.015  0.00  0.00    -0.002 C 
ENDBRANCH  29  34
ENDBRANCH  26  29
ENDBRANCH  23  26
ENDBRANCH   3  23
TORSDOF 12
ENDMDL
MODEL 3
REMARK VINA RESULT:      -5.8      4.326      8.201
REMARK  Name = 196800
REMARK  12 active torsions:
REMARK  status: ('A' for Active; 'I' for Inactive)
REMARK    1  A    between atoms: N_2  and  C_5
REMARK    2  A    between atoms: C_3  and  C_23
REMARK    3  A    between atoms: C_5  and  C_8
REMARK    4  A    between atoms: C_5  and  C_19
REMARK    5  A    between atoms: C_14  and  O_17
REMARK    6  A    between atoms: C_19  and  C_20
REMARK    7  A    between atoms: C_23  and  O_24
REMARK    8  A    between atoms: C_23  and  C_26
REMARK    9  A    between atoms: C_26  and  O_27
REMARK   10  A    between atoms: C_26  and  C_29
REMARK   11  A    between atoms: C_29  and  N_30
REMARK   12  A    between atoms: C_29  and  C_34
REMARK                            x       y       z     vdW  Elec       q    Type
REMARK                         _______ _______ _______ _____ _____    ______ ____
ROOT
ATOM      1  O   UNL     1     -36.306  23.612   5.276  0.00  0.00    -0.272 OA
ATOM      2  N   UNL     1     -36.117  23.944   2.988  0.00  0.00    -0.300 N 
ATOM      3  C   UNL     1     -36.125  24.354   4.312  0.00  0.00    +0.252 C 
ATOM      4  H   UNL     1     -35.965  24.615   2.284  0.00  0.00    +0.150 HD
ENDROOT
BRANCH   2   5
ATOM      5  C   UNL     1     -36.326  22.568   2.607  0.00  0.00    +0.112 C 
BRANCH   5   8
ATOM      6  O   UNL     1     -34.680  22.629   0.868  0.00  0.00    -0.447 OA
ATOM      7  O   UNL     1     -33.196  22.823  -0.832  0.00  0.00    -0.245 OA
ATOM      8  C   UNL     1     -35.018  21.970   2.110  0.00  0.00    +0.191 C 
ATOM      9  C   UNL     1     -35.145  20.471   1.880  0.00  0.00    +0.072 C 
ATOM     10  C   UNL     1     -33.853  19.988   1.294  0.00  0.00    -0.009 C 
ATOM     11  C   UNL     1     -33.132  20.828   0.438  0.00  0.00    +0.105 C 
ATOM     12  C   UNL     1     -33.653  22.175   0.101  0.00  0.00    +0.344 C 
ATOM     13  C   UNL     1     -33.378  18.698   1.556  0.00  0.00    -0.004 C 
ATOM     14  C   UNL     1     -31.935  20.389  -0.139  0.00  0.00    +0.140 C 
ATOM     15  C   UNL     1     -32.182  18.263   0.985  0.00  0.00    +0.003 C 
ATOM     16  C   UNL     1     -31.462  19.107   0.141  0.00  0.00    +0.037 C 
BRANCH  14  17
ATOM     17  O   UNL     1     -31.188  21.170  -0.968  0.00  0.00    -0.505 OA
ATOM     18  H   UNL     1     -30.256  21.199  -0.871  0.00  0.00    +0.292 HD
ENDBRANCH  14  17
ENDBRANCH   5   8
BRANCH   5  19
ATOM     19  C   UNL     1     -37.421  22.442   1.535  0.00  0.00    +0.023 C 
BRANCH  19  20
ATOM     20  C   UNL     1     -38.851  22.246   2.082  0.00  0.00    +0.002 C 
ATOM     21  C   UNL     1     -39.545  23.605   2.210  0.00  0.00    +0.000 C 
ATOM     22  C   UNL     1     -39.693  21.320   1.203  0.00  0.00    +0.000 C 
ENDBRANCH  19  20
ENDBRANCH   5  19
ENDBRANCH   2   5
BRANCH   3  23
ATOM     23  C   UNL     1     -35.900  25.853   4.465  0.00  0.00    +0.212 C 
BRANCH  23  24
ATOM     24  O   UNL     1     -36.685  26.287   5.573  0.00  0.00    -0.374 OA
ATOM     25  H   UNL     1     -36.107  26.451   6.334  0.00  0.00    +0.211 HD
ENDBRANCH  23  24
BRANCH  23  26
ATOM     26  C   UNL     1     -34.431  26.228   4.745  0.00  0.00    +0.126 C 
BRANCH  26  27
ATOM     27  O   UNL     1     -33.621  25.053   4.630  0.00  0.00    -0.384 OA
ATOM     28  H   UNL     1     -33.391  24.730   5.514  0.00  0.00    +0.210 HD
ENDBRANCH  26  27
BRANCH  26  29
ATOM     29  C   UNL     1     -33.846  27.353   3.853  0.00  0.00    -0.035 C 
BRANCH  29  30
ATOM     30  N   UNL     1     -34.907  28.309   3.529  0.00  0.00    +0.383 N 
ATOM     31  H   UNL     1     -34.622  28.875   2.729  0.00  0.00    -0.089 HD
ATOM     32  H   UNL     1     -35.077  28.914   4.332  0.00  0.00    -0.089 HD
ATOM     33  H   UNL     1     -35.762  27.802   3.298  0.00  0.00    -0.089 HD
ENDBRANCH  29  30
BRANCH  29  34
ATOM     34  C   UNL     1     -33.112  26.812   2.586  0.00  0.00    -0.018 C 
ATOM     35  C   UNL     1     -33.847  27.199   1.295  0.00  0.00    -0.002 C 
ATOM     36  C   UNL     1     -31.644  27.235   2.483  0.00  0.00    -0.002 C 
ENDBRANCH  29  34
ENDBRANCH  26  29
ENDBRANCH  23  26
ENDBRANCH   3  23
TORSDOF 12
ENDMDL
MODEL 4
REMARK VINA RESULT:      -5.8      4.978      8.633
REMARK  Name = 196800
REMARK  12 active torsions:
REMARK  status: ('A' for Active; 'I' for Inactive)
REMARK    1  A    between atoms: N_2  and  C_5
REMARK    2  A    between atoms: C_3  and  C_23
REMARK    3  A    between atoms: C_5  and  C_8
REMARK    4  A    between atoms: C_5  and  C_19
REMARK    5  A    between atoms: C_14  and  O_17
REMARK    6  A    between atoms: C_19  and  C_20
REMARK    7  A    between atoms: C_23  and  O_24
REMARK    8  A    between atoms: C_23  and  C_26
REMARK    9  A    between atoms: C_26  and  O_27
REMARK   10  A    between atoms: C_26  and  C_29
REMARK   11  A    between atoms: C_29  and  N_30
REMARK   12  A    between atoms: C_29  and  C_34
REMARK                            x       y       z     vdW  Elec       q    Type
REMARK                         _______ _______ _______ _____ _____    ______ ____
ROOT
ATOM      1  O   UNL     1     -35.110  20.951   5.156  0.00  0.00    -0.272 OA
ATOM      2  N   UNL     1     -36.045  21.900   3.258  0.00  0.00    -0.300 N 
ATOM      3  C   UNL     1     -35.626  21.906   4.579  0.00  0.00    +0.252 C 
ATOM      4  H   UNL     1     -36.450  22.716   2.884  0.00  0.00    +0.150 HD
ENDROOT
BRANCH   2   5
ATOM      5  C   UNL     1     -35.911  20.738   2.413  0.00  0.00    +0.112 C 
BRANCH   5   8
ATOM      6  O   UNL     1     -34.394  21.475   0.712  0.00  0.00    -0.447 OA
ATOM      7  O   UNL     1     -33.072  22.280  -0.942  0.00  0.00    -0.245 OA
ATOM      8  C   UNL     1     -34.483  20.645   1.893  0.00  0.00    +0.191 C 
ATOM      9  C   UNL     1     -34.111  19.211   1.546  0.00  0.00    +0.072 C 
ATOM     10  C   UNL     1     -32.738  19.229   0.946  0.00  0.00    -0.009 C 
ATOM     11  C   UNL     1     -32.342  20.324   0.170  0.00  0.00    +0.105 C 
ATOM     12  C   UNL     1     -33.281  21.446  -0.070  0.00  0.00    +0.344 C 
ATOM     13  C   UNL     1     -31.862  18.150   1.115  0.00  0.00    -0.004 C 
ATOM     14  C   UNL     1     -31.073  20.350  -0.418  0.00  0.00    +0.140 C 
ATOM     15  C   UNL     1     -30.595  18.180   0.533  0.00  0.00    +0.003 C 
ATOM     16  C   UNL     1     -30.201  19.278  -0.231  0.00  0.00    +0.037 C 
BRANCH  14  17
ATOM     17  O   UNL     1     -30.633  21.397  -1.172  0.00  0.00    -0.505 OA
ATOM     18  H   UNL     1     -31.234  22.062  -1.445  0.00  0.00    +0.292 HD
ENDBRANCH  14  17
ENDBRANCH   5   8
BRANCH   5  19
ATOM     19  C   UNL     1     -36.911  20.773   1.245  0.00  0.00    +0.023 C 
BRANCH  19  20
ATOM     20  C   UNL     1     -37.906  21.953   1.274  0.00  0.00    +0.002 C 
ATOM     21  C   UNL     1     -37.830  22.725  -0.046  0.00  0.00    +0.000 C 
ATOM     22  C   UNL     1     -39.346  21.497   1.520  0.00  0.00    +0.000 C 
ENDBRANCH  19  20
ENDBRANCH   5  19
ENDBRANCH   2   5
BRANCH   3  23
ATOM     23  C   UNL     1     -35.887  23.237   5.272  0.00  0.00    +0.212 C 
BRANCH  23  24
ATOM     24  O   UNL     1     -34.669  23.632   5.899  0.00  0.00    -0.374 OA
ATOM     25  H   UNL     1     -34.815  23.733   6.853  0.00  0.00    +0.211 HD
ENDBRANCH  23  24
BRANCH  23  26
ATOM     26  C   UNL     1     -36.312  24.360   4.306  0.00  0.00    +0.126 C 
BRANCH  26  27
ATOM     27  O   UNL     1     -37.726  24.555   4.412  0.00  0.00    -0.384 OA
ATOM     28  H   UNL     1     -37.918  25.501   4.502  0.00  0.00    +0.210 HD
ENDBRANCH  26  27
BRANCH  26  29
ATOM     29  C   UNL     1     -35.585  25.716   4.495  0.00  0.00    -0.035 C 
BRANCH  29  30
ATOM     30  N   UNL     1     -36.453  26.626   5.244  0.00  0.00    +0.383 N 
ATOM     31  H   UNL     1     -36.365  27.569   4.866  0.00  0.00    -0.089 HD
ATOM     32  H   UNL     1     -36.180  26.625   6.227  0.00  0.00    -0.089 HD
ATOM     33  H   UNL     1     -37.422  26.316   5.161  0.00  0.00    -0.089 HD
ENDBRANCH  29  30
BRANCH  29  34
ATOM     34  C   UNL     1     -35.078  26.333   3.153  0.00  0.00    -0.018 C 
ATOM     35  C   UNL     1     -36.211  26.468   2.126  0.00  0.00    -0.002 C 
ATOM     36  C   UNL     1     -34.369  27.681   3.311  0.00  0.00    -0.002 C 
ENDBRANCH  29  34
ENDBRANCH  26  29
ENDBRANCH  23  26
ENDBRANCH   3  23
TORSDOF 12
ENDMDL
MODEL 5
REMARK VINA RESULT:      -5.8      2.621      8.063
REMARK  Name = 196800
REMARK  12 active torsions:
REMARK  status: ('A' for Active; 'I' for Inactive)
REMARK    1  A    between atoms: N_2  and  C_5
REMARK    2  A    between atoms: C_3  and  C_23
REMARK    3  A    between atoms: C_5  and  C_8
REMARK    4  A    between atoms: C_5  and  C_19
REMARK    5  A    between atoms: C_14  and  O_17
REMARK    6  A    between atoms: C_19  and  C_20
REMARK    7  A    between atoms: C_23  and  O_24
REMARK    8  A    between atoms: C_23  and  C_26
REMARK    9  A    between atoms: C_26  and  O_27
REMARK   10  A    between atoms: C_26  and  C_29
REMARK   11  A    between atoms: C_29  and  N_30
REMARK   12  A    between atoms: C_29  and  C_34
REMARK                            x       y       z     vdW  Elec       q    Type
REMARK                         _______ _______ _______ _____ _____    ______ ____
ROOT
ATOM      1  O   UNL     1     -32.540  25.838   3.620  0.00  0.00    -0.272 OA
ATOM      2  N   UNL     1     -34.532  26.696   4.440  0.00  0.00    -0.300 N 
ATOM      3  C   UNL     1     -33.176  26.742   4.157  0.00  0.00    +0.252 C 
ATOM      4  H   UNL     1     -34.954  27.472   4.875  0.00  0.00    +0.150 HD
ENDROOT
BRANCH   2   5
ATOM      5  C   UNL     1     -35.347  25.549   4.121  0.00  0.00    +0.112 C 
BRANCH   5   8
ATOM      6  O   UNL     1     -37.668  25.013   3.870  0.00  0.00    -0.447 OA
ATOM      7  O   UNL     1     -39.840  24.388   3.742  0.00  0.00    -0.245 OA
ATOM      8  C   UNL     1     -36.674  26.010   3.537  0.00  0.00    +0.191 C 
ATOM      9  C   UNL     1     -36.591  26.170   2.026  0.00  0.00    +0.072 C 
ATOM     10  C   UNL     1     -37.960  26.519   1.528  0.00  0.00    -0.009 C 
ATOM     11  C   UNL     1     -39.082  25.987   2.173  0.00  0.00    +0.105 C 
ATOM     12  C   UNL     1     -38.913  25.070   3.326  0.00  0.00    +0.344 C 
ATOM     13  C   UNL     1     -38.134  27.336   0.404  0.00  0.00    -0.004 C 
ATOM     14  C   UNL     1     -40.368  26.281   1.710  0.00  0.00    +0.140 C 
ATOM     15  C   UNL     1     -39.417  27.634  -0.053  0.00  0.00    +0.003 C 
ATOM     16  C   UNL     1     -40.532  27.109   0.599  0.00  0.00    +0.037 C 
BRANCH  14  17
ATOM     17  O   UNL     1     -41.494  25.799   2.309  0.00  0.00    -0.505 OA
ATOM     18  H   UNL     1     -42.338  26.084   2.017  0.00  0.00    +0.292 HD
ENDBRANCH  14  17
ENDBRANCH   5   8
BRANCH   5  19
ATOM     19  C   UNL     1     -35.577  24.661   5.355  0.00  0.00    +0.023 C 
BRANCH  19  20
ATOM     20  C   UNL     1     -34.960  23.249   5.268  0.00  0.00    +0.002 C 
ATOM     21  C   UNL     1     -35.420  22.410   6.464  0.00  0.00    +0.000 C 
ATOM     22  C   UNL     1     -35.322  22.532   3.966  0.00  0.00    +0.000 C 
ENDBRANCH  19  20
ENDBRANCH   5  19
ENDBRANCH   2   5
BRANCH   3  23
ATOM     23  C   UNL     1     -32.527  28.047   4.602  0.00  0.00    +0.212 C 
BRANCH  23  24
ATOM     24  O   UNL     1     -33.353  29.110   4.133  0.00  0.00    -0.374 OA
ATOM     25  H   UNL     1     -34.181  29.123   4.639  0.00  0.00    +0.211 HD
ENDBRANCH  23  24
BRANCH  23  26
ATOM     26  C   UNL     1     -32.400  28.180   6.132  0.00  0.00    +0.126 C 
BRANCH  26  27
ATOM     27  O   UNL     1     -31.912  26.946   6.668  0.00  0.00    -0.384 OA
ATOM     28  H   UNL     1     -32.583  26.556   7.249  0.00  0.00    +0.210 HD
ENDBRANCH  26  27
BRANCH  26  29
ATOM     29  C   UNL     1     -31.514  29.350   6.631  0.00  0.00    -0.035 C 
BRANCH  29  30
ATOM     30  N   UNL     1     -32.208  30.616   6.385  0.00  0.00    +0.383 N 
ATOM     31  H   UNL     1     -32.871  30.497   5.618  0.00  0.00    -0.089 HD
ATOM     32  H   UNL     1     -31.528  31.335   6.140  0.00  0.00    -0.089 HD
ATOM     33  H   UNL     1     -32.710  30.897   7.228  0.00  0.00    -0.089 HD
ENDBRANCH  29  30
BRANCH  29  34
ATOM     34  C   UNL     1     -30.072  29.326   6.033  0.00  0.00    -0.018 C 
ATOM     35  C   UNL     1     -29.782  30.581   5.199  0.00  0.00    -0.002 C 
ATOM     36  C   UNL     1     -28.965  29.138   7.074  0.00  0.00    -0.002 C 
ENDBRANCH  29  34
ENDBRANCH  26  29
ENDBRANCH  23  26
ENDBRANCH   3  23
TORSDOF 12
ENDMDL
MODEL 6
REMARK VINA RESULT:      -5.7      6.134      9.266
REMARK  Name = 196800
REMARK  12 active torsions:
REMARK  status: ('A' for Active; 'I' for Inactive)
REMARK    1  A    between atoms: N_2  and  C_5
REMARK    2  A    between atoms: C_3  and  C_23
REMARK    3  A    between atoms: C_5  and  C_8
REMARK    4  A    between atoms: C_5  and  C_19
REMARK    5  A    between atoms: C_14  and  O_17
REMARK    6  A    between atoms: C_19  and  C_20
REMARK    7  A    between atoms: C_23  and  O_24
REMARK    8  A    between atoms: C_23  and  C_26
REMARK    9  A    between atoms: C_26  and  O_27
REMARK   10  A    between atoms: C_26  and  C_29
REMARK   11  A    between atoms: C_29  and  N_30
REMARK   12  A    between atoms: C_29  and  C_34
REMARK                            x       y       z     vdW  Elec       q    Type
REMARK                         _______ _______ _______ _____ _____    ______ ____
ROOT
ATOM      1  O   UNL     1     -35.330  20.589   3.807  0.00  0.00    -0.272 OA
ATOM      2  N   UNL     1     -35.661  21.218   1.600  0.00  0.00    -0.300 N 
ATOM      3  C   UNL     1     -35.523  21.457   2.958  0.00  0.00    +0.252 C 
ATOM      4  H   UNL     1     -35.815  21.981   0.996  0.00  0.00    +0.150 HD
ENDROOT
BRANCH   2   5
ATOM      5  C   UNL     1     -35.590  19.890   1.040  0.00  0.00    +0.112 C 
BRANCH   5   8
ATOM      6  O   UNL     1     -33.515  18.739   1.367  0.00  0.00    -0.447 OA
ATOM      7  O   UNL     1     -31.626  17.566   1.794  0.00  0.00    -0.245 OA
ATOM      8  C   UNL     1     -34.199  19.647   0.474  0.00  0.00    +0.191 C 
ATOM      9  C   UNL     1     -33.413  20.945   0.357  0.00  0.00    +0.072 C 
ATOM     10  C   UNL     1     -32.029  20.602  -0.104  0.00  0.00    -0.009 C 
ATOM     11  C   UNL     1     -31.448  19.397   0.308  0.00  0.00    +0.105 C 
ATOM     12  C   UNL     1     -32.189  18.482   1.209  0.00  0.00    +0.344 C 
ATOM     13  C   UNL     1     -31.295  21.482  -0.907  0.00  0.00    -0.004 C 
ATOM     14  C   UNL     1     -30.148  19.068  -0.092  0.00  0.00    +0.140 C 
ATOM     15  C   UNL     1     -30.002  21.150  -1.310  0.00  0.00    +0.003 C 
ATOM     16  C   UNL     1     -29.431  19.945  -0.905  0.00  0.00    +0.037 C 
BRANCH  14  17
ATOM     17  O   UNL     1     -29.540  17.903   0.271  0.00  0.00    -0.505 OA
ATOM     18  H   UNL     1     -29.429  17.217  -0.358  0.00  0.00    +0.292 HD
ENDBRANCH  14  17
ENDBRANCH   5   8
BRANCH   5  19
ATOM     19  C   UNL     1     -36.660  19.678  -0.043  0.00  0.00    +0.023 C 
BRANCH  19  20
ATOM     20  C   UNL     1     -36.543  18.353  -0.826  0.00  0.00    +0.002 C 
ATOM     21  C   UNL     1     -37.474  17.305  -0.210  0.00  0.00    +0.000 C 
ATOM     22  C   UNL     1     -36.869  18.520  -2.312  0.00  0.00    +0.000 C 
ENDBRANCH  19  20
ENDBRANCH   5  19
ENDBRANCH   2   5
BRANCH   3  23
ATOM     23  C   UNL     1     -35.652  22.933   3.311  0.00  0.00    +0.212 C 
BRANCH  23  24
ATOM     24  O   UNL     1     -36.784  23.438   2.607  0.00  0.00    -0.374 OA
ATOM     25  H   UNL     1     -37.559  22.891   2.806  0.00  0.00    +0.211 HD
ENDBRANCH  23  24
BRANCH  23  26
ATOM     26  C   UNL     1     -35.874  23.188   4.815  0.00  0.00    +0.126 C 
BRANCH  26  27
ATOM     27  O   UNL     1     -34.806  22.584   5.552  0.00  0.00    -0.384 OA
ATOM     28  H   UNL     1     -34.844  22.874   6.476  0.00  0.00    +0.210 HD
ENDBRANCH  26  27
BRANCH  26  29
ATOM     29  C   UNL     1     -36.014  24.675   5.228  0.00  0.00    -0.035 C 
BRANCH  29  30
ATOM     30  N   UNL     1     -37.296  25.190   4.740  0.00  0.00    +0.383 N 
ATOM     31  H   UNL     1     -37.197  26.177   4.501  0.00  0.00    -0.089 HD
ATOM     32  H   UNL     1     -38.004  25.084   5.467  0.00  0.00    -0.089 HD
ATOM     33  H   UNL     1     -37.579  24.666   3.912  0.00  0.00    -0.089 HD
ENDBRANCH  29  30
BRANCH  29  34
ATOM     34  C   UNL     1     -34.803  25.553   4.784  0.00  0.00    -0.018 C 
ATOM     35  C   UNL     1     -35.225  26.645   3.792  0.00  0.00    -0.002 C 
ATOM     36  C   UNL     1     -34.029  26.188   5.943  0.00  0.00    -0.002 C 
ENDBRANCH  29  34
ENDBRANCH  26  29
ENDBRANCH  23  26
ENDBRANCH   3  23
TORSDOF 12
ENDMDL
MODEL 7
REMARK VINA RESULT:      -5.6      7.402     11.763
REMARK  Name = 196800
REMARK  12 active torsions:
REMARK  status: ('A' for Active; 'I' for Inactive)
REMARK    1  A    between atoms: N_2  and  C_5
REMARK    2  A    between atoms: C_3  and  C_23
REMARK    3  A    between atoms: C_5  and  C_8
REMARK    4  A    between atoms: C_5  and  C_19
REMARK    5  A    between atoms: C_14  and  O_17
REMARK    6  A    between atoms: C_19  and  C_20
REMARK    7  A    between atoms: C_23  and  O_24
REMARK    8  A    between atoms: C_23  and  C_26
REMARK    9  A    between atoms: C_26  and  O_27
REMARK   10  A    between atoms: C_26  and  C_29
REMARK   11  A    between atoms: C_29  and  N_30
REMARK   12  A    between atoms: C_29  and  C_34
REMARK                            x       y       z     vdW  Elec       q    Type
REMARK                         _______ _______ _______ _____ _____    ______ ____
ROOT
ATOM      1  O   UNL     1     -34.465  22.007   1.267  0.00  0.00    -0.272 OA
ATOM      2  N   UNL     1     -34.939  19.769   1.645  0.00  0.00    -0.300 N 
ATOM      3  C   UNL     1     -35.052  21.128   1.894  0.00  0.00    +0.252 C 
ATOM      4  H   UNL     1     -35.449  19.139   2.203  0.00  0.00    +0.150 HD
ENDROOT
BRANCH   2   5
ATOM      5  C   UNL     1     -34.098  19.246   0.595  0.00  0.00    +0.112 C 
BRANCH   5   8
ATOM      6  O   UNL     1     -36.284  18.432   0.050  0.00  0.00    -0.447 OA
ATOM      7  O   UNL     1     -38.411  17.791  -0.388  0.00  0.00    -0.245 OA
ATOM      8  C   UNL     1     -34.879  18.233  -0.230  0.00  0.00    +0.191 C 
ATOM      9  C   UNL     1     -34.480  16.807   0.121  0.00  0.00    +0.072 C 
ATOM     10  C   UNL     1     -35.367  15.881  -0.654  0.00  0.00    -0.009 C 
ATOM     11  C   UNL     1     -36.690  16.256  -0.915  0.00  0.00    +0.105 C 
ATOM     12  C   UNL     1     -37.211  17.550  -0.410  0.00  0.00    +0.344 C 
ATOM     13  C   UNL     1     -34.907  14.632  -1.087  0.00  0.00    -0.004 C 
ATOM     14  C   UNL     1     -37.542  15.397  -1.617  0.00  0.00    +0.140 C 
ATOM     15  C   UNL     1     -35.755  13.778  -1.791  0.00  0.00    +0.003 C 
ATOM     16  C   UNL     1     -37.069  14.161  -2.057  0.00  0.00    +0.037 C 
BRANCH  14  17
ATOM     17  O   UNL     1     -38.834  15.719  -1.907  0.00  0.00    -0.505 OA
ATOM     18  H   UNL     1     -39.201  16.520  -1.587  0.00  0.00    +0.292 HD
ENDBRANCH  14  17
ENDBRANCH   5   8
BRANCH   5  19
ATOM     19  C   UNL     1     -32.819  18.610   1.164  0.00  0.00    +0.023 C 
BRANCH  19  20
ATOM     20  C   UNL     1     -31.503  19.117   0.536  0.00  0.00    +0.002 C 
ATOM     21  C   UNL     1     -30.944  18.057  -0.418  0.00  0.00    +0.000 C 
ATOM     22  C   UNL     1     -31.684  20.439  -0.214  0.00  0.00    +0.000 C 
ENDBRANCH  19  20
ENDBRANCH   5  19
ENDBRANCH   2   5
BRANCH   3  23
ATOM     23  C   UNL     1     -35.983  21.436   3.060  0.00  0.00    +0.212 C 
BRANCH  23  24
ATOM     24  O   UNL     1     -35.586  20.604   4.148  0.00  0.00    -0.374 OA
ATOM     25  H   UNL     1     -36.026  20.902   4.959  0.00  0.00    +0.211 HD
ENDBRANCH  23  24
BRANCH  23  26
ATOM     26  C   UNL     1     -35.913  22.902   3.531  0.00  0.00    +0.126 C 
BRANCH  26  27
ATOM     27  O   UNL     1     -37.242  23.378   3.768  0.00  0.00    -0.384 OA
ATOM     28  H   UNL     1     -37.210  24.154   4.347  0.00  0.00    +0.210 HD
ENDBRANCH  26  27
BRANCH  26  29
ATOM     29  C   UNL     1     -35.037  23.162   4.783  0.00  0.00    -0.035 C 
BRANCH  29  30
ATOM     30  N   UNL     1     -35.853  22.984   5.985  0.00  0.00    +0.383 N 
ATOM     31  H   UNL     1     -35.265  23.080   6.813  0.00  0.00    -0.089 HD
ATOM     32  H   UNL     1     -36.278  22.057   5.974  0.00  0.00    -0.089 HD
ATOM     33  H   UNL     1     -36.587  23.693   6.006  0.00  0.00    -0.089 HD
ENDBRANCH  29  30
BRANCH  29  34
ATOM     34  C   UNL     1     -34.308  24.542   4.746  0.00  0.00    -0.018 C 
ATOM     35  C   UNL     1     -34.154  25.066   3.312  0.00  0.00    -0.002 C 
ATOM     36  C   UNL     1     -34.963  25.620   5.616  0.00  0.00    -0.002 C 
ENDBRANCH  29  34
ENDBRANCH  26  29
ENDBRANCH  23  26
ENDBRANCH   3  23
TORSDOF 12
ENDMDL
MODEL 8
REMARK VINA RESULT:      -5.6      1.438      2.297
REMARK  Name = 196800
REMARK  12 active torsions:
REMARK  status: ('A' for Active; 'I' for Inactive)
REMARK    1  A    between atoms: N_2  and  C_5
REMARK    2  A    between atoms: C_3  and  C_23
REMARK    3  A    between atoms: C_5  and  C_8
REMARK    4  A    between atoms: C_5  and  C_19
REMARK    5  A    between atoms: C_14  and  O_17
REMARK    6  A    between atoms: C_19  and  C_20
REMARK    7  A    between atoms: C_23  and  O_24
REMARK    8  A    between atoms: C_23  and  C_26
REMARK    9  A    between atoms: C_26  and  O_27
REMARK   10  A    between atoms: C_26  and  C_29
REMARK   11  A    between atoms: C_29  and  N_30
REMARK   12  A    between atoms: C_29  and  C_34
REMARK                            x       y       z     vdW  Elec       q    Type
REMARK                         _______ _______ _______ _____ _____    ______ ____
ROOT
ATOM      1  O   UNL     1     -34.946  26.509   1.989  0.00  0.00    -0.272 OA
ATOM      2  N   UNL     1     -35.255  28.128   3.620  0.00  0.00    -0.300 N 
ATOM      3  C   UNL     1     -35.437  26.876   3.055  0.00  0.00    +0.252 C 
ATOM      4  H   UNL     1     -35.692  28.330   4.479  0.00  0.00    +0.150 HD
ENDROOT
BRANCH   2   5
ATOM      5  C   UNL     1     -34.450  29.148   2.992  0.00  0.00    +0.112 C 
BRANCH   5   8
ATOM      6  O   UNL     1     -33.090  28.293   4.769  0.00  0.00    -0.447 OA
ATOM      7  O   UNL     1     -31.926  27.384   6.486  0.00  0.00    -0.245 OA
ATOM      8  C   UNL     1     -33.056  29.147   3.603  0.00  0.00    +0.191 C 
ATOM      9  C   UNL     1     -32.626  30.551   4.003  0.00  0.00    +0.072 C 
ATOM     10  C   UNL     1     -31.297  30.443   4.688  0.00  0.00    -0.009 C 
ATOM     11  C   UNL     1     -31.015  29.313   5.464  0.00  0.00    +0.105 C 
ATOM     12  C   UNL     1     -32.031  28.243   5.620  0.00  0.00    +0.344 C 
ATOM     13  C   UNL     1     -30.351  31.471   4.598  0.00  0.00    -0.004 C 
ATOM     14  C   UNL     1     -29.790  29.203   6.131  0.00  0.00    +0.140 C 
ATOM     15  C   UNL     1     -29.128  31.357   5.258  0.00  0.00    +0.003 C 
ATOM     16  C   UNL     1     -28.848  30.225   6.022  0.00  0.00    +0.037 C 
BRANCH  14  17
ATOM     17  O   UNL     1     -29.461  28.118   6.888  0.00  0.00    -0.505 OA
ATOM     18  H   UNL     1     -30.133  27.621   7.312  0.00  0.00    +0.292 HD
ENDBRANCH  14  17
ENDBRANCH   5   8
BRANCH   5  19
ATOM     19  C   UNL     1     -35.098  30.536   3.123  0.00  0.00    +0.023 C 
BRANCH  19  20
ATOM     20  C   UNL     1     -35.708  31.096   1.821  0.00  0.00    +0.002 C 
ATOM     21  C   UNL     1     -35.040  32.429   1.469  0.00  0.00    +0.000 C 
ATOM     22  C   UNL     1     -35.571  30.127   0.645  0.00  0.00    +0.000 C 
ENDBRANCH  19  20
ENDBRANCH   5  19
ENDBRANCH   2   5
BRANCH   3  23
ATOM     23  C   UNL     1     -36.339  25.978   3.892  0.00  0.00    +0.212 C 
BRANCH  23  24
ATOM     24  O   UNL     1     -36.453  26.578   5.180  0.00  0.00    -0.374 OA
ATOM     25  H   UNL     1     -37.338  26.964   5.279  0.00  0.00    +0.211 HD
ENDBRANCH  23  24
BRANCH  23  26
ATOM     26  C   UNL     1     -37.758  25.820   3.311  0.00  0.00    +0.126 C 
BRANCH  26  27
ATOM     27  O   UNL     1     -37.982  26.851   2.343  0.00  0.00    -0.384 OA
ATOM     28  H   UNL     1     -38.872  26.760   1.972  0.00  0.00    +0.210 HD
ENDBRANCH  26  27
BRANCH  26  29
ATOM     29  C   UNL     1     -38.074  24.440   2.683  0.00  0.00    -0.035 C 
BRANCH  29  30
ATOM     30  N   UNL     1     -37.473  23.389   3.506  0.00  0.00    +0.383 N 
ATOM     31  H   UNL     1     -36.857  22.815   2.929  0.00  0.00    -0.089 HD
ATOM     32  H   UNL     1     -38.208  22.805   3.904  0.00  0.00    -0.089 HD
ATOM     33  H   UNL     1     -36.932  23.815   4.259  0.00  0.00    -0.089 HD
ENDBRANCH  29  30
BRANCH  29  34
ATOM     34  C   UNL     1     -37.662  24.340   1.181  0.00  0.00    -0.018 C 
ATOM     35  C   UNL     1     -36.485  23.377   0.976  0.00  0.00    -0.002 C 
ATOM     36  C   UNL     1     -38.807  23.953   0.240  0.00  0.00    -0.002 C 
ENDBRANCH  29  34
ENDBRANCH  26  29
ENDBRANCH  23  26
ENDBRANCH   3  23
TORSDOF 12
ENDMDL
MODEL 9
REMARK VINA RESULT:      -5.6      5.628      9.011
REMARK  Name = 196800
REMARK  12 active torsions:
REMARK  status: ('A' for Active; 'I' for Inactive)
REMARK    1  A    between atoms: N_2  and  C_5
REMARK    2  A    between atoms: C_3  and  C_23
REMARK    3  A    between atoms: C_5  and  C_8
REMARK    4  A    between atoms: C_5  and  C_19
REMARK    5  A    between atoms: C_14  and  O_17
REMARK    6  A    between atoms: C_19  and  C_20
REMARK    7  A    between atoms: C_23  and  O_24
REMARK    8  A    between atoms: C_23  and  C_26
REMARK    9  A    between atoms: C_26  and  O_27
REMARK   10  A    between atoms: C_26  and  C_29
REMARK   11  A    between atoms: C_29  and  N_30
REMARK   12  A    between atoms: C_29  and  C_34
REMARK                            x       y       z     vdW  Elec       q    Type
REMARK                         _______ _______ _______ _____ _____    ______ ____
ROOT
ATOM      1  O   UNL     1     -35.213  20.382   3.740  0.00  0.00    -0.272 OA
ATOM      2  N   UNL     1     -35.898  22.062   2.296  0.00  0.00    -0.300 N 
ATOM      3  C   UNL     1     -35.349  20.827   2.602  0.00  0.00    +0.252 C 
ATOM      4  H   UNL     1     -35.965  22.332   1.352  0.00  0.00    +0.150 HD
ENDROOT
BRANCH   2   5
ATOM      5  C   UNL     1     -36.374  22.967   3.315  0.00  0.00    +0.112 C 
BRANCH   5   8
ATOM      6  O   UNL     1     -38.477  22.504   2.266  0.00  0.00    -0.447 OA
ATOM      7  O   UNL     1     -40.427  21.910   1.281  0.00  0.00    -0.245 OA
ATOM      8  C   UNL     1     -37.710  23.559   2.891  0.00  0.00    +0.191 C 
ATOM      9  C   UNL     1     -37.521  24.709   1.912  0.00  0.00    +0.072 C 
ATOM     10  C   UNL     1     -38.879  25.158   1.468  0.00  0.00    -0.009 C 
ATOM     11  C   UNL     1     -39.907  24.216   1.342  0.00  0.00    +0.105 C 
ATOM     12  C   UNL     1     -39.644  22.785   1.627  0.00  0.00    +0.344 C 
ATOM     13  C   UNL     1     -39.127  26.496   1.138  0.00  0.00    -0.004 C 
ATOM     14  C   UNL     1     -41.176  24.610   0.906  0.00  0.00    +0.140 C 
ATOM     15  C   UNL     1     -40.394  26.889   0.710  0.00  0.00    +0.003 C 
ATOM     16  C   UNL     1     -41.417  25.949   0.596  0.00  0.00    +0.037 C 
BRANCH  14  17
ATOM     17  O   UNL     1     -42.214  23.736   0.779  0.00  0.00    -0.505 OA
ATOM     18  H   UNL     1     -43.052  23.947   1.142  0.00  0.00    +0.292 HD
ENDBRANCH  14  17
ENDBRANCH   5   8
BRANCH   5  19
ATOM     19  C   UNL     1     -35.353  24.081   3.599  0.00  0.00    +0.023 C 
BRANCH  19  20
ATOM     20  C   UNL     1     -35.065  24.337   5.093  0.00  0.00    +0.002 C 
ATOM     21  C   UNL     1     -35.889  25.533   5.580  0.00  0.00    +0.000 C 
ATOM     22  C   UNL     1     -35.365  23.116   5.965  0.00  0.00    +0.000 C 
ENDBRANCH  19  20
ENDBRANCH   5  19
ENDBRANCH   2   5
BRANCH   3  23
ATOM     23  C   UNL     1     -34.904  20.059   1.364  0.00  0.00    +0.212 C 
BRANCH  23  24
ATOM     24  O   UNL     1     -34.046  19.009   1.804  0.00  0.00    -0.374 OA
ATOM     25  H   UNL     1     -33.649  18.572   1.035  0.00  0.00    +0.211 HD
ENDBRANCH  23  24
BRANCH  23  26
ATOM     26  C   UNL     1     -36.071  19.424   0.582  0.00  0.00    +0.126 C 
BRANCH  26  27
ATOM     27  O   UNL     1     -37.281  19.599   1.328  0.00  0.00    -0.384 OA
ATOM     28  H   UNL     1     -37.598  20.509   1.222  0.00  0.00    +0.210 HD
ENDBRANCH  26  27
BRANCH  26  29
ATOM     29  C   UNL     1     -36.271  19.946  -0.863  0.00  0.00    -0.035 C 
BRANCH  29  30
ATOM     30  N   UNL     1     -34.979  20.374  -1.402  0.00  0.00    +0.383 N 
ATOM     31  H   UNL     1     -35.124  21.123  -2.080  0.00  0.00    -0.089 HD
ATOM     32  H   UNL     1     -34.522  19.585  -1.858  0.00  0.00    -0.089 HD
ATOM     33  H   UNL     1     -34.390  20.714  -0.641  0.00  0.00    -0.089 HD
ENDBRANCH  29  30
BRANCH  29  34
ATOM     34  C   UNL     1     -37.366  21.054  -0.969  0.00  0.00    -0.018 C 
ATOM     35  C   UNL     1     -36.754  22.461  -0.964  0.00  0.00    -0.002 C 
ATOM     36  C   UNL     1     -38.293  20.906  -2.180  0.00  0.00    -0.002 C 
ENDBRANCH  29  34
ENDBRANCH  26  29
ENDBRANCH  23  26
ENDBRANCH   3  23
TORSDOF 12
ENDMDL
