MODEL 1
REMARK VINA RESULT:      -5.7      0.000      0.000
REMARK  Name = 196510
REMARK  12 active torsions:
REMARK  status: ('A' for Active; 'I' for Inactive)
REMARK    1  A    between atoms: N_2  and  C_7
REMARK    2  A    between atoms: N_3  and  C_21
REMARK    3  A    between atoms: C_7  and  C_8
REMARK    4  A    between atoms: C_8  and  C_9
REMARK    5  A    between atoms: C_9  and  C_10
REMARK    6  A    between atoms: C_10  and  N_13
REMARK    7  A    between atoms: N_14  and  C_19
REMARK    8  A    between atoms: C_21  and  C_22
REMARK    9  A    between atoms: C_22  and  C_23
REMARK   10  A    between atoms: C_23  and  C_24
REMARK   11  A    between atoms: C_24  and  N_27
REMARK   12  A    between atoms: N_28  and  C_33
REMARK                            x       y       z     vdW  Elec       q    Type
REMARK                         _______ _______ _______ _____ _____    ______ ____
ROOT
ATOM      1  O   UNL     1     -35.942  26.833   2.490  0.00  0.00    -0.253 OA
ATOM      2  N   UNL     1     -34.767  28.635   3.359  0.00  0.00    -0.289 N 
ATOM      3  N   UNL     1     -35.561  26.998   4.776  0.00  0.00    -0.289 N 
ATOM      4  C   UNL     1     -35.466  27.435   3.453  0.00  0.00    +0.301 C 
ATOM      5  H   UNL     1     -34.422  29.045   4.184  0.00  0.00    +0.151 HD
ATOM      6  H   UNL     1     -35.147  27.550   5.479  0.00  0.00    +0.151 HD
ENDROOT
BRANCH   2   7
ATOM      7  C   UNL     1     -34.526  29.304   2.101  0.00  0.00    +0.091 C 
BRANCH   7   8
ATOM      8  C   UNL     1     -33.280  28.781   1.394  0.00  0.00    +0.023 C 
BRANCH   8   9
ATOM      9  C   UNL     1     -31.989  29.121   2.149  0.00  0.00    +0.023 C 
BRANCH   9  10
ATOM     10  C   UNL     1     -31.483  27.954   2.993  0.00  0.00    +0.094 C 
BRANCH  10  13
ATOM     11  O   UNL     1     -32.787  28.313   5.538  0.00  0.00    -0.265 OA
ATOM     12  O   UNL     1     -31.571  29.631   7.465  0.00  0.00    -0.265 OA
ATOM     13  N   UNL     1     -30.853  28.396   4.227  0.00  0.00    -0.271 N 
ATOM     14  N   UNL     1     -29.487  29.056   6.579  0.00  0.00    -0.271 N 
ATOM     15  C   UNL     1     -29.451  28.772   4.171  0.00  0.00    +0.115 C 
ATOM     16  C   UNL     1     -28.777  28.423   5.481  0.00  0.00    +0.115 C 
ATOM     17  C   UNL     1     -31.597  28.569   5.387  0.00  0.00    +0.303 C 
ATOM     18  C   UNL     1     -30.872  29.144   6.584  0.00  0.00    +0.303 C 
BRANCH  14  19
ATOM     19  C   UNL     1     -28.707  29.477   7.732  0.00  0.00    +0.094 C 
ATOM     20  C   UNL     1     -27.568  30.389   7.328  0.00  0.00    +0.023 C 
ENDBRANCH  14  19
ENDBRANCH  10  13
ENDBRANCH   9  10
ENDBRANCH   8   9
ENDBRANCH   7   8
ENDBRANCH   2   7
BRANCH   3  21
ATOM     21  C   UNL     1     -36.230  25.788   5.166  0.00  0.00    +0.091 C 
BRANCH  21  22
ATOM     22  C   UNL     1     -35.274  24.764   5.771  0.00  0.00    +0.023 C 
BRANCH  22  23
ATOM     23  C   UNL     1     -35.549  23.339   5.274  0.00  0.00    +0.023 C 
BRANCH  23  24
ATOM     24  C   UNL     1     -35.034  23.105   3.857  0.00  0.00    +0.094 C 
BRANCH  24  27
ATOM     25  O   UNL     1     -35.187  20.335   3.078  0.00  0.00    -0.265 OA
ATOM     26  O   UNL     1     -36.755  19.610   1.093  0.00  0.00    -0.265 OA
ATOM     27  N   UNL     1     -36.040  22.508   2.994  0.00  0.00    -0.271 N 
ATOM     28  N   UNL     1     -38.148  21.445   1.488  0.00  0.00    -0.271 N 
ATOM     29  C   UNL     1     -37.024  23.394   2.394  0.00  0.00    +0.115 C 
ATOM     30  C   UNL     1     -38.343  22.667   2.249  0.00  0.00    +0.115 C 
ATOM     31  C   UNL     1     -35.987  21.162   2.657  0.00  0.00    +0.303 C 
ATOM     32  C   UNL     1     -37.010  20.666   1.661  0.00  0.00    +0.303 C 
BRANCH  28  33
ATOM     33  C   UNL     1     -39.238  20.998   0.638  0.00  0.00    +0.094 C 
ATOM     34  C   UNL     1     -39.027  21.420  -0.802  0.00  0.00    +0.023 C 
ENDBRANCH  28  33
ENDBRANCH  24  27
ENDBRANCH  23  24
ENDBRANCH  22  23
ENDBRANCH  21  22
ENDBRANCH   3  21
TORSDOF 12
ENDMDL
MODEL 2
REMARK VINA RESULT:      -5.6      6.799     10.919
REMARK  Name = 196510
REMARK  12 active torsions:
REMARK  status: ('A' for Active; 'I' for Inactive)
REMARK    1  A    between atoms: N_2  and  C_7
REMARK    2  A    between atoms: N_3  and  C_21
REMARK    3  A    between atoms: C_7  and  C_8
REMARK    4  A    between atoms: C_8  and  C_9
REMARK    5  A    between atoms: C_9  and  C_10
REMARK    6  A    between atoms: C_10  and  N_13
REMARK    7  A    between atoms: N_14  and  C_19
REMARK    8  A    between atoms: C_21  and  C_22
REMARK    9  A    between atoms: C_22  and  C_23
REMARK   10  A    between atoms: C_23  and  C_24
REMARK   11  A    between atoms: C_24  and  N_27
REMARK   12  A    between atoms: N_28  and  C_33
REMARK                            x       y       z     vdW  Elec       q    Type
REMARK                         _______ _______ _______ _____ _____    ______ ____
ROOT
ATOM      1  O   UNL     1     -40.153  26.624   2.115  0.00  0.00    -0.253 OA
ATOM      2  N   UNL     1     -41.346  26.358   4.088  0.00  0.00    -0.289 N 
ATOM      3  N   UNL     1     -39.413  25.147   3.748  0.00  0.00    -0.289 N 
ATOM      4  C   UNL     1     -40.292  26.092   3.217  0.00  0.00    +0.301 C 
ATOM      5  H   UNL     1     -41.375  25.884   4.950  0.00  0.00    +0.151 HD
ATOM      6  H   UNL     1     -39.609  24.778   4.640  0.00  0.00    +0.151 HD
ENDROOT
BRANCH   2   7
ATOM      7  C   UNL     1     -42.397  27.300   3.780  0.00  0.00    +0.091 C 
BRANCH   7   8
ATOM      8  C   UNL     1     -43.716  26.609   3.445  0.00  0.00    +0.023 C 
BRANCH   8   9
ATOM      9  C   UNL     1     -44.912  27.567   3.507  0.00  0.00    +0.023 C 
BRANCH   9  10
ATOM     10  C   UNL     1     -44.495  29.000   3.824  0.00  0.00    +0.094 C 
BRANCH  10  13
ATOM     11  O   UNL     1     -42.700  30.071   5.808  0.00  0.00    -0.265 OA
ATOM     12  O   UNL     1     -43.443  30.185   8.331  0.00  0.00    -0.265 OA
ATOM     13  N   UNL     1     -44.847  29.391   5.181  0.00  0.00    -0.271 N 
ATOM     14  N   UNL     1     -45.687  30.296   7.692  0.00  0.00    -0.271 N 
ATOM     15  C   UNL     1     -46.211  29.152   5.619  0.00  0.00    +0.115 C 
ATOM     16  C   UNL     1     -46.631  30.235   6.589  0.00  0.00    +0.115 C 
ATOM     17  C   UNL     1     -43.882  29.861   6.061  0.00  0.00    +0.303 C 
ATOM     18  C   UNL     1     -44.326  30.128   7.482  0.00  0.00    +0.303 C 
BRANCH  14  19
ATOM     19  C   UNL     1     -46.203  30.668   9.000  0.00  0.00    +0.094 C 
ATOM     20  C   UNL     1     -47.289  31.717   8.891  0.00  0.00    +0.023 C 
ENDBRANCH  14  19
ENDBRANCH  10  13
ENDBRANCH   9  10
ENDBRANCH   8   9
ENDBRANCH   7   8
ENDBRANCH   2   7
BRANCH   3  21
ATOM     21  C   UNL     1     -38.237  24.685   3.064  0.00  0.00    +0.091 C 
BRANCH  21  22
ATOM     22  C   UNL     1     -36.959  25.308   3.618  0.00  0.00    +0.023 C 
BRANCH  22  23
ATOM     23  C   UNL     1     -36.115  25.982   2.529  0.00  0.00    +0.023 C 
BRANCH  23  24
ATOM     24  C   UNL     1     -34.636  25.623   2.631  0.00  0.00    +0.094 C 
BRANCH  24  27
ATOM     25  O   UNL     1     -33.921  25.062   5.365  0.00  0.00    -0.265 OA
ATOM     26  O   UNL     1     -33.109  27.009   6.940  0.00  0.00    -0.265 OA
ATOM     27  N   UNL     1     -33.912  26.508   3.530  0.00  0.00    -0.271 N 
ATOM     28  N   UNL     1     -32.339  28.217   5.093  0.00  0.00    -0.271 N 
ATOM     29  C   UNL     1     -33.580  27.837   3.045  0.00  0.00    +0.115 C 
ATOM     30  C   UNL     1     -32.264  28.284   3.644  0.00  0.00    +0.115 C 
ATOM     31  C   UNL     1     -33.659  26.140   4.844  0.00  0.00    +0.303 C 
ATOM     32  C   UNL     1     -33.005  27.177   5.730  0.00  0.00    +0.303 C 
BRANCH  28  33
ATOM     33  C   UNL     1     -31.586  29.200   5.854  0.00  0.00    +0.094 C 
ATOM     34  C   UNL     1     -32.103  30.603   5.611  0.00  0.00    +0.023 C 
ENDBRANCH  28  33
ENDBRANCH  24  27
ENDBRANCH  23  24
ENDBRANCH  22  23
ENDBRANCH  21  22
ENDBRANCH   3  21
TORSDOF 12
ENDMDL
MODEL 3
REMARK VINA RESULT:      -5.6      4.623      8.867
REMARK  Name = 196510
REMARK  12 active torsions:
REMARK  status: ('A' for Active; 'I' for Inactive)
REMARK    1  A    between atoms: N_2  and  C_7
REMARK    2  A    between atoms: N_3  and  C_21
REMARK    3  A    between atoms: C_7  and  C_8
REMARK    4  A    between atoms: C_8  and  C_9
REMARK    5  A    between atoms: C_9  and  C_10
REMARK    6  A    between atoms: C_10  and  N_13
REMARK    7  A    between atoms: N_14  and  C_19
REMARK    8  A    between atoms: C_21  and  C_22
REMARK    9  A    between atoms: C_22  and  C_23
REMARK   10  A    between atoms: C_23  and  C_24
REMARK   11  A    between atoms: C_24  and  N_27
REMARK   12  A    between atoms: N_28  and  C_33
REMARK                            x       y       z     vdW  Elec       q    Type
REMARK                         _______ _______ _______ _____ _____    ______ ____
ROOT
ATOM      1  O   UNL     1     -34.930  27.236   1.813  0.00  0.00    -0.253 OA
ATOM      2  N   UNL     1     -37.203  26.994   2.213  0.00  0.00    -0.289 N 
ATOM      3  N   UNL     1     -35.712  26.851   3.967  0.00  0.00    -0.289 N 
ATOM      4  C   UNL     1     -35.864  27.045   2.592  0.00  0.00    +0.301 C 
ATOM      5  H   UNL     1     -37.883  26.835   2.907  0.00  0.00    +0.151 HD
ATOM      6  H   UNL     1     -36.521  26.705   4.509  0.00  0.00    +0.151 HD
ENDROOT
BRANCH   2   7
ATOM      7  C   UNL     1     -37.636  27.164   0.846  0.00  0.00    +0.091 C 
BRANCH   7   8
ATOM      8  C   UNL     1     -38.832  26.281   0.500  0.00  0.00    +0.023 C 
BRANCH   8   9
ATOM      9  C   UNL     1     -39.938  26.349   1.560  0.00  0.00    +0.023 C 
BRANCH   9  10
ATOM     10  C   UNL     1     -41.156  27.133   1.081  0.00  0.00    +0.094 C 
BRANCH  10  13
ATOM     11  O   UNL     1     -42.348  28.813   3.097  0.00  0.00    -0.265 OA
ATOM     12  O   UNL     1     -44.158  27.826   4.732  0.00  0.00    -0.265 OA
ATOM     13  N   UNL     1     -42.349  26.832   1.858  0.00  0.00    -0.271 N 
ATOM     14  N   UNL     1     -44.763  26.227   3.139  0.00  0.00    -0.271 N 
ATOM     15  C   UNL     1     -42.966  25.530   1.668  0.00  0.00    +0.115 C 
ATOM     16  C   UNL     1     -44.464  25.646   1.841  0.00  0.00    +0.115 C 
ATOM     17  C   UNL     1     -42.807  27.708   2.833  0.00  0.00    +0.303 C 
ATOM     18  C   UNL     1     -43.984  27.249   3.665  0.00  0.00    +0.303 C 
BRANCH  14  19
ATOM     19  C   UNL     1     -45.979  25.793   3.808  0.00  0.00    +0.094 C 
ATOM     20  C   UNL     1     -46.464  24.464   3.269  0.00  0.00    +0.023 C 
ENDBRANCH  14  19
ENDBRANCH  10  13
ENDBRANCH   9  10
ENDBRANCH   8   9
ENDBRANCH   7   8
ENDBRANCH   2   7
BRANCH   3  21
ATOM     21  C   UNL     1     -34.439  26.853   4.632  0.00  0.00    +0.091 C 
BRANCH  21  22
ATOM     22  C   UNL     1     -34.339  25.769   5.701  0.00  0.00    +0.023 C 
BRANCH  22  23
ATOM     23  C   UNL     1     -34.208  24.363   5.101  0.00  0.00    +0.023 C 
BRANCH  23  24
ATOM     24  C   UNL     1     -35.382  23.460   5.467  0.00  0.00    +0.094 C 
BRANCH  24  27
ATOM     25  O   UNL     1     -37.650  24.504   4.029  0.00  0.00    -0.265 OA
ATOM     26  O   UNL     1     -38.929  22.983   2.304  0.00  0.00    -0.265 OA
ATOM     27  N   UNL     1     -36.008  22.864   4.298  0.00  0.00    -0.271 N 
ATOM     28  N   UNL     1     -36.993  21.725   1.938  0.00  0.00    -0.271 N 
ATOM     29  C   UNL     1     -35.504  21.578   3.847  0.00  0.00    +0.115 C 
ATOM     30  C   UNL     1     -35.617  21.487   2.341  0.00  0.00    +0.115 C 
ATOM     31  C   UNL     1     -37.125  23.443   3.712  0.00  0.00    +0.303 C 
ATOM     32  C   UNL     1     -37.771  22.683   2.575  0.00  0.00    +0.303 C 
BRANCH  28  33
ATOM     33  C   UNL     1     -37.484  21.021   0.765  0.00  0.00    +0.094 C 
ATOM     34  C   UNL     1     -36.721  19.733   0.532  0.00  0.00    +0.023 C 
ENDBRANCH  28  33
ENDBRANCH  24  27
ENDBRANCH  23  24
ENDBRANCH  22  23
ENDBRANCH  21  22
ENDBRANCH   3  21
TORSDOF 12
ENDMDL
MODEL 4
REMARK VINA RESULT:      -5.6      5.969      9.235
REMARK  Name = 196510
REMARK  12 active torsions:
REMARK  status: ('A' for Active; 'I' for Inactive)
REMARK    1  A    between atoms: N_2  and  C_7
REMARK    2  A    between atoms: N_3  and  C_21
REMARK    3  A    between atoms: C_7  and  C_8
REMARK    4  A    between atoms: C_8  and  C_9
REMARK    5  A    between atoms: C_9  and  C_10
REMARK    6  A    between atoms: C_10  and  N_13
REMARK    7  A    between atoms: N_14  and  C_19
REMARK    8  A    between atoms: C_21  and  C_22
REMARK    9  A    between atoms: C_22  and  C_23
REMARK   10  A    between atoms: C_23  and  C_24
REMARK   11  A    between atoms: C_24  and  N_27
REMARK   12  A    between atoms: N_28  and  C_33
REMARK                            x       y       z     vdW  Elec       q    Type
REMARK                         _______ _______ _______ _____ _____    ______ ____
ROOT
ATOM      1  O   UNL     1     -37.994  26.492   2.805  0.00  0.00    -0.253 OA
ATOM      2  N   UNL     1     -39.695  25.265   3.798  0.00  0.00    -0.289 N 
ATOM      3  N   UNL     1     -37.517  24.979   4.502  0.00  0.00    -0.289 N 
ATOM      4  C   UNL     1     -38.369  25.655   3.626  0.00  0.00    +0.301 C 
ATOM      5  H   UNL     1     -39.901  24.587   4.482  0.00  0.00    +0.151 HD
ATOM      6  H   UNL     1     -37.912  24.326   5.124  0.00  0.00    +0.151 HD
ENDROOT
BRANCH   2   7
ATOM      7  C   UNL     1     -40.779  25.813   3.017  0.00  0.00    +0.091 C 
BRANCH   7   8
ATOM      8  C   UNL     1     -41.660  26.758   3.828  0.00  0.00    +0.023 C 
BRANCH   8   9
ATOM      9  C   UNL     1     -42.914  27.197   3.061  0.00  0.00    +0.023 C 
BRANCH   9  10
ATOM     10  C   UNL     1     -43.369  28.602   3.444  0.00  0.00    +0.094 C 
BRANCH  10  13
ATOM     11  O   UNL     1     -42.835  30.357   5.667  0.00  0.00    -0.265 OA
ATOM     12  O   UNL     1     -43.884  29.849   8.026  0.00  0.00    -0.265 OA
ATOM     13  N   UNL     1     -44.083  28.627   4.711  0.00  0.00    -0.271 N 
ATOM     14  N   UNL     1     -45.661  28.713   7.021  0.00  0.00    -0.271 N 
ATOM     15  C   UNL     1     -45.114  27.625   4.924  0.00  0.00    +0.115 C 
ATOM     16  C   UNL     1     -46.219  28.206   5.779  0.00  0.00    +0.115 C 
ATOM     17  C   UNL     1     -43.707  29.496   5.726  0.00  0.00    +0.303 C 
ATOM     18  C   UNL     1     -44.435  29.362   7.045  0.00  0.00    +0.303 C 
BRANCH  14  19
ATOM     19  C   UNL     1     -46.489  28.632   8.214  0.00  0.00    +0.094 C 
ATOM     20  C   UNL     1     -46.262  27.335   8.961  0.00  0.00    +0.023 C 
ENDBRANCH  14  19
ENDBRANCH  10  13
ENDBRANCH   9  10
ENDBRANCH   8   9
ENDBRANCH   7   8
ENDBRANCH   2   7
BRANCH   3  21
ATOM     21  C   UNL     1     -36.096  25.185   4.543  0.00  0.00    +0.091 C 
BRANCH  21  22
ATOM     22  C   UNL     1     -35.364  24.049   5.252  0.00  0.00    +0.023 C 
BRANCH  22  23
ATOM     23  C   UNL     1     -35.590  22.692   4.573  0.00  0.00    +0.023 C 
BRANCH  23  24
ATOM     24  C   UNL     1     -35.085  22.667   3.134  0.00  0.00    +0.094 C 
BRANCH  24  27
ATOM     25  O   UNL     1     -34.930  19.891   2.378  0.00  0.00    -0.265 OA
ATOM     26  O   UNL     1     -36.342  18.999   0.343  0.00  0.00    -0.265 OA
ATOM     27  N   UNL     1     -35.994  21.967   2.241  0.00  0.00    -0.271 N 
ATOM     28  N   UNL     1     -37.926  20.687   0.670  0.00  0.00    -0.271 N 
ATOM     29  C   UNL     1     -37.038  22.745   1.596  0.00  0.00    +0.115 C 
ATOM     30  C   UNL     1     -38.271  21.888   1.411  0.00  0.00    +0.115 C 
ATOM     31  C   UNL     1     -35.793  20.631   1.919  0.00  0.00    +0.303 C 
ATOM     32  C   UNL     1     -36.724  20.028   0.891  0.00  0.00    +0.303 C 
BRANCH  28  33
ATOM     33  C   UNL     1     -38.934  20.128  -0.216  0.00  0.00    +0.094 C 
ATOM     34  C   UNL     1     -40.185  20.982  -0.242  0.00  0.00    +0.023 C 
ENDBRANCH  28  33
ENDBRANCH  24  27
ENDBRANCH  23  24
ENDBRANCH  22  23
ENDBRANCH  21  22
ENDBRANCH   3  21
TORSDOF 12
ENDMDL
MODEL 5
REMARK VINA RESULT:      -5.5      6.454     11.221
REMARK  Name = 196510
REMARK  12 active torsions:
REMARK  status: ('A' for Active; 'I' for Inactive)
REMARK    1  A    between atoms: N_2  and  C_7
REMARK    2  A    between atoms: N_3  and  C_21
REMARK    3  A    between atoms: C_7  and  C_8
REMARK    4  A    between atoms: C_8  and  C_9
REMARK    5  A    between atoms: C_9  and  C_10
REMARK    6  A    between atoms: C_10  and  N_13
REMARK    7  A    between atoms: N_14  and  C_19
REMARK    8  A    between atoms: C_21  and  C_22
REMARK    9  A    between atoms: C_22  and  C_23
REMARK   10  A    between atoms: C_23  and  C_24
REMARK   11  A    between atoms: C_24  and  N_27
REMARK   12  A    between atoms: N_28  and  C_33
REMARK                            x       y       z     vdW  Elec       q    Type
REMARK                         _______ _______ _______ _____ _____    ______ ____
ROOT
ATOM      1  O   UNL     1     -38.505  26.392   2.437  0.00  0.00    -0.253 OA
ATOM      2  N   UNL     1     -40.288  25.517   3.637  0.00  0.00    -0.289 N 
ATOM      3  N   UNL     1     -38.133  24.897   4.175  0.00  0.00    -0.289 N 
ATOM      4  C   UNL     1     -38.937  25.669   3.334  0.00  0.00    +0.301 C 
ATOM      5  H   UNL     1     -40.540  24.915   4.373  0.00  0.00    +0.151 HD
ATOM      6  H   UNL     1     -38.572  24.349   4.865  0.00  0.00    +0.151 HD
ENDROOT
BRANCH   2   7
ATOM      7  C   UNL     1     -41.333  26.206   2.917  0.00  0.00    +0.091 C 
BRANCH   7   8
ATOM      8  C   UNL     1     -41.998  27.294   3.756  0.00  0.00    +0.023 C 
BRANCH   8   9
ATOM      9  C   UNL     1     -43.505  27.067   3.924  0.00  0.00    +0.023 C 
BRANCH   9  10
ATOM     10  C   UNL     1     -44.296  28.371   3.907  0.00  0.00    +0.094 C 
BRANCH  10  13
ATOM     11  O   UNL     1     -42.800  30.072   5.689  0.00  0.00    -0.265 OA
ATOM     12  O   UNL     1     -43.477  30.239   8.227  0.00  0.00    -0.265 OA
ATOM     13  N   UNL     1     -44.702  28.790   5.240  0.00  0.00    -0.271 N 
ATOM     14  N   UNL     1     -45.686  29.689   7.701  0.00  0.00    -0.271 N 
ATOM     15  C   UNL     1     -45.940  28.244   5.770  0.00  0.00    +0.115 C 
ATOM     16  C   UNL     1     -46.609  29.270   6.660  0.00  0.00    +0.115 C 
ATOM     17  C   UNL     1     -43.875  29.584   6.022  0.00  0.00    +0.303 C 
ATOM     18  C   UNL     1     -44.335  29.866   7.435  0.00  0.00    +0.303 C 
BRANCH  14  19
ATOM     19  C   UNL     1     -46.246  30.041   8.996  0.00  0.00    +0.094 C 
ATOM     20  C   UNL     1     -47.075  31.305   8.916  0.00  0.00    +0.023 C 
ENDBRANCH  14  19
ENDBRANCH  10  13
ENDBRANCH   9  10
ENDBRANCH   8   9
ENDBRANCH   7   8
ENDBRANCH   2   7
BRANCH   3  21
ATOM     21  C   UNL     1     -36.699  24.860   4.087  0.00  0.00    +0.091 C 
BRANCH  21  22
ATOM     22  C   UNL     1     -36.042  26.039   4.797  0.00  0.00    +0.023 C 
BRANCH  22  23
ATOM     23  C   UNL     1     -34.510  25.973   4.752  0.00  0.00    +0.023 C 
BRANCH  23  24
ATOM     24  C   UNL     1     -33.902  27.082   3.901  0.00  0.00    +0.094 C 
BRANCH  24  27
ATOM     25  O   UNL     1     -31.801  28.513   2.544  0.00  0.00    -0.265 OA
ATOM     26  O   UNL     1     -29.528  29.000   3.780  0.00  0.00    -0.265 OA
ATOM     27  N   UNL     1     -32.725  27.671   4.518  0.00  0.00    -0.271 N 
ATOM     28  N   UNL     1     -30.610  28.934   5.851  0.00  0.00    -0.271 N 
ATOM     29  C   UNL     1     -32.533  27.459   5.943  0.00  0.00    +0.115 C 
ATOM     30  C   UNL     1     -31.854  28.666   6.552  0.00  0.00    +0.115 C 
ATOM     31  C   UNL     1     -31.757  28.306   3.751  0.00  0.00    +0.303 C 
ATOM     32  C   UNL     1     -30.516  28.780   4.474  0.00  0.00    +0.303 C 
BRANCH  28  33
ATOM     33  C   UNL     1     -29.509  29.489   6.620  0.00  0.00    +0.094 C 
ATOM     34  C   UNL     1     -28.588  28.402   7.135  0.00  0.00    +0.023 C 
ENDBRANCH  28  33
ENDBRANCH  24  27
ENDBRANCH  23  24
ENDBRANCH  22  23
ENDBRANCH  21  22
ENDBRANCH   3  21
TORSDOF 12
ENDMDL
MODEL 6
REMARK VINA RESULT:      -5.4      3.528      8.951
REMARK  Name = 196510
REMARK  12 active torsions:
REMARK  status: ('A' for Active; 'I' for Inactive)
REMARK    1  A    between atoms: N_2  and  C_7
REMARK    2  A    between atoms: N_3  and  C_21
REMARK    3  A    between atoms: C_7  and  C_8
REMARK    4  A    between atoms: C_8  and  C_9
REMARK    5  A    between atoms: C_9  and  C_10
REMARK    6  A    between atoms: C_10  and  N_13
REMARK    7  A    between atoms: N_14  and  C_19
REMARK    8  A    between atoms: C_21  and  C_22
REMARK    9  A    between atoms: C_22  and  C_23
REMARK   10  A    between atoms: C_23  and  C_24
REMARK   11  A    between atoms: C_24  and  N_27
REMARK   12  A    between atoms: N_28  and  C_33
REMARK                            x       y       z     vdW  Elec       q    Type
REMARK                         _______ _______ _______ _____ _____    ______ ____
ROOT
ATOM      1  O   UNL     1     -35.055  20.631   1.078  0.00  0.00    -0.253 OA
ATOM      2  N   UNL     1     -37.031  19.500   1.525  0.00  0.00    -0.289 N 
ATOM      3  N   UNL     1     -36.057  20.795   3.167  0.00  0.00    -0.289 N 
ATOM      4  C   UNL     1     -35.965  20.335   1.851  0.00  0.00    +0.301 C 
ATOM      5  H   UNL     1     -37.714  19.320   2.211  0.00  0.00    +0.151 HD
ATOM      6  H   UNL     1     -36.825  20.502   3.710  0.00  0.00    +0.151 HD
ENDROOT
BRANCH   2   7
ATOM      7  C   UNL     1     -37.176  18.889   0.225  0.00  0.00    +0.091 C 
BRANCH   7   8
ATOM      8  C   UNL     1     -38.223  19.592  -0.634  0.00  0.00    +0.023 C 
BRANCH   8   9
ATOM      9  C   UNL     1     -38.948  20.712   0.122  0.00  0.00    +0.023 C 
BRANCH   9  10
ATOM     10  C   UNL     1     -38.427  22.098  -0.248  0.00  0.00    +0.094 C 
BRANCH  10  13
ATOM     11  O   UNL     1     -38.166  22.801   2.535  0.00  0.00    -0.265 OA
ATOM     12  O   UNL     1     -39.945  24.376   3.667  0.00  0.00    -0.265 OA
ATOM     13  N   UNL     1     -39.142  23.160   0.441  0.00  0.00    -0.271 N 
ATOM     14  N   UNL     1     -40.426  25.360   1.603  0.00  0.00    -0.271 N 
ATOM     15  C   UNL     1     -40.146  23.896  -0.310  0.00  0.00    +0.115 C 
ATOM     16  C   UNL     1     -40.190  25.330   0.169  0.00  0.00    +0.115 C 
ATOM     17  C   UNL     1     -38.960  23.380   1.800  0.00  0.00    +0.303 C 
ATOM     18  C   UNL     1     -39.836  24.429   2.447  0.00  0.00    +0.303 C 
BRANCH  14  19
ATOM     19  C   UNL     1     -41.193  26.474   2.136  0.00  0.00    +0.094 C 
ATOM     20  C   UNL     1     -42.664  26.132   2.247  0.00  0.00    +0.023 C 
ENDBRANCH  14  19
ENDBRANCH  10  13
ENDBRANCH   9  10
ENDBRANCH   8   9
ENDBRANCH   7   8
ENDBRANCH   2   7
BRANCH   3  21
ATOM     21  C   UNL     1     -35.092  21.672   3.769  0.00  0.00    +0.091 C 
BRANCH  21  22
ATOM     22  C   UNL     1     -35.187  21.683   5.292  0.00  0.00    +0.023 C 
BRANCH  22  23
ATOM     23  C   UNL     1     -35.791  22.986   5.833  0.00  0.00    +0.023 C 
BRANCH  23  24
ATOM     24  C   UNL     1     -34.775  24.122   5.888  0.00  0.00    +0.094 C 
BRANCH  24  27
ATOM     25  O   UNL     1     -32.999  26.251   5.104  0.00  0.00    -0.265 OA
ATOM     26  O   UNL     1     -33.928  28.313   3.758  0.00  0.00    -0.265 OA
ATOM     27  N   UNL     1     -35.060  25.166   4.917  0.00  0.00    -0.271 N 
ATOM     28  N   UNL     1     -35.653  26.999   2.885  0.00  0.00    -0.271 N 
ATOM     29  C   UNL     1     -36.391  25.202   4.336  0.00  0.00    +0.115 C 
ATOM     30  C   UNL     1     -36.312  25.705   2.911  0.00  0.00    +0.115 C 
ATOM     31  C   UNL     1     -34.134  26.166   4.650  0.00  0.00    +0.303 C 
ATOM     32  C   UNL     1     -34.572  27.270   3.714  0.00  0.00    +0.303 C 
BRANCH  28  33
ATOM     33  C   UNL     1     -36.078  27.952   1.874  0.00  0.00    +0.094 C 
ATOM     34  C   UNL     1     -37.168  27.377   0.993  0.00  0.00    +0.023 C 
ENDBRANCH  28  33
ENDBRANCH  24  27
ENDBRANCH  23  24
ENDBRANCH  22  23
ENDBRANCH  21  22
ENDBRANCH   3  21
TORSDOF 12
ENDMDL
MODEL 7
REMARK VINA RESULT:      -5.4      2.762      4.053
REMARK  Name = 196510
REMARK  12 active torsions:
REMARK  status: ('A' for Active; 'I' for Inactive)
REMARK    1  A    between atoms: N_2  and  C_7
REMARK    2  A    between atoms: N_3  and  C_21
REMARK    3  A    between atoms: C_7  and  C_8
REMARK    4  A    between atoms: C_8  and  C_9
REMARK    5  A    between atoms: C_9  and  C_10
REMARK    6  A    between atoms: C_10  and  N_13
REMARK    7  A    between atoms: N_14  and  C_19
REMARK    8  A    between atoms: C_21  and  C_22
REMARK    9  A    between atoms: C_22  and  C_23
REMARK   10  A    between atoms: C_23  and  C_24
REMARK   11  A    between atoms: C_24  and  N_27
REMARK   12  A    between atoms: N_28  and  C_33
REMARK                            x       y       z     vdW  Elec       q    Type
REMARK                         _______ _______ _______ _____ _____    ______ ____
ROOT
ATOM      1  O   UNL     1     -34.179  27.797   1.281  0.00  0.00    -0.253 OA
ATOM      2  N   UNL     1     -36.307  28.517   1.861  0.00  0.00    -0.289 N 
ATOM      3  N   UNL     1     -34.854  27.803   3.504  0.00  0.00    -0.289 N 
ATOM      4  C   UNL     1     -35.036  28.019   2.136  0.00  0.00    +0.301 C 
ATOM      5  H   UNL     1     -36.928  28.664   2.611  0.00  0.00    +0.151 HD
ATOM      6  H   UNL     1     -35.601  28.012   4.111  0.00  0.00    +0.151 HD
ENDROOT
BRANCH   2   7
ATOM      7  C   UNL     1     -36.753  28.827   0.523  0.00  0.00    +0.091 C 
BRANCH   7   8
ATOM      8  C   UNL     1     -36.491  30.282   0.145  0.00  0.00    +0.023 C 
BRANCH   8   9
ATOM      9  C   UNL     1     -36.877  31.258   1.264  0.00  0.00    +0.023 C 
BRANCH   9  10
ATOM     10  C   UNL     1     -35.852  32.374   1.443  0.00  0.00    +0.094 C 
BRANCH  10  13
ATOM     11  O   UNL     1     -35.371  30.981   3.920  0.00  0.00    -0.265 OA
ATOM     12  O   UNL     1     -32.910  30.672   4.800  0.00  0.00    -0.265 OA
ATOM     13  N   UNL     1     -34.569  31.877   1.915  0.00  0.00    -0.271 N 
ATOM     14  N   UNL     1     -32.087  30.791   2.617  0.00  0.00    -0.271 N 
ATOM     15  C   UNL     1     -33.395  32.171   1.112  0.00  0.00    +0.115 C 
ATOM     16  C   UNL     1     -32.406  31.031   1.220  0.00  0.00    +0.115 C 
ATOM     17  C   UNL     1     -34.456  31.252   3.150  0.00  0.00    +0.303 C 
ATOM     18  C   UNL     1     -33.062  30.878   3.601  0.00  0.00    +0.303 C 
BRANCH  14  19
ATOM     19  C   UNL     1     -30.744  30.330   2.932  0.00  0.00    +0.094 C 
ATOM     20  C   UNL     1     -29.820  31.486   3.249  0.00  0.00    +0.023 C 
ENDBRANCH  14  19
ENDBRANCH  10  13
ENDBRANCH   9  10
ENDBRANCH   8   9
ENDBRANCH   7   8
ENDBRANCH   2   7
BRANCH   3  21
ATOM     21  C   UNL     1     -33.637  27.293   4.071  0.00  0.00    +0.091 C 
BRANCH  21  22
ATOM     22  C   UNL     1     -33.761  25.833   4.496  0.00  0.00    +0.023 C 
BRANCH  22  23
ATOM     23  C   UNL     1     -34.437  25.674   5.864  0.00  0.00    +0.023 C 
BRANCH  23  24
ATOM     24  C   UNL     1     -35.948  25.501   5.752  0.00  0.00    +0.094 C 
BRANCH  24  27
ATOM     25  O   UNL     1     -37.466  25.916   3.338  0.00  0.00    -0.265 OA
ATOM     26  O   UNL     1     -38.470  23.856   2.044  0.00  0.00    -0.265 OA
ATOM     27  N   UNL     1     -36.319  24.482   4.783  0.00  0.00    -0.271 N 
ATOM     28  N   UNL     1     -36.792  22.469   2.895  0.00  0.00    -0.271 N 
ATOM     29  C   UNL     1     -35.967  23.105   5.085  0.00  0.00    +0.115 C 
ATOM     30  C   UNL     1     -35.662  22.364   3.802  0.00  0.00    +0.115 C 
ATOM     31  C   UNL     1     -37.089  24.799   3.672  0.00  0.00    +0.303 C 
ATOM     32  C   UNL     1     -37.519  23.648   2.789  0.00  0.00    +0.303 C 
BRANCH  28  33
ATOM     33  C   UNL     1     -37.056  21.346   2.012  0.00  0.00    +0.094 C 
ATOM     34  C   UNL     1     -35.981  20.284   2.128  0.00  0.00    +0.023 C 
ENDBRANCH  28  33
ENDBRANCH  24  27
ENDBRANCH  23  24
ENDBRANCH  22  23
ENDBRANCH  21  22
ENDBRANCH   3  21
TORSDOF 12
ENDMDL
MODEL 8
REMARK VINA RESULT:      -5.4      4.618      8.052
REMARK  Name = 196510
REMARK  12 active torsions:
REMARK  status: ('A' for Active; 'I' for Inactive)
REMARK    1  A    between atoms: N_2  and  C_7
REMARK    2  A    between atoms: N_3  and  C_21
REMARK    3  A    between atoms: C_7  and  C_8
REMARK    4  A    between atoms: C_8  and  C_9
REMARK    5  A    between atoms: C_9  and  C_10
REMARK    6  A    between atoms: C_10  and  N_13
REMARK    7  A    between atoms: N_14  and  C_19
REMARK    8  A    between atoms: C_21  and  C_22
REMARK    9  A    between atoms: C_22  and  C_23
REMARK   10  A    between atoms: C_23  and  C_24
REMARK   11  A    between atoms: C_24  and  N_27
REMARK   12  A    between atoms: N_28  and  C_33
REMARK                            x       y       z     vdW  Elec       q    Type
REMARK                         _______ _______ _______ _____ _____    ______ ____
ROOT
ATOM      1  O   UNL     1     -35.057  20.771   3.745  0.00  0.00    -0.253 OA
ATOM      2  N   UNL     1     -36.356  22.544   4.490  0.00  0.00    -0.289 N 
ATOM      3  N   UNL     1     -36.984  21.382   2.599  0.00  0.00    -0.289 N 
ATOM      4  C   UNL     1     -36.042  21.500   3.624  0.00  0.00    +0.301 C 
ATOM      5  H   UNL     1     -37.166  23.075   4.313  0.00  0.00    +0.151 HD
ATOM      6  H   UNL     1     -37.740  22.013   2.587  0.00  0.00    +0.151 HD
ENDROOT
BRANCH   2   7
ATOM      7  C   UNL     1     -35.543  22.881   5.635  0.00  0.00    +0.091 C 
BRANCH   7   8
ATOM      8  C   UNL     1     -34.839  24.225   5.474  0.00  0.00    +0.023 C 
BRANCH   8   9
ATOM      9  C   UNL     1     -35.818  25.406   5.485  0.00  0.00    +0.023 C 
BRANCH   9  10
ATOM     10  C   UNL     1     -35.729  26.249   4.216  0.00  0.00    +0.094 C 
BRANCH  10  13
ATOM     11  O   UNL     1     -34.636  24.937   1.894  0.00  0.00    -0.265 OA
ATOM     12  O   UNL     1     -36.165  24.477  -0.199  0.00  0.00    -0.265 OA
ATOM     13  N   UNL     1     -36.488  25.675   3.116  0.00  0.00    -0.271 N 
ATOM     14  N   UNL     1     -38.062  24.431   1.164  0.00  0.00    -0.271 N 
ATOM     15  C   UNL     1     -37.931  25.840   3.134  0.00  0.00    +0.115 C 
ATOM     16  C   UNL     1     -38.589  24.631   2.503  0.00  0.00    +0.115 C 
ATOM     17  C   UNL     1     -35.844  25.100   2.028  0.00  0.00    +0.303 C 
ATOM     18  C   UNL     1     -36.719  24.639   0.883  0.00  0.00    +0.303 C 
BRANCH  14  19
ATOM     19  C   UNL     1     -38.960  23.881   0.162  0.00  0.00    +0.094 C 
ATOM     20  C   UNL     1     -39.906  24.935  -0.374  0.00  0.00    +0.023 C 
ENDBRANCH  14  19
ENDBRANCH  10  13
ENDBRANCH   9  10
ENDBRANCH   8   9
ENDBRANCH   7   8
ENDBRANCH   2   7
BRANCH   3  21
ATOM     21  C   UNL     1     -36.909  20.389   1.564  0.00  0.00    +0.091 C 
BRANCH  21  22
ATOM     22  C   UNL     1     -36.404  20.963   0.244  0.00  0.00    +0.023 C 
BRANCH  22  23
ATOM     23  C   UNL     1     -35.661  19.921  -0.603  0.00  0.00    +0.023 C 
BRANCH  23  24
ATOM     24  C   UNL     1     -35.486  18.592   0.125  0.00  0.00    +0.094 C 
BRANCH  24  27
ATOM     25  O   UNL     1     -34.202  16.131  -0.645  0.00  0.00    -0.265 OA
ATOM     26  O   UNL     1     -31.823  15.532   0.311  0.00  0.00    -0.265 OA
ATOM     27  N   UNL     1     -34.087  18.252   0.329  0.00  0.00    -0.271 N 
ATOM     28  N   UNL     1     -31.337  17.800   0.595  0.00  0.00    -0.271 N 
ATOM     29  C   UNL     1     -33.263  19.199   1.059  0.00  0.00    +0.115 C 
ATOM     30  C   UNL     1     -31.847  19.159   0.527  0.00  0.00    +0.115 C 
ATOM     31  C   UNL     1     -33.591  17.013  -0.052  0.00  0.00    +0.303 C 
ATOM     32  C   UNL     1     -32.153  16.713   0.309  0.00  0.00    +0.303 C 
BRANCH  28  33
ATOM     33  C   UNL     1     -29.916  17.625   0.844  0.00  0.00    +0.094 C 
ATOM     34  C   UNL     1     -29.099  18.720   0.190  0.00  0.00    +0.023 C 
ENDBRANCH  28  33
ENDBRANCH  24  27
ENDBRANCH  23  24
ENDBRANCH  22  23
ENDBRANCH  21  22
ENDBRANCH   3  21
TORSDOF 12
ENDMDL
MODEL 9
REMARK VINA RESULT:      -5.4      4.586      7.910
REMARK  Name = 196510
REMARK  12 active torsions:
REMARK  status: ('A' for Active; 'I' for Inactive)
REMARK    1  A    between atoms: N_2  and  C_7
REMARK    2  A    between atoms: N_3  and  C_21
REMARK    3  A    between atoms: C_7  and  C_8
REMARK    4  A    between atoms: C_8  and  C_9
REMARK    5  A    between atoms: C_9  and  C_10
REMARK    6  A    between atoms: C_10  and  N_13
REMARK    7  A    between atoms: N_14  and  C_19
REMARK    8  A    between atoms: C_21  and  C_22
REMARK    9  A    between atoms: C_22  and  C_23
REMARK   10  A    between atoms: C_23  and  C_24
REMARK   11  A    between atoms: C_24  and  N_27
REMARK   12  A    between atoms: N_28  and  C_33
REMARK                            x       y       z     vdW  Elec       q    Type
REMARK                         _______ _______ _______ _____ _____    ______ ____
ROOT
ATOM      1  O   UNL     1     -34.817  20.188   2.730  0.00  0.00    -0.253 OA
ATOM      2  N   UNL     1     -35.983  21.677   4.073  0.00  0.00    -0.289 N 
ATOM      3  N   UNL     1     -36.553  21.456   1.850  0.00  0.00    -0.289 N 
ATOM      4  C   UNL     1     -35.703  21.030   2.873  0.00  0.00    +0.301 C 
ATOM      5  H   UNL     1     -36.712  22.338   4.093  0.00  0.00    +0.151 HD
ATOM      6  H   UNL     1     -37.233  22.136   2.062  0.00  0.00    +0.151 HD
ENDROOT
BRANCH   2   7
ATOM      7  C   UNL     1     -35.249  21.420   5.290  0.00  0.00    +0.091 C 
BRANCH   7   8
ATOM      8  C   UNL     1     -35.261  22.614   6.240  0.00  0.00    +0.023 C 
BRANCH   8   9
ATOM      9  C   UNL     1     -34.806  23.911   5.559  0.00  0.00    +0.023 C 
BRANCH   9  10
ATOM     10  C   UNL     1     -35.946  24.910   5.387  0.00  0.00    +0.094 C 
BRANCH  10  13
ATOM     11  O   UNL     1     -37.893  23.845   3.548  0.00  0.00    -0.265 OA
ATOM     12  O   UNL     1     -37.669  24.325   0.970  0.00  0.00    -0.265 OA
ATOM     13  N   UNL     1     -36.128  25.309   4.001  0.00  0.00    -0.271 N 
ATOM     14  N   UNL     1     -36.512  26.306   1.413  0.00  0.00    -0.271 N 
ATOM     15  C   UNL     1     -35.197  26.280   3.451  0.00  0.00    +0.115 C 
ATOM     16  C   UNL     1     -35.906  27.146   2.433  0.00  0.00    +0.115 C 
ATOM     17  C   UNL     1     -37.079  24.693   3.198  0.00  0.00    +0.303 C 
ATOM     18  C   UNL     1     -37.109  25.097   1.741  0.00  0.00    +0.303 C 
BRANCH  14  19
ATOM     19  C   UNL     1     -36.586  26.836   0.061  0.00  0.00    +0.094 C 
ATOM     20  C   UNL     1     -37.869  27.607  -0.163  0.00  0.00    +0.023 C 
ENDBRANCH  14  19
ENDBRANCH  10  13
ENDBRANCH   9  10
ENDBRANCH   8   9
ENDBRANCH   7   8
ENDBRANCH   2   7
BRANCH   3  21
ATOM     21  C   UNL     1     -36.489  20.954   0.505  0.00  0.00    +0.091 C 
BRANCH  21  22
ATOM     22  C   UNL     1     -37.378  19.732   0.297  0.00  0.00    +0.023 C 
BRANCH  22  23
ATOM     23  C   UNL     1     -36.571  18.466  -0.020  0.00  0.00    +0.023 C 
BRANCH  23  24
ATOM     24  C   UNL     1     -35.117  18.772  -0.366  0.00  0.00    +0.094 C 
BRANCH  24  27
ATOM     25  O   UNL     1     -32.911  17.909   1.274  0.00  0.00    -0.265 OA
ATOM     26  O   UNL     1     -31.306  16.003   0.426  0.00  0.00    -0.265 OA
ATOM     27  N   UNL     1     -34.327  17.565  -0.552  0.00  0.00    -0.271 N 
ATOM     28  N   UNL     1     -33.016  15.115  -0.896  0.00  0.00    -0.271 N 
ATOM     29  C   UNL     1     -34.613  16.746  -1.717  0.00  0.00    +0.115 C 
ATOM     30  C   UNL     1     -34.373  15.289  -1.387  0.00  0.00    +0.115 C 
ATOM     31  C   UNL     1     -33.258  17.274   0.285  0.00  0.00    +0.303 C 
ATOM     32  C   UNL     1     -32.429  16.059  -0.064  0.00  0.00    +0.303 C 
BRANCH  28  33
ATOM     33  C   UNL     1     -32.345  13.863  -1.200  0.00  0.00    +0.094 C 
ATOM     34  C   UNL     1     -32.465  13.510  -2.668  0.00  0.00    +0.023 C 
ENDBRANCH  28  33
ENDBRANCH  24  27
ENDBRANCH  23  24
ENDBRANCH  22  23
ENDBRANCH  21  22
ENDBRANCH   3  21
TORSDOF 12
ENDMDL
