MODEL 1
REMARK VINA RESULT:      -6.4      0.000      0.000
REMARK  Name = 20054884
REMARK  9 active torsions:
REMARK  status: ('A' for Active; 'I' for Inactive)
REMARK    1  A    between atoms: N_1  and  C_33
REMARK    2  A    between atoms: C_6  and  O_21
REMARK    3  A    between atoms: C_8  and  O_23
REMARK    4  A    between atoms: C_9  and  O_25
REMARK    5  A    between atoms: C_10  and  C_35
REMARK    6  A    between atoms: C_11  and  O_27
REMARK    7  A    between atoms: C_14  and  O_29
REMARK    8  A    between atoms: C_18  and  O_31
REMARK    9  A    between atoms: C_35  and  O_36
REMARK                            x       y       z     vdW  Elec       q    Type
REMARK                         _______ _______ _______ _____ _____    ______ ____
ROOT
ATOM      1  N   UNL     1     -37.566  24.783   1.911  0.00  0.00    +0.390 N 
ATOM      2  C   UNL     1     -35.295  23.777   1.697  0.00  0.00    +0.013 C 
ATOM      3  C   UNL     1     -35.219  23.930   3.262  0.00  0.00    +0.030 C 
ATOM      4  C   UNL     1     -36.831  23.544   1.587  0.00  0.00    -0.026 C 
ATOM      5  C   UNL     1     -34.526  22.505   1.155  0.00  0.00    +0.005 C 
ATOM      6  C   UNL     1     -36.972  22.341   2.585  0.00  0.00    +0.119 C 
ATOM      7  C   UNL     1     -34.932  21.114   1.682  0.00  0.00    +0.054 C 
ATOM      8  C   UNL     1     -36.447  21.016   1.948  0.00  0.00    +0.115 C 
ATOM      9  C   UNL     1     -36.140  22.805   3.818  0.00  0.00    +0.140 C 
ATOM     10  C   UNL     1     -35.833  25.317   3.664  0.00  0.00    +0.011 C 
ATOM     11  C   UNL     1     -34.720  25.029   0.947  0.00  0.00    +0.109 C 
ATOM     12  C   UNL     1     -34.603  22.333  -0.389  0.00  0.00    +0.005 C 
ATOM     13  C   UNL     1     -35.052  20.886  -0.644  0.00  0.00    +0.055 C 
ATOM     14  C   UNL     1     -34.463  20.173   0.564  0.00  0.00    +0.120 C 
ATOM     15  C   UNL     1     -37.255  20.560   0.701  0.00  0.00    +0.059 C 
ATOM     16  C   UNL     1     -37.337  25.343   3.248  0.00  0.00    -0.075 C 
ATOM     17  C   UNL     1     -35.058  26.461   2.976  0.00  0.00    +0.003 C 
ATOM     18  C   UNL     1     -36.591  20.788  -0.668  0.00  0.00    +0.120 C 
ATOM     19  C   UNL     1     -35.128  26.403   1.462  0.00  0.00    +0.029 C 
ATOM     20  H   UNL     1     -37.125  25.453   1.280  0.00  0.00    -0.080 HD
ENDROOT
BRANCH   6  21
ATOM     21  O   UNL     1     -38.331  22.148   2.959  0.00  0.00    -0.384 OA
ATOM     22  H   UNL     1     -38.372  21.772   3.852  0.00  0.00    +0.210 HD
ENDBRANCH   6  21
BRANCH   8  23
ATOM     23  O   UNL     1     -36.617  19.963   2.920  0.00  0.00    -0.384 OA
ATOM     24  H   UNL     1     -37.094  19.223   2.514  0.00  0.00    +0.210 HD
ENDBRANCH   8  23
BRANCH   9  25
ATOM     25  O   UNL     1     -35.360  21.806   4.454  0.00  0.00    -0.351 OA
ATOM     26  C   UNL     1     -35.371  21.952   5.868  0.00  0.00    +0.174 C 
ENDBRANCH   9  25
BRANCH  11  27
ATOM     27  O   UNL     1     -33.287  24.981   1.016  0.00  0.00    -0.385 OA
ATOM     28  H   UNL     1     -33.013  24.780   1.924  0.00  0.00    +0.210 HD
ENDBRANCH  11  27
BRANCH  14  29
ATOM     29  O   UNL     1     -34.909  18.842   0.699  0.00  0.00    -0.353 OA
ATOM     30  C   UNL     1     -34.157  17.944  -0.113  0.00  0.00    +0.174 C 
ENDBRANCH  14  29
BRANCH  18  31
ATOM     31  O   UNL     1     -36.970  19.710  -1.532  0.00  0.00    -0.353 OA
ATOM     32  C   UNL     1     -37.999  18.928  -0.949  0.00  0.00    +0.174 C 
ENDBRANCH  18  31
BRANCH   1  33
ATOM     33  C   UNL     1     -38.979  24.753   1.561  0.00  0.00    -0.077 C 
ATOM     34  C   UNL     1     -39.835  25.324   2.679  0.00  0.00    -0.025 C 
ENDBRANCH   1  33
BRANCH  10  35
ATOM     35  C   UNL     1     -35.713  25.557   5.185  0.00  0.00    +0.140 C 
BRANCH  35  36
ATOM     36  O   UNL     1     -34.825  26.635   5.383  0.00  0.00    -0.351 OA
ATOM     37  C   UNL     1     -33.740  26.283   6.238  0.00  0.00    +0.174 C 
ENDBRANCH  35  36
ENDBRANCH  10  35
TORSDOF 9
ENDMDL
MODEL 2
REMARK VINA RESULT:      -6.0      2.396      6.065
REMARK  Name = 20054884
REMARK  9 active torsions:
REMARK  status: ('A' for Active; 'I' for Inactive)
REMARK    1  A    between atoms: N_1  and  C_33
REMARK    2  A    between atoms: C_6  and  O_21
REMARK    3  A    between atoms: C_8  and  O_23
REMARK    4  A    between atoms: C_9  and  O_25
REMARK    5  A    between atoms: C_10  and  C_35
REMARK    6  A    between atoms: C_11  and  O_27
REMARK    7  A    between atoms: C_14  and  O_29
REMARK    8  A    between atoms: C_18  and  O_31
REMARK    9  A    between atoms: C_35  and  O_36
REMARK                            x       y       z     vdW  Elec       q    Type
REMARK                         _______ _______ _______ _____ _____    ______ ____
ROOT
ATOM      1  N   UNL     1     -36.236  23.117   0.385  0.00  0.00    +0.390 N 
ATOM      2  C   UNL     1     -38.201  22.845   1.896  0.00  0.00    +0.013 C 
ATOM      3  C   UNL     1     -37.134  22.624   3.033  0.00  0.00    +0.030 C 
ATOM      4  C   UNL     1     -37.366  23.825   1.019  0.00  0.00    -0.026 C 
ATOM      5  C   UNL     1     -39.512  23.572   2.401  0.00  0.00    +0.005 C 
ATOM      6  C   UNL     1     -37.022  24.902   2.108  0.00  0.00    +0.119 C 
ATOM      7  C   UNL     1     -39.383  24.959   3.060  0.00  0.00    +0.054 C 
ATOM      8  C   UNL     1     -38.259  25.800   2.422  0.00  0.00    +0.115 C 
ATOM      9  C   UNL     1     -36.559  24.042   3.321  0.00  0.00    +0.140 C 
ATOM     10  C   UNL     1     -35.977  21.724   2.472  0.00  0.00    +0.011 C 
ATOM     11  C   UNL     1     -38.639  21.499   1.220  0.00  0.00    +0.109 C 
ATOM     12  C   UNL     1     -40.570  23.808   1.285  0.00  0.00    +0.005 C 
ATOM     13  C   UNL     1     -40.962  25.292   1.366  0.00  0.00    +0.055 C 
ATOM     14  C   UNL     1     -40.775  25.570   2.850  0.00  0.00    +0.120 C 
ATOM     15  C   UNL     1     -38.744  26.641   1.208  0.00  0.00    +0.059 C 
ATOM     16  C   UNL     1     -35.280  22.475   1.295  0.00  0.00    -0.075 C 
ATOM     17  C   UNL     1     -36.540  20.368   1.996  0.00  0.00    +0.003 C 
ATOM     18  C   UNL     1     -40.021  26.154   0.501  0.00  0.00    +0.120 C 
ATOM     19  C   UNL     1     -37.543  20.503   0.866  0.00  0.00    +0.029 C 
ATOM     20  H   UNL     1     -36.713  22.336  -0.068  0.00  0.00    -0.080 HD
ENDROOT
BRANCH   6  21
ATOM     21  O   UNL     1     -35.960  25.742   1.672  0.00  0.00    -0.384 OA
ATOM     22  H   UNL     1     -36.303  26.631   1.490  0.00  0.00    +0.210 HD
ENDBRANCH   6  21
BRANCH   8  23
ATOM     23  O   UNL     1     -37.861  26.763   3.420  0.00  0.00    -0.384 OA
ATOM     24  H   UNL     1     -37.307  27.444   3.009  0.00  0.00    +0.210 HD
ENDBRANCH   8  23
BRANCH   9  25
ATOM     25  O   UNL     1     -36.983  24.489   4.598  0.00  0.00    -0.351 OA
ATOM     26  C   UNL     1     -35.899  25.002   5.361  0.00  0.00    +0.174 C 
ENDBRANCH   9  25
BRANCH  11  27
ATOM     27  O   UNL     1     -39.534  20.814   2.110  0.00  0.00    -0.385 OA
ATOM     28  H   UNL     1     -40.256  21.410   2.364  0.00  0.00    +0.210 HD
ENDBRANCH  11  27
BRANCH  14  29
ATOM     29  O   UNL     1     -40.864  26.939   3.176  0.00  0.00    -0.353 OA
ATOM     30  C   UNL     1     -42.073  27.244   3.867  0.00  0.00    +0.174 C 
ENDBRANCH  14  29
BRANCH  18  31
ATOM     31  O   UNL     1     -40.741  27.303   0.041  0.00  0.00    -0.353 OA
ATOM     32  C   UNL     1     -42.056  26.955  -0.357  0.00  0.00    +0.174 C 
ENDBRANCH  18  31
BRANCH   1  33
ATOM     33  C   UNL     1     -35.572  23.867  -0.672  0.00  0.00    -0.077 C 
ATOM     34  C   UNL     1     -36.582  24.506  -1.610  0.00  0.00    -0.025 C 
ENDBRANCH   1  33
BRANCH  10  35
ATOM     35  C   UNL     1     -34.938  21.407   3.571  0.00  0.00    +0.140 C 
BRANCH  35  36
ATOM     36  O   UNL     1     -35.642  21.009   4.727  0.00  0.00    -0.351 OA
ATOM     37  C   UNL     1     -35.045  21.520   5.916  0.00  0.00    +0.174 C 
ENDBRANCH  35  36
ENDBRANCH  10  35
TORSDOF 9
ENDMDL
MODEL 3
REMARK VINA RESULT:      -6.0      2.563      6.647
REMARK  Name = 20054884
REMARK  9 active torsions:
REMARK  status: ('A' for Active; 'I' for Inactive)
REMARK    1  A    between atoms: N_1  and  C_33
REMARK    2  A    between atoms: C_6  and  O_21
REMARK    3  A    between atoms: C_8  and  O_23
REMARK    4  A    between atoms: C_9  and  O_25
REMARK    5  A    between atoms: C_10  and  C_35
REMARK    6  A    between atoms: C_11  and  O_27
REMARK    7  A    between atoms: C_14  and  O_29
REMARK    8  A    between atoms: C_18  and  O_31
REMARK    9  A    between atoms: C_35  and  O_36
REMARK                            x       y       z     vdW  Elec       q    Type
REMARK                         _______ _______ _______ _____ _____    ______ ____
ROOT
ATOM      1  N   UNL     1     -35.623  23.833   4.183  0.00  0.00    +0.390 N 
ATOM      2  C   UNL     1     -35.027  24.771   1.951  0.00  0.00    +0.013 C 
ATOM      3  C   UNL     1     -36.571  25.032   1.790  0.00  0.00    +0.030 C 
ATOM      4  C   UNL     1     -34.948  24.952   3.496  0.00  0.00    -0.026 C 
ATOM      5  C   UNL     1     -34.130  25.865   1.243  0.00  0.00    +0.005 C 
ATOM      6  C   UNL     1     -35.605  26.373   3.613  0.00  0.00    +0.119 C 
ATOM      7  C   UNL     1     -34.300  27.342   1.654  0.00  0.00    +0.054 C 
ATOM      8  C   UNL     1     -34.617  27.491   3.155  0.00  0.00    +0.115 C 
ATOM      9  C   UNL     1     -36.867  26.254   2.708  0.00  0.00    +0.140 C 
ATOM     10  C   UNL     1     -37.354  23.791   2.348  0.00  0.00    +0.011 C 
ATOM     11  C   UNL     1     -34.596  23.372   1.386  0.00  0.00    +0.109 C 
ATOM     12  C   UNL     1     -32.602  25.628   1.404  0.00  0.00    +0.005 C 
ATOM     13  C   UNL     1     -32.006  26.954   1.901  0.00  0.00    +0.055 C 
ATOM     14  C   UNL     1     -32.951  27.963   1.267  0.00  0.00    +0.120 C 
ATOM     15  C   UNL     1     -33.342  27.597   4.038  0.00  0.00    +0.059 C 
ATOM     16  C   UNL     1     -37.045  23.643   3.871  0.00  0.00    -0.075 C 
ATOM     17  C   UNL     1     -36.944  22.515   1.583  0.00  0.00    +0.003 C 
ATOM     18  C   UNL     1     -32.044  27.027   3.441  0.00  0.00    +0.120 C 
ATOM     19  C   UNL     1     -35.473  22.177   1.733  0.00  0.00    +0.029 C 
ATOM     20  H   UNL     1     -35.164  23.027   3.759  0.00  0.00    -0.080 HD
ENDROOT
BRANCH   6  21
ATOM     21  O   UNL     1     -35.992  26.642   4.956  0.00  0.00    -0.384 OA
ATOM     22  H   UNL     1     -35.743  27.551   5.189  0.00  0.00    +0.210 HD
ENDBRANCH   6  21
BRANCH   8  23
ATOM     23  O   UNL     1     -35.290  28.759   3.300  0.00  0.00    -0.384 OA
ATOM     24  H   UNL     1     -35.789  28.766   4.131  0.00  0.00    +0.210 HD
ENDBRANCH   8  23
BRANCH   9  25
ATOM     25  O   UNL     1     -37.176  27.391   1.920  0.00  0.00    -0.351 OA
ATOM     26  C   UNL     1     -37.827  27.030   0.709  0.00  0.00    +0.174 C 
ENDBRANCH   9  25
BRANCH  11  27
ATOM     27  O   UNL     1     -34.569  23.451  -0.048  0.00  0.00    -0.385 OA
ATOM     28  H   UNL     1     -34.658  24.377  -0.322  0.00  0.00    +0.210 HD
ENDBRANCH  11  27
BRANCH  14  29
ATOM     29  O   UNL     1     -32.761  29.279   1.737  0.00  0.00    -0.353 OA
ATOM     30  C   UNL     1     -31.677  29.929   1.079  0.00  0.00    +0.174 C 
ENDBRANCH  14  29
BRANCH  18  31
ATOM     31  O   UNL     1     -30.953  27.840   3.891  0.00  0.00    -0.353 OA
ATOM     32  C   UNL     1     -31.355  28.694   4.947  0.00  0.00    +0.174 C 
ENDBRANCH  18  31
BRANCH   1  33
ATOM     33  C   UNL     1     -35.358  23.757   5.613  0.00  0.00    -0.077 C 
ATOM     34  C   UNL     1     -35.159  22.319   6.060  0.00  0.00    -0.025 C 
ENDBRANCH   1  33
BRANCH  10  35
ATOM     35  C   UNL     1     -38.876  23.957   2.143  0.00  0.00    +0.140 C 
BRANCH  35  36
ATOM     36  O   UNL     1     -39.441  24.315   3.385  0.00  0.00    -0.351 OA
ATOM     37  C   UNL     1     -40.375  25.385   3.257  0.00  0.00    +0.174 C 
ENDBRANCH  35  36
ENDBRANCH  10  35
TORSDOF 9
ENDMDL
MODEL 4
REMARK VINA RESULT:      -5.8      3.111      5.333
REMARK  Name = 20054884
REMARK  9 active torsions:
REMARK  status: ('A' for Active; 'I' for Inactive)
REMARK    1  A    between atoms: N_1  and  C_33
REMARK    2  A    between atoms: C_6  and  O_21
REMARK    3  A    between atoms: C_8  and  O_23
REMARK    4  A    between atoms: C_9  and  O_25
REMARK    5  A    between atoms: C_10  and  C_35
REMARK    6  A    between atoms: C_11  and  O_27
REMARK    7  A    between atoms: C_14  and  O_29
REMARK    8  A    between atoms: C_18  and  O_31
REMARK    9  A    between atoms: C_35  and  O_36
REMARK                            x       y       z     vdW  Elec       q    Type
REMARK                         _______ _______ _______ _____ _____    ______ ____
ROOT
ATOM      1  N   UNL     1     -34.521  28.078   0.931  0.00  0.00    +0.390 N 
ATOM      2  C   UNL     1     -33.563  25.917   1.722  0.00  0.00    +0.013 C 
ATOM      3  C   UNL     1     -32.460  26.804   2.410  0.00  0.00    +0.030 C 
ATOM      4  C   UNL     1     -34.740  26.930   1.833  0.00  0.00    -0.026 C 
ATOM      5  C   UNL     1     -33.912  24.608   2.540  0.00  0.00    +0.005 C 
ATOM      6  C   UNL     1     -34.687  27.206   3.377  0.00  0.00    +0.119 C 
ATOM      7  C   UNL     1     -34.407  24.752   3.993  0.00  0.00    +0.054 C 
ATOM      8  C   UNL     1     -35.278  26.009   4.185  0.00  0.00    +0.115 C 
ATOM      9  C   UNL     1     -33.169  27.440   3.641  0.00  0.00    +0.140 C 
ATOM     10  C   UNL     1     -32.051  27.955   1.425  0.00  0.00    +0.011 C 
ATOM     11  C   UNL     1     -33.154  25.472   0.274  0.00  0.00    +0.109 C 
ATOM     12  C   UNL     1     -35.010  23.727   1.878  0.00  0.00    +0.005 C 
ATOM     13  C   UNL     1     -36.052  23.438   2.971  0.00  0.00    +0.055 C 
ATOM     14  C   UNL     1     -35.185  23.449   4.220  0.00  0.00    +0.120 C 
ATOM     15  C   UNL     1     -36.785  25.752   3.906  0.00  0.00    +0.059 C 
ATOM     16  C   UNL     1     -33.297  28.856   1.155  0.00  0.00    -0.075 C 
ATOM     17  C   UNL     1     -31.513  27.360   0.105  0.00  0.00    +0.003 C 
ATOM     18  C   UNL     1     -37.123  24.547   3.011  0.00  0.00    +0.120 C 
ATOM     19  C   UNL     1     -32.543  26.529  -0.636  0.00  0.00    +0.029 C 
ATOM     20  H   UNL     1     -34.359  27.609   0.039  0.00  0.00    -0.080 HD
ENDROOT
BRANCH   6  21
ATOM     21  O   UNL     1     -35.425  28.376   3.709  0.00  0.00    -0.384 OA
ATOM     22  H   UNL     1     -36.290  28.349   3.271  0.00  0.00    +0.210 HD
ENDBRANCH   6  21
BRANCH   8  23
ATOM     23  O   UNL     1     -35.199  26.342   5.586  0.00  0.00    -0.384 OA
ATOM     24  H   UNL     1     -34.872  27.250   5.685  0.00  0.00    +0.210 HD
ENDBRANCH   8  23
BRANCH   9  25
ATOM     25  O   UNL     1     -32.654  26.886   4.840  0.00  0.00    -0.351 OA
ATOM     26  C   UNL     1     -32.140  27.890   5.705  0.00  0.00    +0.174 C 
ENDBRANCH   9  25
BRANCH  11  27
ATOM     27  O   UNL     1     -32.183  24.419   0.380  0.00  0.00    -0.385 OA
ATOM     28  H   UNL     1     -31.305  24.766   0.160  0.00  0.00    +0.210 HD
ENDBRANCH  11  27
BRANCH  14  29
ATOM     29  O   UNL     1     -35.931  23.419   5.418  0.00  0.00    -0.353 OA
ATOM     30  C   UNL     1     -35.486  22.389   6.297  0.00  0.00    +0.174 C 
ENDBRANCH  14  29
BRANCH  18  31
ATOM     31  O   UNL     1     -38.355  23.981   3.472  0.00  0.00    -0.353 OA
ATOM     32  C   UNL     1     -39.456  24.802   3.122  0.00  0.00    +0.174 C 
ENDBRANCH  18  31
BRANCH   1  33
ATOM     33  C   UNL     1     -35.688  28.929   0.745  0.00  0.00    -0.077 C 
ATOM     34  C   UNL     1     -36.945  28.102   0.537  0.00  0.00    -0.025 C 
ENDBRANCH   1  33
BRANCH  10  35
ATOM     35  C   UNL     1     -30.911  28.813   2.016  0.00  0.00    +0.140 C 
BRANCH  35  36
ATOM     36  O   UNL     1     -29.777  27.986   2.158  0.00  0.00    -0.351 OA
ATOM     37  C   UNL     1     -29.140  28.165   3.420  0.00  0.00    +0.174 C 
ENDBRANCH  35  36
ENDBRANCH  10  35
TORSDOF 9
ENDMDL
MODEL 5
REMARK VINA RESULT:      -5.7      1.804      3.948
REMARK  Name = 20054884
REMARK  9 active torsions:
REMARK  status: ('A' for Active; 'I' for Inactive)
REMARK    1  A    between atoms: N_1  and  C_33
REMARK    2  A    between atoms: C_6  and  O_21
REMARK    3  A    between atoms: C_8  and  O_23
REMARK    4  A    between atoms: C_9  and  O_25
REMARK    5  A    between atoms: C_10  and  C_35
REMARK    6  A    between atoms: C_11  and  O_27
REMARK    7  A    between atoms: C_14  and  O_29
REMARK    8  A    between atoms: C_18  and  O_31
REMARK    9  A    between atoms: C_35  and  O_36
REMARK                            x       y       z     vdW  Elec       q    Type
REMARK                         _______ _______ _______ _____ _____    ______ ____
ROOT
ATOM      1  N   UNL     1     -35.106  25.095   2.004  0.00  0.00    +0.390 N 
ATOM      2  C   UNL     1     -36.110  22.980   2.862  0.00  0.00    +0.013 C 
ATOM      3  C   UNL     1     -37.494  23.694   2.632  0.00  0.00    +0.030 C 
ATOM      4  C   UNL     1     -35.330  23.667   1.703  0.00  0.00    -0.026 C 
ATOM      5  C   UNL     1     -36.163  21.419   2.614  0.00  0.00    +0.005 C 
ATOM      6  C   UNL     1     -36.296  23.324   0.515  0.00  0.00    +0.119 C 
ATOM      7  C   UNL     1     -36.619  20.903   1.234  0.00  0.00    +0.054 C 
ATOM      8  C   UNL     1     -36.159  21.828   0.091  0.00  0.00    +0.115 C 
ATOM      9  C   UNL     1     -37.701  23.677   1.089  0.00  0.00    +0.140 C 
ATOM     10  C   UNL     1     -37.377  25.188   3.099  0.00  0.00    +0.011 C 
ATOM     11  C   UNL     1     -35.556  23.208   4.312  0.00  0.00    +0.109 C 
ATOM     12  C   UNL     1     -34.799  20.702   2.825  0.00  0.00    +0.005 C 
ATOM     13  C   UNL     1     -34.558  19.847   1.571  0.00  0.00    +0.055 C 
ATOM     14  C   UNL     1     -35.984  19.508   1.163  0.00  0.00    +0.120 C 
ATOM     15  C   UNL     1     -34.752  21.462  -0.459  0.00  0.00    +0.059 C 
ATOM     16  C   UNL     1     -36.308  25.909   2.219  0.00  0.00    -0.075 C 
ATOM     17  C   UNL     1     -36.984  25.249   4.591  0.00  0.00    +0.003 C 
ATOM     18  C   UNL     1     -33.833  20.665   0.484  0.00  0.00    +0.120 C 
ATOM     19  C   UNL     1     -35.635  24.619   4.879  0.00  0.00    +0.029 C 
ATOM     20  H   UNL     1     -34.671  25.043   2.926  0.00  0.00    -0.080 HD
ENDROOT
BRANCH   6  21
ATOM     21  O   UNL     1     -36.015  24.137  -0.619  0.00  0.00    -0.384 OA
ATOM     22  H   UNL     1     -35.096  24.445  -0.577  0.00  0.00    +0.210 HD
ENDBRANCH   6  21
BRANCH   8  23
ATOM     23  O   UNL     1     -37.069  21.597  -1.005  0.00  0.00    -0.384 OA
ATOM     24  H   UNL     1     -37.880  22.109  -0.865  0.00  0.00    +0.210 HD
ENDBRANCH   8  23
BRANCH   9  25
ATOM     25  O   UNL     1     -38.753  22.789   0.749  0.00  0.00    -0.351 OA
ATOM     26  C   UNL     1     -39.699  22.667   1.802  0.00  0.00    +0.174 C 
ENDBRANCH   9  25
BRANCH  11  27
ATOM     27  O   UNL     1     -36.290  22.368   5.216  0.00  0.00    -0.385 OA
ATOM     28  H   UNL     1     -35.672  21.817   5.720  0.00  0.00    +0.210 HD
ENDBRANCH  11  27
BRANCH  14  29
ATOM     29  O   UNL     1     -36.071  18.894  -0.104  0.00  0.00    -0.353 OA
ATOM     30  C   UNL     1     -37.257  18.116  -0.239  0.00  0.00    +0.174 C 
ENDBRANCH  14  29
BRANCH  18  31
ATOM     31  O   UNL     1     -33.044  19.773  -0.313  0.00  0.00    -0.353 OA
ATOM     32  C   UNL     1     -31.819  19.465   0.329  0.00  0.00    +0.174 C 
ENDBRANCH  18  31
BRANCH   1  33
ATOM     33  C   UNL     1     -34.145  25.752   1.129  0.00  0.00    -0.077 C 
ATOM     34  C   UNL     1     -32.934  24.869   0.881  0.00  0.00    -0.025 C 
ENDBRANCH   1  33
BRANCH  10  35
ATOM     35  C   UNL     1     -38.732  25.918   2.971  0.00  0.00    +0.140 C 
BRANCH  35  36
ATOM     36  O   UNL     1     -38.642  26.804   1.876  0.00  0.00    -0.351 OA
ATOM     37  C   UNL     1     -39.753  26.674   0.993  0.00  0.00    +0.174 C 
ENDBRANCH  35  36
ENDBRANCH  10  35
TORSDOF 9
ENDMDL
MODEL 6
REMARK VINA RESULT:      -5.6      1.929      6.433
REMARK  Name = 20054884
REMARK  9 active torsions:
REMARK  status: ('A' for Active; 'I' for Inactive)
REMARK    1  A    between atoms: N_1  and  C_33
REMARK    2  A    between atoms: C_6  and  O_21
REMARK    3  A    between atoms: C_8  and  O_23
REMARK    4  A    between atoms: C_9  and  O_25
REMARK    5  A    between atoms: C_10  and  C_35
REMARK    6  A    between atoms: C_11  and  O_27
REMARK    7  A    between atoms: C_14  and  O_29
REMARK    8  A    between atoms: C_18  and  O_31
REMARK    9  A    between atoms: C_35  and  O_36
REMARK                            x       y       z     vdW  Elec       q    Type
REMARK                         _______ _______ _______ _____ _____    ______ ____
ROOT
ATOM      1  N   UNL     1     -33.866  19.963   0.622  0.00  0.00    +0.390 N 
ATOM      2  C   UNL     1     -34.760  22.257   0.228  0.00  0.00    +0.013 C 
ATOM      3  C   UNL     1     -35.717  21.567  -0.814  0.00  0.00    +0.030 C 
ATOM      4  C   UNL     1     -34.645  21.064   1.223  0.00  0.00    -0.026 C 
ATOM      5  C   UNL     1     -35.420  23.495   0.960  0.00  0.00    +0.005 C 
ATOM      6  C   UNL     1     -36.172  20.809   1.482  0.00  0.00    +0.119 C 
ATOM      7  C   UNL     1     -36.729  23.279   1.746  0.00  0.00    +0.054 C 
ATOM      8  C   UNL     1     -36.772  21.897   2.427  0.00  0.00    +0.115 C 
ATOM      9  C   UNL     1     -36.782  20.830   0.050  0.00  0.00    +0.140 C 
ATOM     10  C   UNL     1     -34.901  20.494  -1.617  0.00  0.00    +0.011 C 
ATOM     11  C   UNL     1     -33.425  22.755  -0.428  0.00  0.00    +0.109 C 
ATOM     12  C   UNL     1     -34.490  24.179   2.002  0.00  0.00    +0.005 C 
ATOM     13  C   UNL     1     -35.305  24.298   3.299  0.00  0.00    +0.055 C 
ATOM     14  C   UNL     1     -36.718  24.437   2.753  0.00  0.00    +0.120 C 
ATOM     15  C   UNL     1     -36.149  21.900   3.851  0.00  0.00    +0.059 C 
ATOM     16  C   UNL     1     -34.395  19.399  -0.626  0.00  0.00    -0.075 C 
ATOM     17  C   UNL     1     -33.713  21.162  -2.342  0.00  0.00    +0.003 C 
ATOM     18  C   UNL     1     -35.149  23.028   4.160  0.00  0.00    +0.120 C 
ATOM     19  C   UNL     1     -32.723  21.809  -1.392  0.00  0.00    +0.029 C 
ATOM     20  H   UNL     1     -33.015  20.448   0.336  0.00  0.00    -0.080 HD
ENDROOT
BRANCH   6  21
ATOM     21  O   UNL     1     -36.378  19.535   2.082  0.00  0.00    -0.384 OA
ATOM     22  H   UNL     1     -35.531  19.066   2.146  0.00  0.00    +0.210 HD
ENDBRANCH   6  21
BRANCH   8  23
ATOM     23  O   UNL     1     -38.168  21.588   2.621  0.00  0.00    -0.384 OA
ATOM     24  H   UNL     1     -38.432  21.835   3.521  0.00  0.00    +0.210 HD
ENDBRANCH   8  23
BRANCH   9  25
ATOM     25  O   UNL     1     -38.042  21.467  -0.081  0.00  0.00    -0.351 OA
ATOM     26  C   UNL     1     -39.024  20.587  -0.610  0.00  0.00    +0.174 C 
ENDBRANCH   9  25
BRANCH  11  27
ATOM     27  O   UNL     1     -33.702  23.954  -1.167  0.00  0.00    -0.385 OA
ATOM     28  H   UNL     1     -32.882  24.458  -1.286  0.00  0.00    +0.210 HD
ENDBRANCH  11  27
BRANCH  14  29
ATOM     29  O   UNL     1     -37.713  24.350   3.750  0.00  0.00    -0.353 OA
ATOM     30  C   UNL     1     -38.945  24.923   3.323  0.00  0.00    +0.174 C 
ENDBRANCH  14  29
BRANCH  18  31
ATOM     31  O   UNL     1     -35.295  23.386   5.540  0.00  0.00    -0.353 OA
ATOM     32  C   UNL     1     -35.428  22.234   6.354  0.00  0.00    +0.174 C 
ENDBRANCH  18  31
BRANCH   1  33
ATOM     33  C   UNL     1     -33.458  18.930   1.564  0.00  0.00    -0.077 C 
ATOM     34  C   UNL     1     -32.149  18.286   1.141  0.00  0.00    -0.025 C 
ENDBRANCH   1  33
BRANCH  10  35
ATOM     35  C   UNL     1     -35.771  19.839  -2.712  0.00  0.00    +0.140 C 
BRANCH  35  36
ATOM     36  O   UNL     1     -35.873  18.463  -2.416  0.00  0.00    -0.351 OA
ATOM     37  C   UNL     1     -37.195  17.971  -2.616  0.00  0.00    +0.174 C 
ENDBRANCH  35  36
ENDBRANCH  10  35
TORSDOF 9
ENDMDL
MODEL 7
REMARK VINA RESULT:      -5.6      2.276      3.951
REMARK  Name = 20054884
REMARK  9 active torsions:
REMARK  status: ('A' for Active; 'I' for Inactive)
REMARK    1  A    between atoms: N_1  and  C_33
REMARK    2  A    between atoms: C_6  and  O_21
REMARK    3  A    between atoms: C_8  and  O_23
REMARK    4  A    between atoms: C_9  and  O_25
REMARK    5  A    between atoms: C_10  and  C_35
REMARK    6  A    between atoms: C_11  and  O_27
REMARK    7  A    between atoms: C_14  and  O_29
REMARK    8  A    between atoms: C_18  and  O_31
REMARK    9  A    between atoms: C_35  and  O_36
REMARK                            x       y       z     vdW  Elec       q    Type
REMARK                         _______ _______ _______ _____ _____    ______ ____
ROOT
ATOM      1  N   UNL     1     -36.414  27.219   0.669  0.00  0.00    +0.390 N 
ATOM      2  C   UNL     1     -34.668  25.747   1.670  0.00  0.00    +0.013 C 
ATOM      3  C   UNL     1     -34.343  26.978   2.595  0.00  0.00    +0.030 C 
ATOM      4  C   UNL     1     -36.192  26.017   1.497  0.00  0.00    -0.026 C 
ATOM      5  C   UNL     1     -34.455  24.352   2.385  0.00  0.00    +0.005 C 
ATOM      6  C   UNL     1     -36.603  26.098   3.010  0.00  0.00    +0.119 C 
ATOM      7  C   UNL     1     -35.238  24.057   3.681  0.00  0.00    +0.054 C 
ATOM      8  C   UNL     1     -36.647  24.679   3.658  0.00  0.00    +0.115 C 
ATOM      9  C   UNL     1     -35.511  27.024   3.623  0.00  0.00    +0.140 C 
ATOM     10  C   UNL     1     -34.390  28.287   1.731  0.00  0.00    +0.011 C 
ATOM     11  C   UNL     1     -33.804  25.741   0.360  0.00  0.00    +0.109 C 
ATOM     12  C   UNL     1     -34.785  23.126   1.486  0.00  0.00    +0.005 C 
ATOM     13  C   UNL     1     -35.729  22.230   2.303  0.00  0.00    +0.055 C 
ATOM     14  C   UNL     1     -35.265  22.523   3.722  0.00  0.00    +0.120 C 
ATOM     15  C   UNL     1     -37.717  23.740   3.033  0.00  0.00    +0.059 C 
ATOM     16  C   UNL     1     -35.837  28.471   1.174  0.00  0.00    -0.075 C 
ATOM     17  C   UNL     1     -33.369  28.200   0.577  0.00  0.00    +0.003 C 
ATOM     18  C   UNL     1     -37.199  22.643   2.087  0.00  0.00    +0.120 C 
ATOM     19  C   UNL     1     -33.650  27.061  -0.384  0.00  0.00    +0.029 C 
ATOM     20  H   UNL     1     -35.857  27.002  -0.158  0.00  0.00    -0.080 HD
ENDROOT
BRANCH   6  21
ATOM     21  O   UNL     1     -37.887  26.695   3.155  0.00  0.00    -0.384 OA
ATOM     22  H   UNL     1     -37.803  27.528   3.646  0.00  0.00    +0.210 HD
ENDBRANCH   6  21
BRANCH   8  23
ATOM     23  O   UNL     1     -37.038  24.839   5.038  0.00  0.00    -0.384 OA
ATOM     24  H   UNL     1     -37.348  23.989   5.387  0.00  0.00    +0.210 HD
ENDBRANCH   8  23
BRANCH   9  25
ATOM     25  O   UNL     1     -35.041  26.663   4.911  0.00  0.00    -0.351 OA
ATOM     26  C   UNL     1     -33.633  26.823   5.021  0.00  0.00    +0.174 C 
ENDBRANCH   9  25
BRANCH  11  27
ATOM     27  O   UNL     1     -32.477  25.308   0.694  0.00  0.00    -0.385 OA
ATOM     28  H   UNL     1     -31.849  26.027   0.521  0.00  0.00    +0.210 HD
ENDBRANCH  11  27
BRANCH  14  29
ATOM     29  O   UNL     1     -36.116  21.983   4.709  0.00  0.00    -0.353 OA
ATOM     30  C   UNL     1     -35.465  21.877   5.972  0.00  0.00    +0.174 C 
ENDBRANCH  14  29
BRANCH  18  31
ATOM     31  O   UNL     1     -38.031  21.488   2.246  0.00  0.00    -0.353 OA
ATOM     32  C   UNL     1     -39.393  21.806   2.019  0.00  0.00    +0.174 C 
ENDBRANCH  18  31
BRANCH   1  33
ATOM     33  C   UNL     1     -37.786  27.390   0.212  0.00  0.00    -0.077 C 
ATOM     34  C   UNL     1     -38.364  26.081  -0.297  0.00  0.00    -0.025 C 
ENDBRANCH   1  33
BRANCH  10  35
ATOM     35  C   UNL     1     -33.999  29.522   2.572  0.00  0.00    +0.140 C 
BRANCH  35  36
ATOM     36  O   UNL     1     -32.629  29.412   2.888  0.00  0.00    -0.351 OA
ATOM     37  C   UNL     1     -32.270  30.233   3.996  0.00  0.00    +0.174 C 
ENDBRANCH  35  36
ENDBRANCH  10  35
TORSDOF 9
ENDMDL
MODEL 8
REMARK VINA RESULT:      -5.6      1.932      2.654
REMARK  Name = 20054884
REMARK  9 active torsions:
REMARK  status: ('A' for Active; 'I' for Inactive)
REMARK    1  A    between atoms: N_1  and  C_33
REMARK    2  A    between atoms: C_6  and  O_21
REMARK    3  A    between atoms: C_8  and  O_23
REMARK    4  A    between atoms: C_9  and  O_25
REMARK    5  A    between atoms: C_10  and  C_35
REMARK    6  A    between atoms: C_11  and  O_27
REMARK    7  A    between atoms: C_14  and  O_29
REMARK    8  A    between atoms: C_18  and  O_31
REMARK    9  A    between atoms: C_35  and  O_36
REMARK                            x       y       z     vdW  Elec       q    Type
REMARK                         _______ _______ _______ _____ _____    ______ ____
ROOT
ATOM      1  N   UNL     1     -38.835  23.316  -0.012  0.00  0.00    +0.390 N 
ATOM      2  C   UNL     1     -36.429  23.436   0.631  0.00  0.00    +0.013 C 
ATOM      3  C   UNL     1     -36.955  24.005   2.001  0.00  0.00    +0.030 C 
ATOM      4  C   UNL     1     -37.641  22.511   0.314  0.00  0.00    -0.026 C 
ATOM      5  C   UNL     1     -35.119  22.561   0.779  0.00  0.00    +0.005 C 
ATOM      6  C   UNL     1     -37.674  21.679   1.644  0.00  0.00    +0.119 C 
ATOM      7  C   UNL     1     -35.153  21.327   1.703  0.00  0.00    +0.054 C 
ATOM      8  C   UNL     1     -36.524  20.623   1.677  0.00  0.00    +0.115 C 
ATOM      9  C   UNL     1     -37.542  22.770   2.747  0.00  0.00    +0.140 C 
ATOM     10  C   UNL     1     -38.124  25.012   1.715  0.00  0.00    +0.011 C 
ATOM     11  C   UNL     1     -36.122  24.571  -0.407  0.00  0.00    +0.109 C 
ATOM     12  C   UNL     1     -34.594  21.981  -0.566  0.00  0.00    +0.005 C 
ATOM     13  C   UNL     1     -34.378  20.477  -0.335  0.00  0.00    +0.055 C 
ATOM     14  C   UNL     1     -34.024  20.449   1.144  0.00  0.00    +0.120 C 
ATOM     15  C   UNL     1     -36.634  19.546   0.563  0.00  0.00    +0.059 C 
ATOM     16  C   UNL     1     -39.296  24.243   1.029  0.00  0.00    -0.075 C 
ATOM     17  C   UNL     1     -37.626  26.162   0.814  0.00  0.00    +0.003 C 
ATOM     18  C   UNL     1     -35.670  19.688  -0.628  0.00  0.00    +0.120 C 
ATOM     19  C   UNL     1     -37.146  25.689  -0.546  0.00  0.00    +0.029 C 
ATOM     20  H   UNL     1     -38.475  23.925  -0.748  0.00  0.00    -0.080 HD
ENDROOT
BRANCH   6  21
ATOM     21  O   UNL     1     -38.913  20.993   1.783  0.00  0.00    -0.384 OA
ATOM     22  H   UNL     1     -39.592  21.611   2.097  0.00  0.00    +0.210 HD
ENDBRANCH   6  21
BRANCH   8  23
ATOM     23  O   UNL     1     -36.628  19.899   2.921  0.00  0.00    -0.384 OA
ATOM     24  H   UNL     1     -36.195  19.037   2.830  0.00  0.00    +0.210 HD
ENDBRANCH   8  23
BRANCH   9  25
ATOM     25  O   UNL     1     -36.724  22.438   3.857  0.00  0.00    -0.351 OA
ATOM     26  C   UNL     1     -36.033  23.574   4.359  0.00  0.00    +0.174 C 
ENDBRANCH   9  25
BRANCH  11  27
ATOM     27  O   UNL     1     -34.884  25.199  -0.040  0.00  0.00    -0.385 OA
ATOM     28  H   UNL     1     -35.056  26.111   0.243  0.00  0.00    +0.210 HD
ENDBRANCH  11  27
BRANCH  14  29
ATOM     29  O   UNL     1     -33.980  19.146   1.683  0.00  0.00    -0.353 OA
ATOM     30  C   UNL     1     -32.767  18.475   1.354  0.00  0.00    +0.174 C 
ENDBRANCH  14  29
BRANCH  18  31
ATOM     31  O   UNL     1     -35.316  18.373  -1.073  0.00  0.00    -0.353 OA
ATOM     32  C   UNL     1     -36.176  17.396  -0.513  0.00  0.00    +0.174 C 
ENDBRANCH  18  31
BRANCH   1  33
ATOM     33  C   UNL     1     -39.931  22.558  -0.599  0.00  0.00    -0.077 C 
ATOM     34  C   UNL     1     -41.272  23.201  -0.291  0.00  0.00    -0.025 C 
ENDBRANCH   1  33
BRANCH  10  35
ATOM     35  C   UNL     1     -38.628  25.664   3.021  0.00  0.00    +0.140 C 
BRANCH  35  36
ATOM     36  O   UNL     1     -39.700  26.519   2.691  0.00  0.00    -0.351 OA
ATOM     37  C   UNL     1     -40.886  26.189   3.410  0.00  0.00    +0.174 C 
ENDBRANCH  35  36
ENDBRANCH  10  35
TORSDOF 9
ENDMDL
MODEL 9
REMARK VINA RESULT:      -5.5      2.065      5.923
REMARK  Name = 20054884
REMARK  9 active torsions:
REMARK  status: ('A' for Active; 'I' for Inactive)
REMARK    1  A    between atoms: N_1  and  C_33
REMARK    2  A    between atoms: C_6  and  O_21
REMARK    3  A    between atoms: C_8  and  O_23
REMARK    4  A    between atoms: C_9  and  O_25
REMARK    5  A    between atoms: C_10  and  C_35
REMARK    6  A    between atoms: C_11  and  O_27
REMARK    7  A    between atoms: C_14  and  O_29
REMARK    8  A    between atoms: C_18  and  O_31
REMARK    9  A    between atoms: C_35  and  O_36
REMARK                            x       y       z     vdW  Elec       q    Type
REMARK                         _______ _______ _______ _____ _____    ______ ____
ROOT
ATOM      1  N   UNL     1     -37.546  25.829   0.151  0.00  0.00    +0.390 N 
ATOM      2  C   UNL     1     -38.234  24.833   2.331  0.00  0.00    +0.013 C 
ATOM      3  C   UNL     1     -38.805  23.649   1.464  0.00  0.00    +0.030 C 
ATOM      4  C   UNL     1     -37.047  25.216   1.398  0.00  0.00    -0.026 C 
ATOM      5  C   UNL     1     -37.676  24.366   3.735  0.00  0.00    +0.005 C 
ATOM      6  C   UNL     1     -36.357  23.811   1.285  0.00  0.00    +0.119 C 
ATOM      7  C   UNL     1     -36.556  23.307   3.773  0.00  0.00    +0.054 C 
ATOM      8  C   UNL     1     -35.578  23.459   2.591  0.00  0.00    +0.115 C 
ATOM      9  C   UNL     1     -37.551  22.852   1.001  0.00  0.00    +0.140 C 
ATOM     10  C   UNL     1     -39.510  24.246   0.194  0.00  0.00    +0.011 C 
ATOM     11  C   UNL     1     -39.306  25.948   2.596  0.00  0.00    +0.109 C 
ATOM     12  C   UNL     1     -37.097  25.524   4.598  0.00  0.00    +0.005 C 
ATOM     13  C   UNL     1     -35.702  25.068   5.055  0.00  0.00    +0.055 C 
ATOM     14  C   UNL     1     -35.890  23.561   5.132  0.00  0.00    +0.120 C 
ATOM     15  C   UNL     1     -34.401  24.427   2.896  0.00  0.00    +0.059 C 
ATOM     16  C   UNL     1     -38.448  25.004  -0.662  0.00  0.00    -0.075 C 
ATOM     17  C   UNL     1     -40.649  25.199   0.617  0.00  0.00    +0.003 C 
ATOM     18  C   UNL     1     -34.632  25.457   4.015  0.00  0.00    +0.120 C 
ATOM     19  C   UNL     1     -40.163  26.391   1.419  0.00  0.00    +0.029 C 
ATOM     20  H   UNL     1     -38.145  26.571   0.514  0.00  0.00    -0.080 HD
ENDROOT
BRANCH   6  21
ATOM     21  O   UNL     1     -35.439  23.783   0.197  0.00  0.00    -0.384 OA
ATOM     22  H   UNL     1     -35.787  23.211  -0.505  0.00  0.00    +0.210 HD
ENDBRANCH   6  21
BRANCH   8  23
ATOM     23  O   UNL     1     -34.969  22.164   2.404  0.00  0.00    -0.384 OA
ATOM     24  H   UNL     1     -34.156  22.110   2.929  0.00  0.00    +0.210 HD
ENDBRANCH   8  23
BRANCH   9  25
ATOM     25  O   UNL     1     -37.506  21.593   1.651  0.00  0.00    -0.351 OA
ATOM     26  C   UNL     1     -37.604  20.520   0.724  0.00  0.00    +0.174 C 
ENDBRANCH   9  25
BRANCH  11  27
ATOM     27  O   UNL     1     -40.214  25.474   3.602  0.00  0.00    -0.385 OA
ATOM     28  H   UNL     1     -40.850  26.173   3.819  0.00  0.00    +0.210 HD
ENDBRANCH  11  27
BRANCH  14  29
ATOM     29  O   UNL     1     -34.683  22.857   5.328  0.00  0.00    -0.353 OA
ATOM     30  C   UNL     1     -34.895  21.609   5.982  0.00  0.00    +0.174 C 
ENDBRANCH  14  29
BRANCH  18  31
ATOM     31  O   UNL     1     -33.386  25.667   4.692  0.00  0.00    -0.353 OA
ATOM     32  C   UNL     1     -33.555  26.505   5.822  0.00  0.00    +0.174 C 
ENDBRANCH  18  31
BRANCH   1  33
ATOM     33  C   UNL     1     -36.520  26.479  -0.652  0.00  0.00    -0.077 C 
ATOM     34  C   UNL     1     -35.612  27.341   0.209  0.00  0.00    -0.025 C 
ENDBRANCH   1  33
BRANCH  10  35
ATOM     35  C   UNL     1     -40.160  23.132  -0.655  0.00  0.00    +0.140 C 
BRANCH  35  36
ATOM     36  O   UNL     1     -40.832  22.257   0.224  0.00  0.00    -0.351 OA
ATOM     37  C   UNL     1     -41.245  21.059  -0.430  0.00  0.00    +0.174 C 
ENDBRANCH  35  36
ENDBRANCH  10  35
TORSDOF 9
ENDMDL
