MODEL 1
REMARK VINA RESULT:      -5.8      0.000      0.000
REMARK  Name = 195427
REMARK  7 active torsions:
REMARK  status: ('A' for Active; 'I' for Inactive)
REMARK    1  A    between atoms: C_2  and  C_8
REMARK    2  A    between atoms: C_3  and  C_17
REMARK    3  A    between atoms: CA_4  and  C_14
REMARK    4  A    between atoms: C_8  and  O_11
REMARK    5  A    between atoms: C_14  and  O_15
REMARK    6  A    between atoms: C_17  and  C_19
REMARK    7  A    between atoms: C_19  and  O_20
REMARK                            x       y       z     vdW  Elec       q    Type
REMARK                         _______ _______ _______ _____ _____    ______ ____
ROOT
ATOM      1  N   UNL     1     -35.953  21.738   3.198  0.00  0.00    +0.392 N 
ATOM      2  C   UNL     1     -36.995  23.792   2.883  0.00  0.00    +0.003 C 
ATOM      3  C   UNL     1     -36.104  23.952   4.121  0.00  0.00    +0.002 C 
ATOM      4  CA  UNL     1     -35.345  22.619   4.201  0.00  0.00    +0.040 C 
ATOM      5  C   UNL     1     -37.263  22.295   2.870  0.00  0.00    -0.079 C 
ATOM      6  H1  UNL     1     -36.057  20.797   3.577  0.00  0.00    -0.084 HD
ATOM      7  H2  UNL     1     -35.366  21.680   2.365  0.00  0.00    -0.084 HD
ENDROOT
BRANCH   2   8
ATOM      8  C   UNL     1     -38.271  24.619   2.935  0.00  0.00    +0.086 C 
ATOM      9  C   UNL     1     -39.469  23.816   2.425  0.00  0.00    +0.029 C 
ATOM     10  C   UNL     1     -38.114  25.909   2.130  0.00  0.00    +0.029 C 
BRANCH   8  11
ATOM     11  O   UNL     1     -38.524  24.992   4.292  0.00  0.00    -0.387 OA
ATOM     12  H   UNL     1     -39.433  24.751   4.529  0.00  0.00    +0.210 HD
ENDBRANCH   8  11
ENDBRANCH   2   8
BRANCH   4  14
ATOM     13  OXT UNL     1     -35.904  22.544   6.551  0.00  0.00    -0.253 OA
ATOM     14  C   UNL     1     -35.509  21.974   5.543  0.00  0.00    +0.293 C 
BRANCH  14  15
ATOM     15  O   UNL     1     -35.159  20.667   5.492  0.00  0.00    -0.482 OA
ATOM     16  H   UNL     1     -34.377  20.408   5.047  0.00  0.00    +0.295 HD
ENDBRANCH  14  15
ENDBRANCH   4  14
BRANCH   3  17
ATOM     17  C   UNL     1     -35.171  25.153   4.024  0.00  0.00    +0.108 C 
BRANCH  17  19
ATOM     18  O   UNL     1     -34.377  26.253   6.050  0.00  0.00    -0.250 OA
ATOM     19  C   UNL     1     -35.266  26.036   5.240  0.00  0.00    +0.314 C 
BRANCH  19  20
ATOM     20  O   UNL     1     -36.509  26.578   5.320  0.00  0.00    -0.480 OA
ATOM     21  H   UNL     1     -36.732  27.319   4.791  0.00  0.00    +0.295 HD
ENDBRANCH  19  20
ENDBRANCH  17  19
ENDBRANCH   3  17
TORSDOF 7
ENDMDL
MODEL 2
REMARK VINA RESULT:      -5.7      1.631      3.648
REMARK  Name = 195427
REMARK  7 active torsions:
REMARK  status: ('A' for Active; 'I' for Inactive)
REMARK    1  A    between atoms: C_2  and  C_8
REMARK    2  A    between atoms: C_3  and  C_17
REMARK    3  A    between atoms: CA_4  and  C_14
REMARK    4  A    between atoms: C_8  and  O_11
REMARK    5  A    between atoms: C_14  and  O_15
REMARK    6  A    between atoms: C_17  and  C_19
REMARK    7  A    between atoms: C_19  and  O_20
REMARK                            x       y       z     vdW  Elec       q    Type
REMARK                         _______ _______ _______ _____ _____    ______ ____
ROOT
ATOM      1  N   UNL     1     -36.271  22.557   5.151  0.00  0.00    +0.392 N 
ATOM      2  C   UNL     1     -35.854  24.792   4.672  0.00  0.00    +0.003 C 
ATOM      3  C   UNL     1     -36.048  24.096   3.319  0.00  0.00    +0.002 C 
ATOM      4  CA  UNL     1     -36.451  22.663   3.699  0.00  0.00    +0.040 C 
ATOM      5  C   UNL     1     -35.391  23.648   5.560  0.00  0.00    -0.079 C 
ATOM      6  H1  UNL     1     -35.848  21.659   5.386  0.00  0.00    -0.084 HD
ATOM      7  H2  UNL     1     -37.169  22.618   5.631  0.00  0.00    -0.084 HD
ENDROOT
BRANCH   2   8
ATOM      8  C   UNL     1     -34.863  25.945   4.631  0.00  0.00    +0.086 C 
ATOM      9  C   UNL     1     -33.846  25.760   3.503  0.00  0.00    +0.029 C 
ATOM     10  C   UNL     1     -34.145  26.091   5.974  0.00  0.00    +0.029 C 
BRANCH   8  11
ATOM     11  O   UNL     1     -35.579  27.161   4.397  0.00  0.00    -0.387 OA
ATOM     12  H   UNL     1     -36.190  27.322   5.133  0.00  0.00    +0.210 HD
ENDBRANCH   8  11
ENDBRANCH   2   8
BRANCH   4  14
ATOM     13  OXT UNL     1     -35.002  21.799   1.968  0.00  0.00    -0.253 OA
ATOM     14  C   UNL     1     -35.558  21.652   3.048  0.00  0.00    +0.293 C 
BRANCH  14  15
ATOM     15  O   UNL     1     -35.447  20.543   3.819  0.00  0.00    -0.482 OA
ATOM     16  H   UNL     1     -34.782  20.495   4.476  0.00  0.00    +0.295 HD
ENDBRANCH  14  15
ENDBRANCH   4  14
BRANCH   3  17
ATOM     17  C   UNL     1     -37.090  24.785   2.446  0.00  0.00    +0.108 C 
BRANCH  17  19
ATOM     18  O   UNL     1     -39.178  24.392   3.641  0.00  0.00    -0.250 OA
ATOM     19  C   UNL     1     -38.320  25.158   3.230  0.00  0.00    +0.314 C 
BRANCH  19  20
ATOM     20  O   UNL     1     -38.351  26.501   3.428  0.00  0.00    -0.480 OA
ATOM     21  H   UNL     1     -38.806  27.054   2.822  0.00  0.00    +0.295 HD
ENDBRANCH  19  20
ENDBRANCH  17  19
ENDBRANCH   3  17
TORSDOF 7
ENDMDL
MODEL 3
REMARK VINA RESULT:      -5.5      2.030      3.846
REMARK  Name = 195427
REMARK  7 active torsions:
REMARK  status: ('A' for Active; 'I' for Inactive)
REMARK    1  A    between atoms: C_2  and  C_8
REMARK    2  A    between atoms: C_3  and  C_17
REMARK    3  A    between atoms: CA_4  and  C_14
REMARK    4  A    between atoms: C_8  and  O_11
REMARK    5  A    between atoms: C_14  and  O_15
REMARK    6  A    between atoms: C_17  and  C_19
REMARK    7  A    between atoms: C_19  and  O_20
REMARK                            x       y       z     vdW  Elec       q    Type
REMARK                         _______ _______ _______ _____ _____    ______ ____
ROOT
ATOM      1  N   UNL     1     -36.378  26.394   5.055  0.00  0.00    +0.392 N 
ATOM      2  C   UNL     1     -36.969  24.410   3.998  0.00  0.00    +0.003 C 
ATOM      3  C   UNL     1     -35.752  24.081   4.872  0.00  0.00    +0.002 C 
ATOM      4  CA  UNL     1     -35.491  25.383   5.642  0.00  0.00    +0.040 C 
ATOM      5  C   UNL     1     -36.791  25.899   3.744  0.00  0.00    -0.079 C 
ATOM      6  H1  UNL     1     -35.881  27.278   4.954  0.00  0.00    -0.084 HD
ATOM      7  H2  UNL     1     -37.189  26.554   5.653  0.00  0.00    -0.084 HD
ENDROOT
BRANCH   2   8
ATOM      8  C   UNL     1     -37.041  23.597   2.714  0.00  0.00    +0.086 C 
ATOM      9  C   UNL     1     -35.656  23.436   2.085  0.00  0.00    +0.029 C 
ATOM     10  C   UNL     1     -38.006  24.241   1.718  0.00  0.00    +0.029 C 
BRANCH   8  11
ATOM     11  O   UNL     1     -37.551  22.296   3.020  0.00  0.00    -0.387 OA
ATOM     12  H   UNL     1     -38.330  22.118   2.470  0.00  0.00    +0.210 HD
ENDBRANCH   8  11
ENDBRANCH   2   8
BRANCH   4  14
ATOM     13  OXT UNL     1     -33.592  26.834   6.005  0.00  0.00    -0.253 OA
ATOM     14  C   UNL     1     -34.078  25.850   5.465  0.00  0.00    +0.293 C 
BRANCH  14  15
ATOM     15  O   UNL     1     -33.405  25.032   4.620  0.00  0.00    -0.482 OA
ATOM     16  H   UNL     1     -32.650  25.347   4.166  0.00  0.00    +0.295 HD
ENDBRANCH  14  15
ENDBRANCH   4  14
BRANCH   3  17
ATOM     17  C   UNL     1     -35.994  22.892   5.795  0.00  0.00    +0.108 C 
BRANCH  17  19
ATOM     18  O   UNL     1     -35.275  21.043   4.380  0.00  0.00    -0.250 OA
ATOM     19  C   UNL     1     -35.162  21.700   5.403  0.00  0.00    +0.314 C 
BRANCH  19  20
ATOM     20  O   UNL     1     -34.240  21.444   6.366  0.00  0.00    -0.480 OA
ATOM     21  H   UNL     1     -34.396  21.718   7.249  0.00  0.00    +0.295 HD
ENDBRANCH  19  20
ENDBRANCH  17  19
ENDBRANCH   3  17
TORSDOF 7
ENDMDL
MODEL 4
REMARK VINA RESULT:      -5.3      2.282      4.513
REMARK  Name = 195427
REMARK  7 active torsions:
REMARK  status: ('A' for Active; 'I' for Inactive)
REMARK    1  A    between atoms: C_2  and  C_8
REMARK    2  A    between atoms: C_3  and  C_17
REMARK    3  A    between atoms: CA_4  and  C_14
REMARK    4  A    between atoms: C_8  and  O_11
REMARK    5  A    between atoms: C_14  and  O_15
REMARK    6  A    between atoms: C_17  and  C_19
REMARK    7  A    between atoms: C_19  and  O_20
REMARK                            x       y       z     vdW  Elec       q    Type
REMARK                         _______ _______ _______ _____ _____    ______ ____
ROOT
ATOM      1  N   UNL     1     -38.159  24.544   1.948  0.00  0.00    +0.392 N 
ATOM      2  C   UNL     1     -36.302  24.319   3.326  0.00  0.00    +0.003 C 
ATOM      3  C   UNL     1     -36.623  22.910   2.812  0.00  0.00    +0.002 C 
ATOM      4  CA  UNL     1     -37.764  23.138   1.810  0.00  0.00    +0.040 C 
ATOM      5  C   UNL     1     -37.653  25.011   3.235  0.00  0.00    -0.079 C 
ATOM      6  H1  UNL     1     -39.175  24.625   1.921  0.00  0.00    -0.084 HD
ATOM      7  H2  UNL     1     -37.778  25.103   1.184  0.00  0.00    -0.084 HD
ENDROOT
BRANCH   2   8
ATOM      8  C   UNL     1     -35.721  24.341   4.732  0.00  0.00    +0.086 C 
ATOM      9  C   UNL     1     -36.157  25.597   5.489  0.00  0.00    +0.029 C 
ATOM     10  C   UNL     1     -34.195  24.249   4.691  0.00  0.00    +0.029 C 
BRANCH   8  11
ATOM     11  O   UNL     1     -36.198  23.197   5.446  0.00  0.00    -0.387 OA
ATOM     12  H   UNL     1     -36.368  22.475   4.821  0.00  0.00    +0.210 HD
ENDBRANCH   8  11
ENDBRANCH   2   8
BRANCH   4  14
ATOM     13  OXT UNL     1     -40.105  22.696   2.214  0.00  0.00    -0.253 OA
ATOM     14  C   UNL     1     -38.955  22.289   2.134  0.00  0.00    +0.293 C 
BRANCH  14  15
ATOM     15  O   UNL     1     -38.586  21.000   2.331  0.00  0.00    -0.482 OA
ATOM     16  H   UNL     1     -39.166  20.409   2.766  0.00  0.00    +0.295 HD
ENDBRANCH  14  15
ENDBRANCH   4  14
BRANCH   3  17
ATOM     17  C   UNL     1     -35.416  22.224   2.181  0.00  0.00    +0.108 C 
BRANCH  17  19
ATOM     18  O   UNL     1     -34.614  19.923   2.154  0.00  0.00    -0.250 OA
ATOM     19  C   UNL     1     -35.236  20.822   2.698  0.00  0.00    +0.314 C 
BRANCH  19  20
ATOM     20  O   UNL     1     -35.874  20.684   3.889  0.00  0.00    -0.480 OA
ATOM     21  H   UNL     1     -35.530  20.106   4.542  0.00  0.00    +0.295 HD
ENDBRANCH  19  20
ENDBRANCH  17  19
ENDBRANCH   3  17
TORSDOF 7
ENDMDL
MODEL 5
REMARK VINA RESULT:      -5.2      1.848      4.117
REMARK  Name = 195427
REMARK  7 active torsions:
REMARK  status: ('A' for Active; 'I' for Inactive)
REMARK    1  A    between atoms: C_2  and  C_8
REMARK    2  A    between atoms: C_3  and  C_17
REMARK    3  A    between atoms: CA_4  and  C_14
REMARK    4  A    between atoms: C_8  and  O_11
REMARK    5  A    between atoms: C_14  and  O_15
REMARK    6  A    between atoms: C_17  and  C_19
REMARK    7  A    between atoms: C_19  and  O_20
REMARK                            x       y       z     vdW  Elec       q    Type
REMARK                         _______ _______ _______ _____ _____    ______ ____
ROOT
ATOM      1  N   UNL     1     -34.886  24.047   1.901  0.00  0.00    +0.392 N 
ATOM      2  C   UNL     1     -34.518  25.117   3.931  0.00  0.00    +0.003 C 
ATOM      3  C   UNL     1     -35.223  23.798   4.268  0.00  0.00    +0.002 C 
ATOM      4  CA  UNL     1     -35.319  23.078   2.915  0.00  0.00    +0.040 C 
ATOM      5  C   UNL     1     -34.978  25.374   2.504  0.00  0.00    -0.079 C 
ATOM      6  H1  UNL     1     -35.494  23.991   1.084  0.00  0.00    -0.084 HD
ATOM      7  H2  UNL     1     -33.932  23.851   1.600  0.00  0.00    -0.084 HD
ENDROOT
BRANCH   2   8
ATOM      8  C   UNL     1     -34.865  26.258   4.876  0.00  0.00    +0.086 C 
ATOM      9  C   UNL     1     -33.737  26.505   5.880  0.00  0.00    +0.029 C 
ATOM     10  C   UNL     1     -36.177  25.973   5.610  0.00  0.00    +0.029 C 
BRANCH   8  11
ATOM     11  O   UNL     1     -35.056  27.450   4.110  0.00  0.00    -0.387 OA
ATOM     12  H   UNL     1     -34.198  27.874   3.953  0.00  0.00    +0.210 HD
ENDBRANCH   8  11
ENDBRANCH   2   8
BRANCH   4  14
ATOM     13  OXT UNL     1     -37.107  22.207   1.543  0.00  0.00    -0.253 OA
ATOM     14  C   UNL     1     -36.730  22.683   2.604  0.00  0.00    +0.293 C 
BRANCH  14  15
ATOM     15  O   UNL     1     -37.541  22.927   3.662  0.00  0.00    -0.482 OA
ATOM     16  H   UNL     1     -37.174  23.044   4.515  0.00  0.00    +0.295 HD
ENDBRANCH  14  15
ENDBRANCH   4  14
BRANCH   3  17
ATOM     17  C   UNL     1     -34.474  22.981   5.315  0.00  0.00    +0.108 C 
BRANCH  17  19
ATOM     18  O   UNL     1     -34.935  20.587   5.287  0.00  0.00    -0.250 OA
ATOM     19  C   UNL     1     -35.209  21.715   5.667  0.00  0.00    +0.314 C 
BRANCH  19  20
ATOM     20  O   UNL     1     -36.249  22.001   6.493  0.00  0.00    -0.480 OA
ATOM     21  H   UNL     1     -37.123  21.769   6.244  0.00  0.00    +0.295 HD
ENDBRANCH  19  20
ENDBRANCH  17  19
ENDBRANCH   3  17
TORSDOF 7
ENDMDL
MODEL 6
REMARK VINA RESULT:      -4.9      1.559      4.298
REMARK  Name = 195427
REMARK  7 active torsions:
REMARK  status: ('A' for Active; 'I' for Inactive)
REMARK    1  A    between atoms: C_2  and  C_8
REMARK    2  A    between atoms: C_3  and  C_17
REMARK    3  A    between atoms: CA_4  and  C_14
REMARK    4  A    between atoms: C_8  and  O_11
REMARK    5  A    between atoms: C_14  and  O_15
REMARK    6  A    between atoms: C_17  and  C_19
REMARK    7  A    between atoms: C_19  and  O_20
REMARK                            x       y       z     vdW  Elec       q    Type
REMARK                         _______ _______ _______ _____ _____    ______ ____
ROOT
ATOM      1  N   UNL     1     -36.850  25.048   1.567  0.00  0.00    +0.392 N 
ATOM      2  C   UNL     1     -35.143  25.019   3.144  0.00  0.00    +0.003 C 
ATOM      3  C   UNL     1     -36.125  23.917   3.559  0.00  0.00    +0.002 C 
ATOM      4  CA  UNL     1     -37.152  23.892   2.418  0.00  0.00    +0.040 C 
ATOM      5  C   UNL     1     -36.036  25.967   2.358  0.00  0.00    -0.079 C 
ATOM      6  H1  UNL     1     -37.715  25.506   1.280  0.00  0.00    -0.084 HD
ATOM      7  H2  UNL     1     -36.352  24.757   0.725  0.00  0.00    -0.084 HD
ENDROOT
BRANCH   2   8
ATOM      8  C   UNL     1     -34.450  25.697   4.316  0.00  0.00    +0.086 C 
ATOM      9  C   UNL     1     -35.412  25.887   5.490  0.00  0.00    +0.029 C 
ATOM     10  C   UNL     1     -33.857  27.042   3.892  0.00  0.00    +0.029 C 
BRANCH   8  11
ATOM     11  O   UNL     1     -33.366  24.873   4.751  0.00  0.00    -0.387 OA
ATOM     12  H   UNL     1     -32.868  25.334   5.445  0.00  0.00    +0.210 HD
ENDBRANCH   8  11
ENDBRANCH   2   8
BRANCH   4  14
ATOM     13  OXT UNL     1     -39.553  23.615   2.388  0.00  0.00    -0.253 OA
ATOM     14  C   UNL     1     -38.549  24.051   2.934  0.00  0.00    +0.293 C 
BRANCH  14  15
ATOM     15  O   UNL     1     -38.554  24.748   4.096  0.00  0.00    -0.482 OA
ATOM     16  H   UNL     1     -39.166  24.531   4.770  0.00  0.00    +0.295 HD
ENDBRANCH  14  15
ENDBRANCH   4  14
BRANCH   3  17
ATOM     17  C   UNL     1     -35.445  22.568   3.765  0.00  0.00    +0.108 C 
BRANCH  17  19
ATOM     18  O   UNL     1     -36.035  22.714   6.125  0.00  0.00    -0.250 OA
ATOM     19  C   UNL     1     -35.580  22.083   5.183  0.00  0.00    +0.314 C 
BRANCH  19  20
ATOM     20  O   UNL     1     -35.117  20.810   5.281  0.00  0.00    -0.480 OA
ATOM     21  H   UNL     1     -35.411  20.257   5.978  0.00  0.00    +0.295 HD
ENDBRANCH  19  20
ENDBRANCH  17  19
ENDBRANCH   3  17
TORSDOF 7
ENDMDL
MODEL 7
REMARK VINA RESULT:      -4.8      2.119      3.381
REMARK  Name = 195427
REMARK  7 active torsions:
REMARK  status: ('A' for Active; 'I' for Inactive)
REMARK    1  A    between atoms: C_2  and  C_8
REMARK    2  A    between atoms: C_3  and  C_17
REMARK    3  A    between atoms: CA_4  and  C_14
REMARK    4  A    between atoms: C_8  and  O_11
REMARK    5  A    between atoms: C_14  and  O_15
REMARK    6  A    between atoms: C_17  and  C_19
REMARK    7  A    between atoms: C_19  and  O_20
REMARK                            x       y       z     vdW  Elec       q    Type
REMARK                         _______ _______ _______ _____ _____    ______ ____
ROOT
ATOM      1  N   UNL     1     -35.227  22.195   0.619  0.00  0.00    +0.392 N 
ATOM      2  C   UNL     1     -36.283  23.595   2.145  0.00  0.00    +0.003 C 
ATOM      3  C   UNL     1     -35.832  22.363   2.939  0.00  0.00    +0.002 C 
ATOM      4  CA  UNL     1     -35.030  21.543   1.918  0.00  0.00    +0.040 C 
ATOM      5  C   UNL     1     -36.413  23.040   0.735  0.00  0.00    -0.079 C 
ATOM      6  H1  UNL     1     -35.368  21.493  -0.107  0.00  0.00    -0.084 HD
ATOM      7  H2  UNL     1     -34.410  22.751   0.367  0.00  0.00    -0.084 HD
ENDROOT
BRANCH   2   8
ATOM      8  C   UNL     1     -37.575  24.216   2.655  0.00  0.00    +0.086 C 
ATOM      9  C   UNL     1     -38.362  24.867   1.517  0.00  0.00    +0.029 C 
ATOM     10  C   UNL     1     -37.287  25.238   3.756  0.00  0.00    +0.029 C 
BRANCH   8  11
ATOM     11  O   UNL     1     -38.384  23.187   3.232  0.00  0.00    -0.387 OA
ATOM     12  H   UNL     1     -37.886  22.740   3.934  0.00  0.00    +0.210 HD
ENDBRANCH   8  11
ENDBRANCH   2   8
BRANCH   4  14
ATOM     13  OXT UNL     1     -35.124  19.292   1.043  0.00  0.00    -0.253 OA
ATOM     14  C   UNL     1     -35.548  20.141   1.814  0.00  0.00    +0.293 C 
BRANCH  14  15
ATOM     15  O   UNL     1     -36.558  19.937   2.694  0.00  0.00    -0.482 OA
ATOM     16  H   UNL     1     -37.033  20.666   3.039  0.00  0.00    +0.295 HD
ENDBRANCH  14  15
ENDBRANCH   4  14
BRANCH   3  17
ATOM     17  C   UNL     1     -35.014  22.725   4.173  0.00  0.00    +0.108 C 
BRANCH  17  19
ATOM     18  O   UNL     1     -36.078  22.438   6.348  0.00  0.00    -0.250 OA
ATOM     19  C   UNL     1     -35.476  21.972   5.392  0.00  0.00    +0.314 C 
BRANCH  19  20
ATOM     20  O   UNL     1     -35.128  20.664   5.285  0.00  0.00    -0.480 OA
ATOM     21  H   UNL     1     -35.530  20.123   4.634  0.00  0.00    +0.295 HD
ENDBRANCH  19  20
ENDBRANCH  17  19
ENDBRANCH   3  17
TORSDOF 7
ENDMDL
MODEL 8
REMARK VINA RESULT:      -4.7      1.302      1.509
REMARK  Name = 195427
REMARK  7 active torsions:
REMARK  status: ('A' for Active; 'I' for Inactive)
REMARK    1  A    between atoms: C_2  and  C_8
REMARK    2  A    between atoms: C_3  and  C_17
REMARK    3  A    between atoms: CA_4  and  C_14
REMARK    4  A    between atoms: C_8  and  O_11
REMARK    5  A    between atoms: C_14  and  O_15
REMARK    6  A    between atoms: C_17  and  C_19
REMARK    7  A    between atoms: C_19  and  O_20
REMARK                            x       y       z     vdW  Elec       q    Type
REMARK                         _______ _______ _______ _____ _____    ______ ____
ROOT
ATOM      1  N   UNL     1     -36.450  22.357   3.317  0.00  0.00    +0.392 N 
ATOM      2  C   UNL     1     -37.341  24.361   2.548  0.00  0.00    +0.003 C 
ATOM      3  C   UNL     1     -36.232  24.740   3.539  0.00  0.00    +0.002 C 
ATOM      4  CA  UNL     1     -35.596  23.392   3.908  0.00  0.00    +0.040 C 
ATOM      5  C   UNL     1     -37.741  22.975   3.027  0.00  0.00    -0.079 C 
ATOM      6  H1  UNL     1     -36.571  21.586   3.974  0.00  0.00    -0.084 HD
ATOM      7  H2  UNL     1     -36.029  21.984   2.466  0.00  0.00    -0.084 HD
ENDROOT
BRANCH   2   8
ATOM      8  C   UNL     1     -38.506  25.339   2.529  0.00  0.00    +0.086 C 
ATOM      9  C   UNL     1     -39.845  24.599   2.478  0.00  0.00    +0.029 C 
ATOM     10  C   UNL     1     -38.386  26.304   1.349  0.00  0.00    +0.029 C 
BRANCH   8  11
ATOM     11  O   UNL     1     -38.471  26.123   3.725  0.00  0.00    -0.387 OA
ATOM     12  H   UNL     1     -38.149  27.014   3.517  0.00  0.00    +0.210 HD
ENDBRANCH   8  11
ENDBRANCH   2   8
BRANCH   4  14
ATOM     13  OXT UNL     1     -36.015  22.198   5.967  0.00  0.00    -0.253 OA
ATOM     14  C   UNL     1     -35.577  23.184   5.391  0.00  0.00    +0.293 C 
BRANCH  14  15
ATOM     15  O   UNL     1     -35.006  24.242   6.017  0.00  0.00    -0.482 OA
ATOM     16  H   UNL     1     -35.545  24.905   6.400  0.00  0.00    +0.295 HD
ENDBRANCH  14  15
ENDBRANCH   4  14
BRANCH   3  17
ATOM     17  C   UNL     1     -35.226  25.722   2.950  0.00  0.00    +0.108 C 
BRANCH  17  19
ATOM     18  O   UNL     1     -34.342  27.902   3.587  0.00  0.00    -0.250 OA
ATOM     19  C   UNL     1     -35.073  26.949   3.809  0.00  0.00    +0.314 C 
BRANCH  19  20
ATOM     20  O   UNL     1     -35.881  26.854   4.896  0.00  0.00    -0.480 OA
ATOM     21  H   UNL     1     -35.641  26.297   5.611  0.00  0.00    +0.295 HD
ENDBRANCH  19  20
ENDBRANCH  17  19
ENDBRANCH   3  17
TORSDOF 7
ENDMDL
MODEL 9
REMARK VINA RESULT:      -4.7      2.818      4.825
REMARK  Name = 195427
REMARK  7 active torsions:
REMARK  status: ('A' for Active; 'I' for Inactive)
REMARK    1  A    between atoms: C_2  and  C_8
REMARK    2  A    between atoms: C_3  and  C_17
REMARK    3  A    between atoms: CA_4  and  C_14
REMARK    4  A    between atoms: C_8  and  O_11
REMARK    5  A    between atoms: C_14  and  O_15
REMARK    6  A    between atoms: C_17  and  C_19
REMARK    7  A    between atoms: C_19  and  O_20
REMARK                            x       y       z     vdW  Elec       q    Type
REMARK                         _______ _______ _______ _____ _____    ______ ____
ROOT
ATOM      1  N   UNL     1     -38.138  23.693   0.800  0.00  0.00    +0.392 N 
ATOM      2  C   UNL     1     -36.493  23.730   2.441  0.00  0.00    +0.003 C 
ATOM      3  C   UNL     1     -36.606  22.270   1.985  0.00  0.00    +0.002 C 
ATOM      4  CA  UNL     1     -37.602  22.328   0.817  0.00  0.00    +0.040 C 
ATOM      5  C   UNL     1     -37.872  24.279   2.110  0.00  0.00    -0.079 C 
ATOM      6  H1  UNL     1     -39.142  23.672   0.623  0.00  0.00    -0.084 HD
ATOM      7  H2  UNL     1     -37.699  24.244   0.061  0.00  0.00    -0.084 HD
ENDROOT
BRANCH   2   8
ATOM      8  C   UNL     1     -36.132  23.888   3.910  0.00  0.00    +0.086 C 
ATOM      9  C   UNL     1     -36.846  25.092   4.528  0.00  0.00    +0.029 C 
ATOM     10  C   UNL     1     -34.618  24.020   4.086  0.00  0.00    +0.029 C 
BRANCH   8  11
ATOM     11  O   UNL     1     -36.540  22.712   4.614  0.00  0.00    -0.387 OA
ATOM     12  H   UNL     1     -36.616  22.913   5.561  0.00  0.00    +0.210 HD
ENDBRANCH   8  11
ENDBRANCH   2   8
BRANCH   4  14
ATOM     13  OXT UNL     1     -39.616  21.143   0.201  0.00  0.00    -0.253 OA
ATOM     14  C   UNL     1     -38.747  21.385   1.027  0.00  0.00    +0.293 C 
BRANCH  14  15
ATOM     15  O   UNL     1     -38.692  20.832   2.263  0.00  0.00    -0.482 OA
ATOM     16  H   UNL     1     -38.585  21.379   3.015  0.00  0.00    +0.295 HD
ENDBRANCH  14  15
ENDBRANCH   4  14
BRANCH   3  17
ATOM     17  C   UNL     1     -35.263  21.673   1.582  0.00  0.00    +0.108 C 
BRANCH  17  19
ATOM     18  O   UNL     1     -34.162  19.522   1.904  0.00  0.00    -0.250 OA
ATOM     19  C   UNL     1     -35.054  20.309   2.182  0.00  0.00    +0.314 C 
BRANCH  19  20
ATOM     20  O   UNL     1     -36.017  20.059   3.107  0.00  0.00    -0.480 OA
ATOM     21  H   UNL     1     -36.853  20.478   3.037  0.00  0.00    +0.295 HD
ENDBRANCH  19  20
ENDBRANCH  17  19
ENDBRANCH   3  17
TORSDOF 7
ENDMDL
