MODEL 1
REMARK VINA RESULT:      -7.7      0.000      0.000
REMARK  Name = 191443
REMARK  8 active torsions:
REMARK  status: ('A' for Active; 'I' for Inactive)
REMARK    1  A    between atoms: C_5  and  O_19
REMARK    2  A    between atoms: C_8  and  O_21
REMARK    3  A    between atoms: C_17  and  N_25
REMARK    4  A    between atoms: C_18  and  O_23
REMARK    5  A    between atoms: N_25  and  N_26
REMARK    6  A    between atoms: N_26  and  C_27
REMARK    7  A    between atoms: C_32  and  C_34
REMARK    8  A    between atoms: C_34  and  O_35
REMARK                            x       y       z     vdW  Elec       q    Type
REMARK                         _______ _______ _______ _____ _____    ______ ____
ROOT
ATOM      1  C   UNL     1     -29.074  28.916   6.379  0.00  0.00    +0.027 C 
ATOM      2  C   UNL     1     -28.983  30.005   5.276  0.00  0.00    +0.005 C 
ATOM      3  C   UNL     1     -30.118  31.070   5.328  0.00  0.00    +0.005 C 
ATOM      4  C   UNL     1     -31.528  30.449   5.473  0.00  0.00    +0.022 C 
ATOM      5  C   UNL     1     -28.466  29.660   7.589  0.00  0.00    +0.137 C 
ATOM      6  C   UNL     1     -30.510  28.426   6.637  0.00  0.00    +0.003 C 
ATOM      7  C   UNL     1     -27.600  30.652   5.526  0.00  0.00    +0.032 C 
ATOM      8  C   UNL     1     -27.282  30.438   7.010  0.00  0.00    +0.137 C 
ATOM      9  C   UNL     1     -31.545  29.542   6.715  0.00  0.00    +0.004 C 
ATOM     10  C   UNL     1     -30.124  32.008   4.110  0.00  0.00    +0.005 C 
ATOM     11  C   UNL     1     -28.232  27.676   5.990  0.00  0.00    +0.002 C 
ATOM     12  C   UNL     1     -32.038  29.832   4.173  0.00  0.00    -0.025 C 
ATOM     13  C   UNL     1     -30.416  31.266   2.809  0.00  0.00    +0.026 C 
ATOM     14  C   UNL     1     -31.526  30.253   2.926  0.00  0.00    -0.023 C 
ATOM     15  C   UNL     1     -33.092  28.900   4.176  0.00  0.00    +0.017 C 
ATOM     16  C   UNL     1     -32.027  29.693   1.737  0.00  0.00    +0.033 C 
ATOM     17  C   UNL     1     -33.586  28.359   2.987  0.00  0.00    +0.122 C 
ATOM     18  C   UNL     1     -33.050  28.750   1.768  0.00  0.00    +0.150 C 
ENDROOT
BRANCH   5  19
ATOM     19  O   UNL     1     -28.061  28.794   8.637  0.00  0.00    -0.382 OA
ATOM     20  H   UNL     1     -27.647  28.001   8.260  0.00  0.00    +0.210 HD
ENDBRANCH   5  19
BRANCH   8  21
ATOM     21  O   UNL     1     -27.155  31.694   7.665  0.00  0.00    -0.382 OA
ATOM     22  H   UNL     1     -27.124  32.402   7.002  0.00  0.00    +0.210 HD
ENDBRANCH   8  21
BRANCH  18  23
ATOM     23  O   UNL     1     -33.516  28.231   0.598  0.00  0.00    -0.504 OA
ATOM     24  H   UNL     1     -32.915  27.905  -0.042  0.00  0.00    +0.292 HD
ENDBRANCH  18  23
BRANCH  17  25
ATOM     25  N   UNL     1     -34.628  27.425   3.040  0.00  0.00    -0.125 NA
BRANCH  25  26
ATOM     26  N   UNL     1     -34.860  27.024   4.186  0.00  0.00    -0.128 NA
BRANCH  26  27
ATOM     27  C   UNL     1     -34.965  25.669   4.264  0.00  0.00    +0.089 C 
ATOM     28  C   UNL     1     -34.983  25.006   5.512  0.00  0.00    +0.018 C 
ATOM     29  C   UNL     1     -35.063  24.872   3.101  0.00  0.00    +0.018 C 
ATOM     30  C   UNL     1     -35.092  23.616   5.592  0.00  0.00    +0.008 C 
ATOM     31  C   UNL     1     -35.171  23.483   3.181  0.00  0.00    +0.008 C 
ATOM     32  C   UNL     1     -35.187  22.856   4.428  0.00  0.00    +0.076 C 
BRANCH  32  34
ATOM     33  O   UNL     1     -35.300  20.623   3.565  0.00  0.00    -0.245 OA
ATOM     34  C   UNL     1     -35.301  21.409   4.511  0.00  0.00    +0.338 C 
BRANCH  34  35
ATOM     35  O   UNL     1     -35.416  20.979   5.799  0.00  0.00    -0.477 OA
ATOM     36  H   UNL     1     -36.261  20.918   6.198  0.00  0.00    +0.295 HD
ENDBRANCH  34  35
ENDBRANCH  32  34
ENDBRANCH  26  27
ENDBRANCH  25  26
ENDBRANCH  17  25
TORSDOF 8
ENDMDL
MODEL 2
REMARK VINA RESULT:      -7.2      2.736      5.743
REMARK  Name = 191443
REMARK  8 active torsions:
REMARK  status: ('A' for Active; 'I' for Inactive)
REMARK    1  A    between atoms: C_5  and  O_19
REMARK    2  A    between atoms: C_8  and  O_21
REMARK    3  A    between atoms: C_17  and  N_25
REMARK    4  A    between atoms: C_18  and  O_23
REMARK    5  A    between atoms: N_25  and  N_26
REMARK    6  A    between atoms: N_26  and  C_27
REMARK    7  A    between atoms: C_32  and  C_34
REMARK    8  A    between atoms: C_34  and  O_35
REMARK                            x       y       z     vdW  Elec       q    Type
REMARK                         _______ _______ _______ _____ _____    ______ ____
ROOT
ATOM      1  C   UNL     1     -34.977  31.476   1.492  0.00  0.00    +0.027 C 
ATOM      2  C   UNL     1     -33.818  32.292   2.126  0.00  0.00    +0.005 C 
ATOM      3  C   UNL     1     -32.396  31.745   1.805  0.00  0.00    +0.005 C 
ATOM      4  C   UNL     1     -32.270  30.217   2.018  0.00  0.00    +0.022 C 
ATOM      5  C   UNL     1     -34.978  32.023   0.048  0.00  0.00    +0.137 C 
ATOM      6  C   UNL     1     -34.761  29.954   1.557  0.00  0.00    +0.003 C 
ATOM      7  C   UNL     1     -34.016  33.710   1.539  0.00  0.00    +0.032 C 
ATOM      8  C   UNL     1     -34.746  33.529   0.203  0.00  0.00    +0.137 C 
ATOM      9  C   UNL     1     -33.351  29.509   1.184  0.00  0.00    +0.004 C 
ATOM     10  C   UNL     1     -31.284  32.440   2.608  0.00  0.00    +0.005 C 
ATOM     11  C   UNL     1     -36.313  31.777   2.217  0.00  0.00    +0.002 C 
ATOM     12  C   UNL     1     -32.188  29.831   3.493  0.00  0.00    -0.025 C 
ATOM     13  C   UNL     1     -31.411  32.191   4.107  0.00  0.00    +0.026 C 
ATOM     14  C   UNL     1     -31.750  30.765   4.459  0.00  0.00    -0.023 C 
ATOM     15  C   UNL     1     -32.455  28.517   3.917  0.00  0.00    +0.017 C 
ATOM     16  C   UNL     1     -31.654  30.384   5.809  0.00  0.00    +0.033 C 
ATOM     17  C   UNL     1     -32.347  28.149   5.260  0.00  0.00    +0.122 C 
ATOM     18  C   UNL     1     -31.953  29.084   6.207  0.00  0.00    +0.150 C 
ENDROOT
BRANCH   5  19
ATOM     19  O   UNL     1     -36.177  31.748  -0.658  0.00  0.00    -0.382 OA
ATOM     20  H   UNL     1     -36.832  32.437  -0.464  0.00  0.00    +0.210 HD
ENDBRANCH   5  19
BRANCH   8  21
ATOM     21  O   UNL     1     -33.938  34.013  -0.862  0.00  0.00    -0.382 OA
ATOM     22  H   UNL     1     -33.428  34.779  -0.557  0.00  0.00    +0.210 HD
ENDBRANCH   8  21
BRANCH  18  23
ATOM     23  O   UNL     1     -31.845  28.747   7.522  0.00  0.00    -0.504 OA
ATOM     24  H   UNL     1     -32.245  29.282   8.178  0.00  0.00    +0.292 HD
ENDBRANCH  18  23
BRANCH  17  25
ATOM     25  N   UNL     1     -32.635  26.832   5.636  0.00  0.00    -0.125 NA
BRANCH  25  26
ATOM     26  N   UNL     1     -33.762  26.706   6.128  0.00  0.00    -0.128 NA
BRANCH  26  27
ATOM     27  C   UNL     1     -34.546  25.828   5.443  0.00  0.00    +0.089 C 
ATOM     28  C   UNL     1     -33.983  24.748   4.726  0.00  0.00    +0.018 C 
ATOM     29  C   UNL     1     -35.953  25.962   5.423  0.00  0.00    +0.018 C 
ATOM     30  C   UNL     1     -34.787  23.848   4.025  0.00  0.00    +0.008 C 
ATOM     31  C   UNL     1     -36.756  25.062   4.721  0.00  0.00    +0.008 C 
ATOM     32  C   UNL     1     -36.172  24.005   4.023  0.00  0.00    +0.076 C 
BRANCH  32  34
ATOM     33  O   UNL     1     -38.004  23.345   2.625  0.00  0.00    -0.245 OA
ATOM     34  C   UNL     1     -37.010  23.067   3.293  0.00  0.00    +0.338 C 
BRANCH  34  35
ATOM     35  O   UNL     1     -36.571  21.783   3.422  0.00  0.00    -0.477 OA
ATOM     36  H   UNL     1     -37.126  21.135   3.810  0.00  0.00    +0.295 HD
ENDBRANCH  34  35
ENDBRANCH  32  34
ENDBRANCH  26  27
ENDBRANCH  25  26
ENDBRANCH  17  25
TORSDOF 8
ENDMDL
MODEL 3
REMARK VINA RESULT:      -7.1      5.020      8.136
REMARK  Name = 191443
REMARK  8 active torsions:
REMARK  status: ('A' for Active; 'I' for Inactive)
REMARK    1  A    between atoms: C_5  and  O_19
REMARK    2  A    between atoms: C_8  and  O_21
REMARK    3  A    between atoms: C_17  and  N_25
REMARK    4  A    between atoms: C_18  and  O_23
REMARK    5  A    between atoms: N_25  and  N_26
REMARK    6  A    between atoms: N_26  and  C_27
REMARK    7  A    between atoms: C_32  and  C_34
REMARK    8  A    between atoms: C_34  and  O_35
REMARK                            x       y       z     vdW  Elec       q    Type
REMARK                         _______ _______ _______ _____ _____    ______ ____
ROOT
ATOM      1  C   UNL     1     -34.307  26.501   1.908  0.00  0.00    +0.027 C 
ATOM      2  C   UNL     1     -35.842  26.435   2.131  0.00  0.00    +0.005 C 
ATOM      3  C   UNL     1     -36.267  25.900   3.530  0.00  0.00    +0.005 C 
ATOM      4  C   UNL     1     -35.524  24.604   3.937  0.00  0.00    +0.022 C 
ATOM      5  C   UNL     1     -33.952  27.816   2.636  0.00  0.00    +0.137 C 
ATOM      6  C   UNL     1     -33.555  25.282   2.471  0.00  0.00    +0.003 C 
ATOM      7  C   UNL     1     -36.295  27.901   1.934  0.00  0.00    +0.032 C 
ATOM      8  C   UNL     1     -35.085  28.779   2.271  0.00  0.00    +0.137 C 
ATOM      9  C   UNL     1     -34.008  24.858   3.863  0.00  0.00    +0.004 C 
ATOM     10  C   UNL     1     -37.779  25.649   3.650  0.00  0.00    +0.005 C 
ATOM     11  C   UNL     1     -33.980  26.579   0.396  0.00  0.00    +0.002 C 
ATOM     12  C   UNL     1     -36.044  23.371   3.204  0.00  0.00    -0.025 C 
ATOM     13  C   UNL     1     -38.260  24.550   2.708  0.00  0.00    +0.026 C 
ATOM     14  C   UNL     1     -37.347  23.351   2.660  0.00  0.00    -0.023 C 
ATOM     15  C   UNL     1     -35.278  22.193   3.131  0.00  0.00    +0.017 C 
ATOM     16  C   UNL     1     -37.819  22.196   2.012  0.00  0.00    +0.033 C 
ATOM     17  C   UNL     1     -35.763  21.049   2.492  0.00  0.00    +0.122 C 
ATOM     18  C   UNL     1     -37.030  21.052   1.927  0.00  0.00    +0.150 C 
ENDROOT
BRANCH   5  19
ATOM     19  O   UNL     1     -32.684  28.337   2.271  0.00  0.00    -0.382 OA
ATOM     20  H   UNL     1     -32.551  28.227   1.316  0.00  0.00    +0.210 HD
ENDBRANCH   5  19
BRANCH   8  21
ATOM     21  O   UNL     1     -35.388  29.620   3.377  0.00  0.00    -0.382 OA
ATOM     22  H   UNL     1     -35.152  29.167   4.202  0.00  0.00    +0.210 HD
ENDBRANCH   8  21
BRANCH  18  23
ATOM     23  O   UNL     1     -37.520  19.949   1.296  0.00  0.00    -0.504 OA
ATOM     24  H   UNL     1     -37.653  19.959   0.369  0.00  0.00    +0.292 HD
ENDBRANCH  18  23
BRANCH  17  25
ATOM     25  N   UNL     1     -34.960  19.904   2.434  0.00  0.00    -0.125 NA
BRANCH  25  26
ATOM     26  N   UNL     1     -34.781  19.498   1.280  0.00  0.00    -0.128 NA
BRANCH  26  27
ATOM     27  C   UNL     1     -33.466  19.319   0.977  0.00  0.00    +0.089 C 
ATOM     28  C   UNL     1     -32.774  18.151   1.372  0.00  0.00    +0.018 C 
ATOM     29  C   UNL     1     -32.741  20.294   0.255  0.00  0.00    +0.018 C 
ATOM     30  C   UNL     1     -31.426  17.969   1.060  0.00  0.00    +0.008 C 
ATOM     31  C   UNL     1     -31.392  20.111  -0.056  0.00  0.00    +0.008 C 
ATOM     32  C   UNL     1     -30.736  18.947   0.347  0.00  0.00    +0.076 C 
BRANCH  32  34
ATOM     33  O   UNL     1     -28.751  19.181  -0.976  0.00  0.00    -0.245 OA
ATOM     34  C   UNL     1     -29.332  18.756   0.022  0.00  0.00    +0.338 C 
BRANCH  34  35
ATOM     35  O   UNL     1     -28.682  18.026   0.971  0.00  0.00    -0.477 OA
ATOM     36  H   UNL     1     -27.847  18.307   1.289  0.00  0.00    +0.295 HD
ENDBRANCH  34  35
ENDBRANCH  32  34
ENDBRANCH  26  27
ENDBRANCH  25  26
ENDBRANCH  17  25
TORSDOF 8
ENDMDL
MODEL 4
REMARK VINA RESULT:      -7.1      4.004      9.870
REMARK  Name = 191443
REMARK  8 active torsions:
REMARK  status: ('A' for Active; 'I' for Inactive)
REMARK    1  A    between atoms: C_5  and  O_19
REMARK    2  A    between atoms: C_8  and  O_21
REMARK    3  A    between atoms: C_17  and  N_25
REMARK    4  A    between atoms: C_18  and  O_23
REMARK    5  A    between atoms: N_25  and  N_26
REMARK    6  A    between atoms: N_26  and  C_27
REMARK    7  A    between atoms: C_32  and  C_34
REMARK    8  A    between atoms: C_34  and  O_35
REMARK                            x       y       z     vdW  Elec       q    Type
REMARK                         _______ _______ _______ _____ _____    ______ ____
ROOT
ATOM      1  C   UNL     1     -35.395  22.495   1.258  0.00  0.00    +0.027 C 
ATOM      2  C   UNL     1     -35.175  22.361   2.789  0.00  0.00    +0.005 C 
ATOM      3  C   UNL     1     -36.283  23.026   3.659  0.00  0.00    +0.005 C 
ATOM      4  C   UNL     1     -36.631  24.465   3.204  0.00  0.00    +0.022 C 
ATOM      5  C   UNL     1     -36.421  21.370   1.000  0.00  0.00    +0.137 C 
ATOM      6  C   UNL     1     -35.907  23.883   0.833  0.00  0.00    +0.003 C 
ATOM      7  C   UNL     1     -35.136  20.831   3.011  0.00  0.00    +0.032 C 
ATOM      8  C   UNL     1     -35.946  20.204   1.871  0.00  0.00    +0.137 C 
ATOM      9  C   UNL     1     -37.020  24.434   1.716  0.00  0.00    +0.004 C 
ATOM     10  C   UNL     1     -35.938  23.062   5.156  0.00  0.00    +0.005 C 
ATOM     11  C   UNL     1     -34.070  22.246   0.495  0.00  0.00    +0.002 C 
ATOM     12  C   UNL     1     -35.569  25.485   3.609  0.00  0.00    -0.025 C 
ATOM     13  C   UNL     1     -34.715  23.924   5.449  0.00  0.00    +0.026 C 
ATOM     14  C   UNL     1     -34.697  25.227   4.689  0.00  0.00    -0.023 C 
ATOM     15  C   UNL     1     -35.491  26.741   2.980  0.00  0.00    +0.017 C 
ATOM     16  C   UNL     1     -33.744  26.189   5.066  0.00  0.00    +0.033 C 
ATOM     17  C   UNL     1     -34.546  27.691   3.370  0.00  0.00    +0.122 C 
ATOM     18  C   UNL     1     -33.667  27.414   4.408  0.00  0.00    +0.150 C 
ENDROOT
BRANCH   5  19
ATOM     19  O   UNL     1     -36.518  20.998  -0.366  0.00  0.00    -0.382 OA
ATOM     20  H   UNL     1     -37.094  21.625  -0.832  0.00  0.00    +0.210 HD
ENDBRANCH   5  19
BRANCH   8  21
ATOM     21  O   UNL     1     -37.063  19.500   2.398  0.00  0.00    -0.382 OA
ATOM     22  H   UNL     1     -36.834  19.136   3.268  0.00  0.00    +0.210 HD
ENDBRANCH   8  21
BRANCH  18  23
ATOM     23  O   UNL     1     -32.735  28.326   4.801  0.00  0.00    -0.504 OA
ATOM     24  H   UNL     1     -32.133  28.679   4.176  0.00  0.00    +0.292 HD
ENDBRANCH  18  23
BRANCH  17  25
ATOM     25  N   UNL     1     -34.498  28.923   2.707  0.00  0.00    -0.125 NA
BRANCH  25  26
ATOM     26  N   UNL     1     -34.812  29.874   3.432  0.00  0.00    -0.128 NA
BRANCH  26  27
ATOM     27  C   UNL     1     -34.964  31.040   2.743  0.00  0.00    +0.089 C 
ATOM     28  C   UNL     1     -36.216  31.414   2.204  0.00  0.00    +0.018 C 
ATOM     29  C   UNL     1     -33.877  31.920   2.543  0.00  0.00    +0.018 C 
ATOM     30  C   UNL     1     -36.372  32.609   1.500  0.00  0.00    +0.008 C 
ATOM     31  C   UNL     1     -34.034  33.114   1.838  0.00  0.00    +0.008 C 
ATOM     32  C   UNL     1     -35.281  33.458   1.317  0.00  0.00    +0.076 C 
BRANCH  32  34
ATOM     33  O   UNL     1     -36.146  34.877  -0.411  0.00  0.00    -0.245 OA
ATOM     34  C   UNL     1     -35.444  34.703   0.584  0.00  0.00    +0.338 C 
BRANCH  34  35
ATOM     35  O   UNL     1     -34.708  35.715   1.125  0.00  0.00    -0.477 OA
ATOM     36  H   UNL     1     -33.786  35.761   0.965  0.00  0.00    +0.295 HD
ENDBRANCH  34  35
ENDBRANCH  32  34
ENDBRANCH  26  27
ENDBRANCH  25  26
ENDBRANCH  17  25
TORSDOF 8
ENDMDL
MODEL 5
REMARK VINA RESULT:      -7.0      5.222      7.837
REMARK  Name = 191443
REMARK  8 active torsions:
REMARK  status: ('A' for Active; 'I' for Inactive)
REMARK    1  A    between atoms: C_5  and  O_19
REMARK    2  A    between atoms: C_8  and  O_21
REMARK    3  A    between atoms: C_17  and  N_25
REMARK    4  A    between atoms: C_18  and  O_23
REMARK    5  A    between atoms: N_25  and  N_26
REMARK    6  A    between atoms: N_26  and  C_27
REMARK    7  A    between atoms: C_32  and  C_34
REMARK    8  A    between atoms: C_34  and  O_35
REMARK                            x       y       z     vdW  Elec       q    Type
REMARK                         _______ _______ _______ _____ _____    ______ ____
ROOT
ATOM      1  C   UNL     1     -38.199  34.280   1.240  0.00  0.00    +0.027 C 
ATOM      2  C   UNL     1     -36.731  34.747   1.054  0.00  0.00    +0.005 C 
ATOM      3  C   UNL     1     -35.924  33.931   0.001  0.00  0.00    +0.005 C 
ATOM      4  C   UNL     1     -36.072  32.400   0.175  0.00  0.00    +0.022 C 
ATOM      5  C   UNL     1     -38.887  34.956   0.034  0.00  0.00    +0.137 C 
ATOM      6  C   UNL     1     -38.359  32.749   1.241  0.00  0.00    +0.003 C 
ATOM      7  C   UNL     1     -36.878  36.225   0.620  0.00  0.00    +0.032 C 
ATOM      8  C   UNL     1     -38.255  36.348  -0.043  0.00  0.00    +0.137 C 
ATOM      9  C   UNL     1     -37.567  32.040   0.148  0.00  0.00    +0.004 C 
ATOM     10  C   UNL     1     -34.426  34.275  -0.014  0.00  0.00    +0.005 C 
ATOM     11  C   UNL     1     -38.768  34.797   2.585  0.00  0.00    +0.002 C 
ATOM     12  C   UNL     1     -35.263  31.859   1.352  0.00  0.00    -0.025 C 
ATOM     13  C   UNL     1     -33.735  33.911   1.296  0.00  0.00    +0.026 C 
ATOM     14  C   UNL     1     -34.146  32.568   1.845  0.00  0.00    -0.023 C 
ATOM     15  C   UNL     1     -35.550  30.602   1.913  0.00  0.00    +0.017 C 
ATOM     16  C   UNL     1     -33.396  32.042   2.911  0.00  0.00    +0.033 C 
ATOM     17  C   UNL     1     -34.792  30.086   2.966  0.00  0.00    +0.122 C 
ATOM     18  C   UNL     1     -33.719  30.808   3.470  0.00  0.00    +0.150 C 
ENDROOT
BRANCH   5  19
ATOM     19  O   UNL     1     -40.299  35.029   0.158  0.00  0.00    -0.382 OA
ATOM     20  H   UNL     1     -40.678  34.140   0.065  0.00  0.00    +0.210 HD
ENDBRANCH   5  19
BRANCH   8  21
ATOM     21  O   UNL     1     -38.106  36.744  -1.401  0.00  0.00    -0.382 OA
ATOM     22  H   UNL     1     -38.961  37.046  -1.745  0.00  0.00    +0.210 HD
ENDBRANCH   8  21
BRANCH  18  23
ATOM     23  O   UNL     1     -32.969  30.324   4.499  0.00  0.00    -0.504 OA
ATOM     24  H   UNL     1     -33.314  30.323   5.370  0.00  0.00    +0.292 HD
ENDBRANCH  18  23
BRANCH  17  25
ATOM     25  N   UNL     1     -35.122  28.836   3.502  0.00  0.00    -0.125 NA
BRANCH  25  26
ATOM     26  N   UNL     1     -34.198  28.018   3.425  0.00  0.00    -0.128 NA
BRANCH  26  27
ATOM     27  C   UNL     1     -34.537  26.787   3.900  0.00  0.00    +0.089 C 
ATOM     28  C   UNL     1     -35.335  25.902   3.140  0.00  0.00    +0.018 C 
ATOM     29  C   UNL     1     -34.102  26.346   5.170  0.00  0.00    +0.018 C 
ATOM     30  C   UNL     1     -35.681  24.641   3.627  0.00  0.00    +0.008 C 
ATOM     31  C   UNL     1     -34.448  25.085   5.657  0.00  0.00    +0.008 C 
ATOM     32  C   UNL     1     -35.238  24.232   4.884  0.00  0.00    +0.076 C 
BRANCH  32  34
ATOM     33  O   UNL     1     -35.256  22.435   6.469  0.00  0.00    -0.245 OA
ATOM     34  C   UNL     1     -35.598  22.918   5.391  0.00  0.00    +0.338 C 
BRANCH  34  35
ATOM     35  O   UNL     1     -36.388  22.233   4.518  0.00  0.00    -0.477 OA
ATOM     36  H   UNL     1     -36.493  21.306   4.609  0.00  0.00    +0.295 HD
ENDBRANCH  34  35
ENDBRANCH  32  34
ENDBRANCH  26  27
ENDBRANCH  25  26
ENDBRANCH  17  25
TORSDOF 8
ENDMDL
MODEL 6
REMARK VINA RESULT:      -7.0      7.056     10.020
REMARK  Name = 191443
REMARK  8 active torsions:
REMARK  status: ('A' for Active; 'I' for Inactive)
REMARK    1  A    between atoms: C_5  and  O_19
REMARK    2  A    between atoms: C_8  and  O_21
REMARK    3  A    between atoms: C_17  and  N_25
REMARK    4  A    between atoms: C_18  and  O_23
REMARK    5  A    between atoms: N_25  and  N_26
REMARK    6  A    between atoms: N_26  and  C_27
REMARK    7  A    between atoms: C_32  and  C_34
REMARK    8  A    between atoms: C_34  and  O_35
REMARK                            x       y       z     vdW  Elec       q    Type
REMARK                         _______ _______ _______ _____ _____    ______ ____
ROOT
ATOM      1  C   UNL     1     -39.354  24.470   0.909  0.00  0.00    +0.027 C 
ATOM      2  C   UNL     1     -38.811  25.201   2.166  0.00  0.00    +0.005 C 
ATOM      3  C   UNL     1     -37.325  25.653   2.057  0.00  0.00    +0.005 C 
ATOM      4  C   UNL     1     -36.387  24.538   1.532  0.00  0.00    +0.022 C 
ATOM      5  C   UNL     1     -39.675  25.662  -0.019  0.00  0.00    +0.137 C 
ATOM      6  C   UNL     1     -38.345  23.484   0.291  0.00  0.00    +0.003 C 
ATOM      7  C   UNL     1     -39.755  26.418   2.307  0.00  0.00    +0.032 C 
ATOM      8  C   UNL     1     -40.294  26.716   0.903  0.00  0.00    +0.137 C 
ATOM      9  C   UNL     1     -36.926  24.030   0.184  0.00  0.00    +0.004 C 
ATOM     10  C   UNL     1     -36.753  26.183   3.381  0.00  0.00    +0.005 C 
ATOM     11  C   UNL     1     -40.627  23.659   1.258  0.00  0.00    +0.002 C 
ATOM     12  C   UNL     1     -36.084  23.477   2.587  0.00  0.00    -0.025 C 
ATOM     13  C   UNL     1     -36.700  25.108   4.461  0.00  0.00    +0.026 C 
ATOM     14  C   UNL     1     -36.206  23.774   3.963  0.00  0.00    -0.023 C 
ATOM     15  C   UNL     1     -35.589  22.212   2.224  0.00  0.00    +0.017 C 
ATOM     16  C   UNL     1     -35.896  22.793   4.921  0.00  0.00    +0.033 C 
ATOM     17  C   UNL     1     -35.277  21.249   3.186  0.00  0.00    +0.122 C 
ATOM     18  C   UNL     1     -35.436  21.537   4.535  0.00  0.00    +0.150 C 
ENDROOT
BRANCH   5  19
ATOM     19  O   UNL     1     -40.545  25.326  -1.088  0.00  0.00    -0.382 OA
ATOM     20  H   UNL     1     -41.241  24.732  -0.764  0.00  0.00    +0.210 HD
ENDBRANCH   5  19
BRANCH   8  21
ATOM     21  O   UNL     1     -39.895  28.018   0.496  0.00  0.00    -0.382 OA
ATOM     22  H   UNL     1     -40.622  28.443   0.014  0.00  0.00    +0.210 HD
ENDBRANCH   8  21
BRANCH  18  23
ATOM     23  O   UNL     1     -35.140  20.611   5.489  0.00  0.00    -0.504 OA
ATOM     24  H   UNL     1     -34.386  20.724   6.034  0.00  0.00    +0.292 HD
ENDBRANCH  18  23
BRANCH  17  25
ATOM     25  N   UNL     1     -34.799  19.999   2.777  0.00  0.00    -0.125 NA
BRANCH  25  26
ATOM     26  N   UNL     1     -34.721  19.891   1.548  0.00  0.00    -0.128 NA
BRANCH  26  27
ATOM     27  C   UNL     1     -33.468  19.576   1.119  0.00  0.00    +0.089 C 
ATOM     28  C   UNL     1     -32.722  20.468   0.315  0.00  0.00    +0.018 C 
ATOM     29  C   UNL     1     -32.863  18.346   1.463  0.00  0.00    +0.018 C 
ATOM     30  C   UNL     1     -31.437  20.145  -0.123  0.00  0.00    +0.008 C 
ATOM     31  C   UNL     1     -31.578  18.023   1.024  0.00  0.00    +0.008 C 
ATOM     32  C   UNL     1     -30.865  18.924   0.232  0.00  0.00    +0.076 C 
BRANCH  32  34
ATOM     33  O   UNL     1     -28.493  18.652   0.441  0.00  0.00    -0.245 OA
ATOM     34  C   UNL     1     -29.526  18.588  -0.224  0.00  0.00    +0.338 C 
BRANCH  34  35
ATOM     35  O   UNL     1     -29.517  18.174  -1.522  0.00  0.00    -0.477 OA
ATOM     36  H   UNL     1     -29.365  18.792  -2.210  0.00  0.00    +0.295 HD
ENDBRANCH  34  35
ENDBRANCH  32  34
ENDBRANCH  26  27
ENDBRANCH  25  26
ENDBRANCH  17  25
TORSDOF 8
ENDMDL
MODEL 7
REMARK VINA RESULT:      -6.6      5.336     10.852
REMARK  Name = 191443
REMARK  8 active torsions:
REMARK  status: ('A' for Active; 'I' for Inactive)
REMARK    1  A    between atoms: C_5  and  O_19
REMARK    2  A    between atoms: C_8  and  O_21
REMARK    3  A    between atoms: C_17  and  N_25
REMARK    4  A    between atoms: C_18  and  O_23
REMARK    5  A    between atoms: N_25  and  N_26
REMARK    6  A    between atoms: N_26  and  C_27
REMARK    7  A    between atoms: C_32  and  C_34
REMARK    8  A    between atoms: C_34  and  O_35
REMARK                            x       y       z     vdW  Elec       q    Type
REMARK                         _______ _______ _______ _____ _____    ______ ____
ROOT
ATOM      1  C   UNL     1     -32.367  17.759  -0.296  0.00  0.00    +0.027 C 
ATOM      2  C   UNL     1     -33.460  18.143  -1.330  0.00  0.00    +0.005 C 
ATOM      3  C   UNL     1     -33.478  19.652  -1.717  0.00  0.00    +0.005 C 
ATOM      4  C   UNL     1     -33.424  20.595  -0.490  0.00  0.00    +0.022 C 
ATOM      5  C   UNL     1     -31.120  17.651  -1.200  0.00  0.00    +0.137 C 
ATOM      6  C   UNL     1     -32.202  18.793   0.832  0.00  0.00    +0.003 C 
ATOM      7  C   UNL     1     -33.121  17.258  -2.553  0.00  0.00    +0.032 C 
ATOM      8  C   UNL     1     -31.620  16.958  -2.471  0.00  0.00    +0.137 C 
ATOM      9  C   UNL     1     -32.187  20.240   0.354  0.00  0.00    +0.004 C 
ATOM     10  C   UNL     1     -34.692  20.043  -2.575  0.00  0.00    +0.005 C 
ATOM     11  C   UNL     1     -32.705  16.405   0.374  0.00  0.00    +0.002 C 
ATOM     12  C   UNL     1     -34.755  20.673   0.253  0.00  0.00    -0.025 C 
ATOM     13  C   UNL     1     -36.009  19.870  -1.827  0.00  0.00    +0.026 C 
ATOM     14  C   UNL     1     -35.966  20.359  -0.402  0.00  0.00    -0.023 C 
ATOM     15  C   UNL     1     -34.821  21.146   1.577  0.00  0.00    +0.017 C 
ATOM     16  C   UNL     1     -37.185  20.464   0.290  0.00  0.00    +0.033 C 
ATOM     17  C   UNL     1     -36.040  21.253   2.250  0.00  0.00    +0.122 C 
ATOM     18  C   UNL     1     -37.222  20.906   1.610  0.00  0.00    +0.150 C 
ENDROOT
BRANCH   5  19
ATOM     19  O   UNL     1     -30.050  16.937  -0.602  0.00  0.00    -0.382 OA
ATOM     20  H   UNL     1     -29.806  16.186  -1.166  0.00  0.00    +0.210 HD
ENDBRANCH   5  19
BRANCH   8  21
ATOM     21  O   UNL     1     -30.956  17.487  -3.611  0.00  0.00    -0.382 OA
ATOM     22  H   UNL     1     -31.477  17.295  -4.406  0.00  0.00    +0.210 HD
ENDBRANCH   8  21
BRANCH  18  23
ATOM     23  O   UNL     1     -38.420  21.000   2.250  0.00  0.00    -0.504 OA
ATOM     24  H   UNL     1     -39.104  20.390   2.056  0.00  0.00    +0.292 HD
ENDBRANCH  18  23
BRANCH  17  25
ATOM     25  N   UNL     1     -36.056  21.717   3.570  0.00  0.00    -0.125 NA
BRANCH  25  26
ATOM     26  N   UNL     1     -36.654  22.792   3.697  0.00  0.00    -0.128 NA
BRANCH  26  27
ATOM     27  C   UNL     1     -35.845  23.805   4.115  0.00  0.00    +0.089 C 
ATOM     28  C   UNL     1     -35.562  24.000   5.486  0.00  0.00    +0.018 C 
ATOM     29  C   UNL     1     -35.255  24.700   3.193  0.00  0.00    +0.018 C 
ATOM     30  C   UNL     1     -34.733  25.038   5.913  0.00  0.00    +0.008 C 
ATOM     31  C   UNL     1     -34.426  25.737   3.621  0.00  0.00    +0.008 C 
ATOM     32  C   UNL     1     -34.165  25.906   4.981  0.00  0.00    +0.076 C 
BRANCH  32  34
ATOM     33  O   UNL     1     -32.618  27.000   6.449  0.00  0.00    -0.245 OA
ATOM     34  C   UNL     1     -33.300  26.986   5.426  0.00  0.00    +0.338 C 
BRANCH  34  35
ATOM     35  O   UNL     1     -33.313  28.039   4.561  0.00  0.00    -0.477 OA
ATOM     36  H   UNL     1     -34.126  28.362   4.227  0.00  0.00    +0.295 HD
ENDBRANCH  34  35
ENDBRANCH  32  34
ENDBRANCH  26  27
ENDBRANCH  25  26
ENDBRANCH  17  25
TORSDOF 8
ENDMDL
MODEL 8
REMARK VINA RESULT:      -6.5      5.066      8.368
REMARK  Name = 191443
REMARK  8 active torsions:
REMARK  status: ('A' for Active; 'I' for Inactive)
REMARK    1  A    between atoms: C_5  and  O_19
REMARK    2  A    between atoms: C_8  and  O_21
REMARK    3  A    between atoms: C_17  and  N_25
REMARK    4  A    between atoms: C_18  and  O_23
REMARK    5  A    between atoms: N_25  and  N_26
REMARK    6  A    between atoms: N_26  and  C_27
REMARK    7  A    between atoms: C_32  and  C_34
REMARK    8  A    between atoms: C_34  and  O_35
REMARK                            x       y       z     vdW  Elec       q    Type
REMARK                         _______ _______ _______ _____ _____    ______ ____
ROOT
ATOM      1  C   UNL     1     -34.347  26.468   1.902  0.00  0.00    +0.027 C 
ATOM      2  C   UNL     1     -35.891  26.424   2.054  0.00  0.00    +0.005 C 
ATOM      3  C   UNL     1     -36.388  25.872   3.423  0.00  0.00    +0.005 C 
ATOM      4  C   UNL     1     -35.685  24.558   3.840  0.00  0.00    +0.022 C 
ATOM      5  C   UNL     1     -34.005  27.765   2.668  0.00  0.00    +0.137 C 
ATOM      6  C   UNL     1     -33.640  25.228   2.478  0.00  0.00    +0.003 C 
ATOM      7  C   UNL     1     -36.312  27.901   1.862  0.00  0.00    +0.032 C 
ATOM      8  C   UNL     1     -35.105  28.753   2.269  0.00  0.00    +0.137 C 
ATOM      9  C   UNL     1     -34.164  24.788   3.840  0.00  0.00    +0.004 C 
ATOM     10  C   UNL     1     -37.908  25.644   3.469  0.00  0.00    +0.005 C 
ATOM     11  C   UNL     1     -33.950  26.567   0.409  0.00  0.00    +0.002 C 
ATOM     12  C   UNL     1     -36.189  23.346   3.062  0.00  0.00    -0.025 C 
ATOM     13  C   UNL     1     -38.362  24.569   2.487  0.00  0.00    +0.026 C 
ATOM     14  C   UNL     1     -37.466  23.357   2.459  0.00  0.00    -0.023 C 
ATOM     15  C   UNL     1     -35.439  22.157   3.004  0.00  0.00    +0.017 C 
ATOM     16  C   UNL     1     -37.926  22.221   1.770  0.00  0.00    +0.033 C 
ATOM     17  C   UNL     1     -35.912  21.032   2.324  0.00  0.00    +0.122 C 
ATOM     18  C   UNL     1     -37.152  21.065   1.701  0.00  0.00    +0.150 C 
ENDROOT
BRANCH   5  19
ATOM     19  O   UNL     1     -32.714  28.272   2.371  0.00  0.00    -0.382 OA
ATOM     20  H   UNL     1     -32.597  28.316   1.408  0.00  0.00    +0.210 HD
ENDBRANCH   5  19
BRANCH   8  21
ATOM     21  O   UNL     1     -35.446  29.579   3.375  0.00  0.00    -0.382 OA
ATOM     22  H   UNL     1     -36.154  30.190   3.116  0.00  0.00    +0.210 HD
ENDBRANCH   8  21
BRANCH  18  23
ATOM     23  O   UNL     1     -37.629  19.981   1.030  0.00  0.00    -0.504 OA
ATOM     24  H   UNL     1     -38.150  20.098   0.260  0.00  0.00    +0.292 HD
ENDBRANCH  18  23
BRANCH  17  25
ATOM     25  N   UNL     1     -35.125  19.875   2.282  0.00  0.00    -0.125 NA
BRANCH  25  26
ATOM     26  N   UNL     1     -34.114  20.004   1.582  0.00  0.00    -0.128 NA
BRANCH  26  27
ATOM     27  C   UNL     1     -33.662  18.822   1.079  0.00  0.00    +0.089 C 
ATOM     28  C   UNL     1     -34.521  17.950   0.372  0.00  0.00    +0.018 C 
ATOM     29  C   UNL     1     -32.317  18.421   1.243  0.00  0.00    +0.018 C 
ATOM     30  C   UNL     1     -34.057  16.739  -0.145  0.00  0.00    +0.008 C 
ATOM     31  C   UNL     1     -31.854  17.210   0.727  0.00  0.00    +0.008 C 
ATOM     32  C   UNL     1     -32.725  16.369   0.032  0.00  0.00    +0.076 C 
BRANCH  32  34
ATOM     33  O   UNL     1     -32.497  14.644  -1.616  0.00  0.00    -0.245 OA
ATOM     34  C   UNL     1     -32.241  15.108  -0.506  0.00  0.00    +0.338 C 
BRANCH  34  35
ATOM     35  O   UNL     1     -31.437  14.452   0.376  0.00  0.00    -0.477 OA
ATOM     36  H   UNL     1     -30.507  14.563   0.335  0.00  0.00    +0.295 HD
ENDBRANCH  34  35
ENDBRANCH  32  34
ENDBRANCH  26  27
ENDBRANCH  25  26
ENDBRANCH  17  25
TORSDOF 8
ENDMDL
MODEL 9
REMARK VINA RESULT:      -6.4      4.828      7.821
REMARK  Name = 191443
REMARK  8 active torsions:
REMARK  status: ('A' for Active; 'I' for Inactive)
REMARK    1  A    between atoms: C_5  and  O_19
REMARK    2  A    between atoms: C_8  and  O_21
REMARK    3  A    between atoms: C_17  and  N_25
REMARK    4  A    between atoms: C_18  and  O_23
REMARK    5  A    between atoms: N_25  and  N_26
REMARK    6  A    between atoms: N_26  and  C_27
REMARK    7  A    between atoms: C_32  and  C_34
REMARK    8  A    between atoms: C_34  and  O_35
REMARK                            x       y       z     vdW  Elec       q    Type
REMARK                         _______ _______ _______ _____ _____    ______ ____
ROOT
ATOM      1  C   UNL     1     -36.056  27.143   0.943  0.00  0.00    +0.027 C 
ATOM      2  C   UNL     1     -35.429  27.459   2.328  0.00  0.00    +0.005 C 
ATOM      3  C   UNL     1     -33.996  26.884   2.532  0.00  0.00    +0.005 C 
ATOM      4  C   UNL     1     -33.873  25.397   2.118  0.00  0.00    +0.022 C 
ATOM      5  C   UNL     1     -35.386  28.216   0.056  0.00  0.00    +0.137 C 
ATOM      6  C   UNL     1     -35.782  25.708   0.460  0.00  0.00    +0.003 C 
ATOM      7  C   UNL     1     -35.421  29.006   2.373  0.00  0.00    +0.032 C 
ATOM      8  C   UNL     1     -35.380  29.482   0.916  0.00  0.00    +0.137 C 
ATOM      9  C   UNL     1     -34.342  25.248   0.660  0.00  0.00    +0.004 C 
ATOM     10  C   UNL     1     -33.484  27.029   3.974  0.00  0.00    +0.005 C 
ATOM     11  C   UNL     1     -37.594  27.322   0.990  0.00  0.00    +0.002 C 
ATOM     12  C   UNL     1     -34.500  24.448   3.135  0.00  0.00    -0.025 C 
ATOM     13  C   UNL     1     -34.316  26.224   4.967  0.00  0.00    +0.026 C 
ATOM     14  C   UNL     1     -34.671  24.842   4.480  0.00  0.00    -0.023 C 
ATOM     15  C   UNL     1     -34.839  23.128   2.784  0.00  0.00    +0.017 C 
ATOM     16  C   UNL     1     -35.225  23.944   5.409  0.00  0.00    +0.033 C 
ATOM     17  C   UNL     1     -35.380  22.243   3.719  0.00  0.00    +0.122 C 
ATOM     18  C   UNL     1     -35.579  22.653   5.031  0.00  0.00    +0.150 C 
ENDROOT
BRANCH   5  19
ATOM     19  O   UNL     1     -36.054  28.424  -1.178  0.00  0.00    -0.382 OA
ATOM     20  H   UNL     1     -35.969  29.355  -1.438  0.00  0.00    +0.210 HD
ENDBRANCH   5  19
BRANCH   8  21
ATOM     21  O   UNL     1     -34.191  30.227   0.683  0.00  0.00    -0.382 OA
ATOM     22  H   UNL     1     -33.480  29.885   1.247  0.00  0.00    +0.210 HD
ENDBRANCH   8  21
BRANCH  18  23
ATOM     23  O   UNL     1     -36.109  21.806   5.957  0.00  0.00    -0.504 OA
ATOM     24  H   UNL     1     -36.732  21.157   5.696  0.00  0.00    +0.292 HD
ENDBRANCH  18  23
BRANCH  17  25
ATOM     25  N   UNL     1     -35.712  20.943   3.321  0.00  0.00    -0.125 NA
BRANCH  25  26
ATOM     26  N   UNL     1     -36.028  20.869   2.128  0.00  0.00    -0.128 NA
BRANCH  26  27
ATOM     27  C   UNL     1     -35.380  19.870   1.468  0.00  0.00    +0.089 C 
ATOM     28  C   UNL     1     -34.057  19.504   1.807  0.00  0.00    +0.018 C 
ATOM     29  C   UNL     1     -36.005  19.158   0.419  0.00  0.00    +0.018 C 
ATOM     30  C   UNL     1     -33.394  18.479   1.130  0.00  0.00    +0.008 C 
ATOM     31  C   UNL     1     -35.340  18.134  -0.258  0.00  0.00    +0.008 C 
ATOM     32  C   UNL     1     -34.035  17.795   0.099  0.00  0.00    +0.076 C 
BRANCH  32  34
ATOM     33  O   UNL     1     -32.658  16.847  -1.619  0.00  0.00    -0.245 OA
ATOM     34  C   UNL     1     -33.344  16.727  -0.605  0.00  0.00    +0.338 C 
BRANCH  34  35
ATOM     35  O   UNL     1     -33.536  15.516  -0.011  0.00  0.00    -0.477 OA
ATOM     36  H   UNL     1     -33.165  14.744  -0.391  0.00  0.00    +0.295 HD
ENDBRANCH  34  35
ENDBRANCH  32  34
ENDBRANCH  26  27
ENDBRANCH  25  26
ENDBRANCH  17  25
TORSDOF 8
ENDMDL
