MODEL 1
REMARK VINA RESULT:      -7.5      0.000      0.000
REMARK  Name = 5478777
REMARK  4 active torsions:
REMARK  status: ('A' for Active; 'I' for Inactive)
REMARK    1  A    between atoms: C_1  and  C_6
REMARK    2  A    between atoms: C_2  and  C_22
REMARK    3  A    between atoms: C_10  and  C_15
REMARK    4  A    between atoms: C_25  and  C_30
REMARK                            x       y       z     vdW  Elec       q    Type
REMARK                         _______ _______ _______ _____ _____    ______ ____
ROOT
ATOM      1  C   UNL     1     -34.031  18.964   1.008  0.00  0.00    +0.018 C 
ATOM      2  C   UNL     1     -35.155  19.665   1.410  0.00  0.00    +0.039 C 
ENDROOT
BRANCH   1   6
ATOM      3  N   UNL     1     -34.862  16.846   0.313  0.00  0.00    -0.313 N 
ATOM      4  C   UNL     1     -34.675  15.878  -0.649  0.00  0.00    +0.048 C 
ATOM      5  C   UNL     1     -33.645  16.319  -1.481  0.00  0.00    +0.015 C 
ATOM      6  C   UNL     1     -33.986  17.881   0.117  0.00  0.00    +0.048 C 
ATOM      7  C   UNL     1     -33.220  17.584  -0.985  0.00  0.00    +0.016 C 
ATOM      8  C   UNL     1     -35.334  14.659  -0.843  0.00  0.00    +0.017 C 
ATOM      9  C   UNL     1     -33.249  15.505  -2.561  0.00  0.00    +0.001 C 
ATOM     10  C   UNL     1     -34.925  13.868  -1.921  0.00  0.00    +0.032 C 
ATOM     11  C   UNL     1     -33.899  14.282  -2.768  0.00  0.00    +0.003 C 
ATOM     12  H   UNL     1     -35.528  16.800   1.036  0.00  0.00    +0.152 HD
BRANCH  10  15
ATOM     13  N   UNL     1     -36.957  12.442  -1.973  0.00  0.00    -0.343 N 
ATOM     14  N   UNL     1     -34.877  11.552  -2.558  0.00  0.00    -0.285 NA
ATOM     15  C   UNL     1     -35.584  12.593  -2.159  0.00  0.00    +0.117 C 
ATOM     16  H   UNL     1     -37.383  11.571  -2.139  0.00  0.00    +0.144 HD
ATOM     17  H   UNL     1     -37.500  13.206  -1.674  0.00  0.00    +0.144 HD
ATOM     18  H   UNL     1     -35.322  10.687  -2.719  0.00  0.00    +0.188 HD
ENDBRANCH  10  15
ENDBRANCH   1   6
BRANCH   2  22
ATOM     19  O   UNL     1     -35.265  20.552   3.665  0.00  0.00    -0.453 OA
ATOM     20  C   UNL     1     -35.245  22.776   3.262  0.00  0.00    +0.038 C 
ATOM     21  C   UNL     1     -35.291  21.788   4.241  0.00  0.00    +0.145 C 
ATOM     22  C   UNL     1     -35.203  20.790   2.360  0.00  0.00    +0.145 C 
ATOM     23  C   UNL     1     -35.188  22.087   2.022  0.00  0.00    +0.041 C 
ATOM     24  C   UNL     1     -35.264  24.122   3.665  0.00  0.00    +0.006 C 
ATOM     25  C   UNL     1     -35.328  24.413   5.035  0.00  0.00    +0.031 C 
ATOM     26  C   UNL     1     -35.356  22.045   5.608  0.00  0.00    +0.038 C 
ATOM     27  C   UNL     1     -35.373  23.392   5.987  0.00  0.00    +0.006 C 
BRANCH  25  30
ATOM     28  N   UNL     1     -34.213  26.411   5.999  0.00  0.00    -0.343 N 
ATOM     29  N   UNL     1     -36.463  26.504   5.372  0.00  0.00    -0.285 NA
ATOM     30  C   UNL     1     -35.348  25.801   5.471  0.00  0.00    +0.117 C 
ATOM     31  H   UNL     1     -34.249  27.352   6.288  0.00  0.00    +0.144 HD
ATOM     32  H   UNL     1     -33.374  25.902   6.084  0.00  0.00    +0.144 HD
ATOM     33  H   UNL     1     -36.479  27.443   5.665  0.00  0.00    +0.188 HD
ENDBRANCH  25  30
ENDBRANCH   2  22
TORSDOF 4
ENDMDL
MODEL 2
REMARK VINA RESULT:      -7.2      1.942      2.150
REMARK  Name = 5478777
REMARK  4 active torsions:
REMARK  status: ('A' for Active; 'I' for Inactive)
REMARK    1  A    between atoms: C_1  and  C_6
REMARK    2  A    between atoms: C_2  and  C_22
REMARK    3  A    between atoms: C_10  and  C_15
REMARK    4  A    between atoms: C_25  and  C_30
REMARK                            x       y       z     vdW  Elec       q    Type
REMARK                         _______ _______ _______ _____ _____    ______ ____
ROOT
ATOM      1  C   UNL     1     -36.658  19.318   0.706  0.00  0.00    +0.018 C 
ATOM      2  C   UNL     1     -35.550  19.726   1.430  0.00  0.00    +0.039 C 
ENDROOT
BRANCH   1   6
ATOM      3  N   UNL     1     -37.569  17.223   0.042  0.00  0.00    -0.313 N 
ATOM      4  C   UNL     1     -37.497  16.288  -0.967  0.00  0.00    +0.048 C 
ATOM      5  C   UNL     1     -36.568  16.758  -1.897  0.00  0.00    +0.015 C 
ATOM      6  C   UNL     1     -36.719  18.264  -0.219  0.00  0.00    +0.048 C 
ATOM      7  C   UNL     1     -36.086  18.006  -1.412  0.00  0.00    +0.016 C 
ATOM      8  C   UNL     1     -38.176  15.075  -1.124  0.00  0.00    +0.017 C 
ATOM      9  C   UNL     1     -36.302  15.981  -3.042  0.00  0.00    +0.001 C 
ATOM     10  C   UNL     1     -37.896  14.321  -2.268  0.00  0.00    +0.032 C 
ATOM     11  C   UNL     1     -36.974  14.765  -3.213  0.00  0.00    +0.003 C 
ATOM     12  H   UNL     1     -38.147  17.152   0.835  0.00  0.00    +0.152 HD
BRANCH  10  15
ATOM     13  N   UNL     1     -38.475  12.017  -1.545  0.00  0.00    -0.343 N 
ATOM     14  N   UNL     1     -39.318  12.869  -3.550  0.00  0.00    -0.285 NA
ATOM     15  C   UNL     1     -38.581  13.054  -2.471  0.00  0.00    +0.117 C 
ATOM     16  H   UNL     1     -38.946  11.167  -1.701  0.00  0.00    +0.144 HD
ATOM     17  H   UNL     1     -37.928  12.134  -0.735  0.00  0.00    +0.144 HD
ATOM     18  H   UNL     1     -39.783  12.012  -3.690  0.00  0.00    +0.188 HD
ENDBRANCH  10  15
ENDBRANCH   1   6
BRANCH   2  22
ATOM     19  O   UNL     1     -35.384  20.599   3.687  0.00  0.00    -0.453 OA
ATOM     20  C   UNL     1     -35.414  22.825   3.299  0.00  0.00    +0.038 C 
ATOM     21  C   UNL     1     -35.340  21.831   4.270  0.00  0.00    +0.145 C 
ATOM     22  C   UNL     1     -35.482  20.845   2.386  0.00  0.00    +0.145 C 
ATOM     23  C   UNL     1     -35.508  22.144   2.057  0.00  0.00    +0.041 C 
ATOM     24  C   UNL     1     -35.384  24.169   3.709  0.00  0.00    +0.006 C 
ATOM     25  C   UNL     1     -35.280  24.452   5.078  0.00  0.00    +0.031 C 
ATOM     26  C   UNL     1     -35.237  22.080   5.637  0.00  0.00    +0.038 C 
ATOM     27  C   UNL     1     -35.208  23.424   6.023  0.00  0.00    +0.006 C 
BRANCH  25  30
ATOM     28  N   UNL     1     -34.085  26.404   6.042  0.00  0.00    -0.343 N 
ATOM     29  N   UNL     1     -36.337  26.579   5.439  0.00  0.00    -0.285 NA
ATOM     30  C   UNL     1     -35.247  25.836   5.522  0.00  0.00    +0.117 C 
ATOM     31  H   UNL     1     -34.085  27.344   6.336  0.00  0.00    +0.144 HD
ATOM     32  H   UNL     1     -33.265  25.865   6.116  0.00  0.00    +0.144 HD
ATOM     33  H   UNL     1     -36.317  27.517   5.737  0.00  0.00    +0.188 HD
ENDBRANCH  25  30
ENDBRANCH   2  22
TORSDOF 4
ENDMDL
MODEL 3
REMARK VINA RESULT:      -7.1      1.198      1.419
REMARK  Name = 5478777
REMARK  4 active torsions:
REMARK  status: ('A' for Active; 'I' for Inactive)
REMARK    1  A    between atoms: C_1  and  C_6
REMARK    2  A    between atoms: C_2  and  C_22
REMARK    3  A    between atoms: C_10  and  C_15
REMARK    4  A    between atoms: C_25  and  C_30
REMARK                            x       y       z     vdW  Elec       q    Type
REMARK                         _______ _______ _______ _____ _____    ______ ____
ROOT
ATOM      1  C   UNL     1     -36.053  19.375   0.461  0.00  0.00    +0.018 C 
ATOM      2  C   UNL     1     -35.226  19.598   1.549  0.00  0.00    +0.039 C 
ENDROOT
BRANCH   1   6
ATOM      3  N   UNL     1     -35.541  17.087   0.055  0.00  0.00    -0.313 N 
ATOM      4  C   UNL     1     -35.575  16.136  -0.940  0.00  0.00    +0.048 C 
ATOM      5  C   UNL     1     -36.089  16.754  -2.082  0.00  0.00    +0.015 C 
ATOM      6  C   UNL     1     -36.014  18.282  -0.419  0.00  0.00    +0.048 C 
ATOM      7  C   UNL     1     -36.361  18.107  -1.738  0.00  0.00    +0.016 C 
ATOM      8  C   UNL     1     -35.194  14.790  -0.915  0.00  0.00    +0.017 C 
ATOM      9  C   UNL     1     -36.230  15.993  -3.259  0.00  0.00    +0.001 C 
ATOM     10  C   UNL     1     -35.344  14.054  -2.096  0.00  0.00    +0.032 C 
ATOM     11  C   UNL     1     -35.853  14.644  -3.250  0.00  0.00    +0.003 C 
ATOM     12  H   UNL     1     -35.222  16.931   0.973  0.00  0.00    +0.152 HD
BRANCH  10  15
ATOM     13  N   UNL     1     -34.047  12.138  -1.194  0.00  0.00    -0.343 N 
ATOM     14  N   UNL     1     -35.479  11.838  -3.015  0.00  0.00    -0.285 NA
ATOM     15  C   UNL     1     -34.961  12.651  -2.113  0.00  0.00    +0.117 C 
ATOM     16  H   UNL     1     -33.801  11.186  -1.223  0.00  0.00    +0.144 HD
ATOM     17  H   UNL     1     -33.647  12.729  -0.515  0.00  0.00    +0.144 HD
ATOM     18  H   UNL     1     -35.221  10.888  -3.029  0.00  0.00    +0.188 HD
ENDBRANCH  10  15
ENDBRANCH   1   6
BRANCH   2  22
ATOM     19  O   UNL     1     -35.298  20.565   3.773  0.00  0.00    -0.453 OA
ATOM     20  C   UNL     1     -35.276  22.772   3.290  0.00  0.00    +0.038 C 
ATOM     21  C   UNL     1     -35.311  21.820   4.304  0.00  0.00    +0.145 C 
ATOM     22  C   UNL     1     -35.255  20.756   2.459  0.00  0.00    +0.145 C 
ATOM     23  C   UNL     1     -35.239  22.040   2.075  0.00  0.00    +0.041 C 
ATOM     24  C   UNL     1     -35.283  24.132   3.646  0.00  0.00    +0.006 C 
ATOM     25  C   UNL     1     -35.325  24.472   5.005  0.00  0.00    +0.031 C 
ATOM     26  C   UNL     1     -35.354  22.126   5.663  0.00  0.00    +0.038 C 
ATOM     27  C   UNL     1     -35.360  23.485   5.994  0.00  0.00    +0.006 C 
BRANCH  25  30
ATOM     28  N   UNL     1     -34.189  26.495   5.892  0.00  0.00    -0.343 N 
ATOM     29  N   UNL     1     -36.442  26.582   5.275  0.00  0.00    -0.285 NA
ATOM     30  C   UNL     1     -35.332  25.874   5.392  0.00  0.00    +0.117 C 
ATOM     31  H   UNL     1     -34.217  27.446   6.147  0.00  0.00    +0.144 HD
ATOM     32  H   UNL     1     -33.354  25.983   5.989  0.00  0.00    +0.144 HD
ATOM     33  H   UNL     1     -36.450  27.531   5.535  0.00  0.00    +0.188 HD
ENDBRANCH  25  30
ENDBRANCH   2  22
TORSDOF 4
ENDMDL
MODEL 4
REMARK VINA RESULT:      -7.1      1.697      2.050
REMARK  Name = 5478777
REMARK  4 active torsions:
REMARK  status: ('A' for Active; 'I' for Inactive)
REMARK    1  A    between atoms: C_1  and  C_6
REMARK    2  A    between atoms: C_2  and  C_22
REMARK    3  A    between atoms: C_10  and  C_15
REMARK    4  A    between atoms: C_25  and  C_30
REMARK                            x       y       z     vdW  Elec       q    Type
REMARK                         _______ _______ _______ _____ _____    ______ ____
ROOT
ATOM      1  C   UNL     1     -33.731  18.891   1.245  0.00  0.00    +0.018 C 
ATOM      2  C   UNL     1     -34.887  19.601   1.524  0.00  0.00    +0.039 C 
ENDROOT
BRANCH   1   6
ATOM      3  N   UNL     1     -32.590  16.894   0.635  0.00  0.00    -0.313 N 
ATOM      4  C   UNL     1     -32.623  15.874  -0.288  0.00  0.00    +0.048 C 
ATOM      5  C   UNL     1     -33.703  16.124  -1.138  0.00  0.00    +0.015 C 
ATOM      6  C   UNL     1     -33.608  17.779   0.398  0.00  0.00    +0.048 C 
ATOM      7  C   UNL     1     -34.314  17.330  -0.693  0.00  0.00    +0.016 C 
ATOM      8  C   UNL     1     -31.790  14.760  -0.434  0.00  0.00    +0.017 C 
ATOM      9  C   UNL     1     -33.964  15.220  -2.187  0.00  0.00    +0.001 C 
ATOM     10  C   UNL     1     -32.069  13.876  -1.481  0.00  0.00    +0.032 C 
ATOM     11  C   UNL     1     -33.138  14.100  -2.345  0.00  0.00    +0.003 C 
ATOM     12  H   UNL     1     -31.929  16.977   1.360  0.00  0.00    +0.152 HD
BRANCH  10  15
ATOM     13  N   UNL     1     -31.323  11.601  -0.822  0.00  0.00    -0.343 N 
ATOM     14  N   UNL     1     -30.348  12.676  -2.653  0.00  0.00    -0.285 NA
ATOM     15  C   UNL     1     -31.227  12.705  -1.668  0.00  0.00    +0.117 C 
ATOM     16  H   UNL     1     -30.744  10.818  -0.965  0.00  0.00    +0.144 HD
ATOM     17  H   UNL     1     -31.971  11.605  -0.080  0.00  0.00    +0.144 HD
ATOM     18  H   UNL     1     -29.777  11.883  -2.781  0.00  0.00    +0.188 HD
ENDBRANCH  10  15
ENDBRANCH   1   6
BRANCH   2  22
ATOM     19  O   UNL     1     -35.166  20.560   3.735  0.00  0.00    -0.453 OA
ATOM     20  C   UNL     1     -35.157  22.769   3.257  0.00  0.00    +0.038 C 
ATOM     21  C   UNL     1     -35.253  21.814   4.264  0.00  0.00    +0.145 C 
ATOM     22  C   UNL     1     -35.019  20.756   2.430  0.00  0.00    +0.145 C 
ATOM     23  C   UNL     1     -35.002  22.041   2.049  0.00  0.00    +0.041 C 
ATOM     24  C   UNL     1     -35.226  24.127   3.611  0.00  0.00    +0.006 C 
ATOM     25  C   UNL     1     -35.388  24.463   4.962  0.00  0.00    +0.031 C 
ATOM     26  C   UNL     1     -35.416  22.115   5.614  0.00  0.00    +0.038 C 
ATOM     27  C   UNL     1     -35.481  23.473   5.944  0.00  0.00    +0.006 C 
BRANCH  25  30
ATOM     28  N   UNL     1     -34.322  26.575   5.716  0.00  0.00    -0.343 N 
ATOM     29  N   UNL     1     -36.629  26.482   5.356  0.00  0.00    -0.285 NA
ATOM     30  C   UNL     1     -35.462  25.864   5.347  0.00  0.00    +0.117 C 
ATOM     31  H   UNL     1     -34.394  27.523   5.973  0.00  0.00    +0.144 HD
ATOM     32  H   UNL     1     -33.444  26.130   5.720  0.00  0.00    +0.144 HD
ATOM     33  H   UNL     1     -36.682  27.430   5.615  0.00  0.00    +0.188 HD
ENDBRANCH  25  30
ENDBRANCH   2  22
TORSDOF 4
ENDMDL
MODEL 5
REMARK VINA RESULT:      -7.0      5.981      9.812
REMARK  Name = 5478777
REMARK  4 active torsions:
REMARK  status: ('A' for Active; 'I' for Inactive)
REMARK    1  A    between atoms: C_1  and  C_6
REMARK    2  A    between atoms: C_2  and  C_22
REMARK    3  A    between atoms: C_10  and  C_15
REMARK    4  A    between atoms: C_25  and  C_30
REMARK                            x       y       z     vdW  Elec       q    Type
REMARK                         _______ _______ _______ _____ _____    ______ ____
ROOT
ATOM      1  C   UNL     1     -34.339  27.500   4.049  0.00  0.00    +0.018 C 
ATOM      2  C   UNL     1     -34.441  28.207   2.863  0.00  0.00    +0.039 C 
ENDROOT
BRANCH   1   6
ATOM      3  N   UNL     1     -34.753  25.345   3.128  0.00  0.00    -0.313 N 
ATOM      4  C   UNL     1     -34.969  24.038   3.501  0.00  0.00    +0.048 C 
ATOM      5  C   UNL     1     -34.921  23.995   4.896  0.00  0.00    +0.015 C 
ATOM      6  C   UNL     1     -34.572  26.129   4.237  0.00  0.00    +0.048 C 
ATOM      7  C   UNL     1     -34.670  25.321   5.346  0.00  0.00    +0.016 C 
ATOM      8  C   UNL     1     -35.199  22.902   2.718  0.00  0.00    +0.017 C 
ATOM      9  C   UNL     1     -35.113  22.759   5.544  0.00  0.00    +0.001 C 
ATOM     10  C   UNL     1     -35.387  21.685   3.383  0.00  0.00    +0.032 C 
ATOM     11  C   UNL     1     -35.345  21.613   4.773  0.00  0.00    +0.003 C 
ATOM     12  H   UNL     1     -34.733  25.670   2.199  0.00  0.00    +0.152 HD
BRANCH  10  15
ATOM     13  N   UNL     1     -34.624  19.903   1.831  0.00  0.00    -0.343 N 
ATOM     14  N   UNL     1     -36.821  19.912   2.626  0.00  0.00    -0.285 NA
ATOM     15  C   UNL     1     -35.629  20.479   2.606  0.00  0.00    +0.117 C 
ATOM     16  H   UNL     1     -34.808  19.087   1.313  0.00  0.00    +0.144 HD
ATOM     17  H   UNL     1     -33.729  20.313   1.802  0.00  0.00    +0.144 HD
ATOM     18  H   UNL     1     -36.986  19.095   2.101  0.00  0.00    +0.188 HD
ENDBRANCH  10  15
ENDBRANCH   1   6
BRANCH   2  22
ATOM     19  O   UNL     1     -35.081  30.368   1.967  0.00  0.00    -0.453 OA
ATOM     20  C   UNL     1     -33.398  31.671   2.722  0.00  0.00    +0.038 C 
ATOM     21  C   UNL     1     -34.581  31.636   1.991  0.00  0.00    +0.145 C 
ATOM     22  C   UNL     1     -34.215  29.650   2.672  0.00  0.00    +0.145 C 
ATOM     23  C   UNL     1     -33.176  30.341   3.163  0.00  0.00    +0.041 C 
ATOM     24  C   UNL     1     -32.730  32.900   2.860  0.00  0.00    +0.006 C 
ATOM     25  C   UNL     1     -33.284  34.038   2.256  0.00  0.00    +0.031 C 
ATOM     26  C   UNL     1     -35.155  32.747   1.379  0.00  0.00    +0.038 C 
ATOM     27  C   UNL     1     -34.475  33.960   1.529  0.00  0.00    +0.006 C 
BRANCH  25  30
ATOM     28  N   UNL     1     -32.827  36.352   1.478  0.00  0.00    -0.343 N 
ATOM     29  N   UNL     1     -31.761  35.516   3.384  0.00  0.00    -0.285 NA
ATOM     30  C   UNL     1     -32.607  35.319   2.387  0.00  0.00    +0.117 C 
ATOM     31  H   UNL     1     -32.358  37.211   1.587  0.00  0.00    +0.144 HD
ATOM     32  H   UNL     1     -33.450  36.222   0.728  0.00  0.00    +0.144 HD
ATOM     33  H   UNL     1     -31.303  36.381   3.476  0.00  0.00    +0.188 HD
ENDBRANCH  25  30
ENDBRANCH   2  22
TORSDOF 4
ENDMDL
MODEL 6
REMARK VINA RESULT:      -6.9      6.877     14.271
REMARK  Name = 5478777
REMARK  4 active torsions:
REMARK  status: ('A' for Active; 'I' for Inactive)
REMARK    1  A    between atoms: C_1  and  C_6
REMARK    2  A    between atoms: C_2  and  C_22
REMARK    3  A    between atoms: C_10  and  C_15
REMARK    4  A    between atoms: C_25  and  C_30
REMARK                            x       y       z     vdW  Elec       q    Type
REMARK                         _______ _______ _______ _____ _____    ______ ____
ROOT
ATOM      1  C   UNL     1     -35.087  29.797   2.736  0.00  0.00    +0.018 C 
ATOM      2  C   UNL     1     -34.149  28.807   2.977  0.00  0.00    +0.039 C 
ENDROOT
BRANCH   1   6
ATOM      3  N   UNL     1     -33.698  31.727   2.824  0.00  0.00    -0.313 N 
ATOM      4  C   UNL     1     -33.615  33.017   2.351  0.00  0.00    +0.048 C 
ATOM      5  C   UNL     1     -34.740  33.235   1.553  0.00  0.00    +0.015 C 
ATOM      6  C   UNL     1     -34.834  31.124   2.355  0.00  0.00    +0.048 C 
ATOM      7  C   UNL     1     -35.500  32.031   1.565  0.00  0.00    +0.016 C 
ATOM      8  C   UNL     1     -32.640  33.997   2.566  0.00  0.00    +0.017 C 
ATOM      9  C   UNL     1     -34.903  34.492   0.939  0.00  0.00    +0.001 C 
ATOM     10  C   UNL     1     -32.823  35.237   1.946  0.00  0.00    +0.032 C 
ATOM     11  C   UNL     1     -33.935  35.483   1.145  0.00  0.00    +0.003 C 
ATOM     12  H   UNL     1     -33.036  31.300   3.416  0.00  0.00    +0.152 HD
BRANCH  10  15
ATOM     13  N   UNL     1     -31.447  37.122   1.097  0.00  0.00    -0.343 N 
ATOM     14  N   UNL     1     -31.278  36.452   3.328  0.00  0.00    -0.285 NA
ATOM     15  C   UNL     1     -31.832  36.284   2.142  0.00  0.00    +0.117 C 
ATOM     16  H   UNL     1     -30.775  37.825   1.251  0.00  0.00    +0.144 HD
ATOM     17  H   UNL     1     -31.848  37.011   0.204  0.00  0.00    +0.144 HD
ATOM     18  H   UNL     1     -30.607  37.160   3.463  0.00  0.00    +0.188 HD
ENDBRANCH  10  15
ENDBRANCH   1   6
BRANCH   2  22
ATOM     19  O   UNL     1     -34.526  27.129   4.688  0.00  0.00    -0.453 OA
ATOM     20  C   UNL     1     -34.804  25.274   3.428  0.00  0.00    +0.038 C 
ATOM     21  C   UNL     1     -34.770  25.788   4.721  0.00  0.00    +0.145 C 
ATOM     22  C   UNL     1     -34.415  27.420   3.398  0.00  0.00    +0.145 C 
ATOM     23  C   UNL     1     -34.565  26.378   2.568  0.00  0.00    +0.041 C 
ATOM     24  C   UNL     1     -35.044  23.900   3.258  0.00  0.00    +0.006 C 
ATOM     25  C   UNL     1     -35.240  23.105   4.396  0.00  0.00    +0.031 C 
ATOM     26  C   UNL     1     -34.959  25.025   5.870  0.00  0.00    +0.038 C 
ATOM     27  C   UNL     1     -35.197  23.660   5.678  0.00  0.00    +0.006 C 
BRANCH  25  30
ATOM     28  N   UNL     1     -36.048  21.167   3.070  0.00  0.00    -0.343 N 
ATOM     29  N   UNL     1     -35.191  20.850   5.222  0.00  0.00    -0.285 NA
ATOM     30  C   UNL     1     -35.490  21.681   4.239  0.00  0.00    +0.117 C 
ATOM     31  H   UNL     1     -36.208  20.199   2.985  0.00  0.00    +0.144 HD
ATOM     32  H   UNL     1     -36.280  21.771   2.329  0.00  0.00    +0.144 HD
ATOM     33  H   UNL     1     -35.358  19.885   5.118  0.00  0.00    +0.188 HD
ENDBRANCH  25  30
ENDBRANCH   2  22
TORSDOF 4
ENDMDL
MODEL 7
REMARK VINA RESULT:      -6.9      7.004     14.169
REMARK  Name = 5478777
REMARK  4 active torsions:
REMARK  status: ('A' for Active; 'I' for Inactive)
REMARK    1  A    between atoms: C_1  and  C_6
REMARK    2  A    between atoms: C_2  and  C_22
REMARK    3  A    between atoms: C_10  and  C_15
REMARK    4  A    between atoms: C_25  and  C_30
REMARK                            x       y       z     vdW  Elec       q    Type
REMARK                         _______ _______ _______ _____ _____    ______ ____
ROOT
ATOM      1  C   UNL     1     -35.299  29.822   2.774  0.00  0.00    +0.018 C 
ATOM      2  C   UNL     1     -34.386  28.781   2.796  0.00  0.00    +0.039 C 
ENDROOT
BRANCH   1   6
ATOM      3  N   UNL     1     -36.126  31.869   1.886  0.00  0.00    -0.313 N 
ATOM      4  C   UNL     1     -35.712  33.129   1.519  0.00  0.00    +0.048 C 
ATOM      5  C   UNL     1     -34.339  33.198   1.764  0.00  0.00    +0.015 C 
ATOM      6  C   UNL     1     -35.064  31.140   2.352  0.00  0.00    +0.048 C 
ATOM      7  C   UNL     1     -33.945  31.936   2.290  0.00  0.00    +0.016 C 
ATOM      8  C   UNL     1     -36.440  34.203   0.995  0.00  0.00    +0.017 C 
ATOM      9  C   UNL     1     -33.657  34.396   1.472  0.00  0.00    +0.001 C 
ATOM     10  C   UNL     1     -35.742  35.382   0.713  0.00  0.00    +0.032 C 
ATOM     11  C   UNL     1     -34.373  35.479   0.947  0.00  0.00    +0.003 C 
ATOM     12  H   UNL     1     -37.051  31.539   1.821  0.00  0.00    +0.152 HD
BRANCH  10  15
ATOM     13  N   UNL     1     -36.001  37.825   0.352  0.00  0.00    -0.343 N 
ATOM     14  N   UNL     1     -37.575  36.332  -0.516  0.00  0.00    -0.285 NA
ATOM     15  C   UNL     1     -36.462  36.522   0.167  0.00  0.00    +0.117 C 
ATOM     16  H   UNL     1     -36.503  38.583  -0.025  0.00  0.00    +0.144 HD
ATOM     17  H   UNL     1     -35.174  37.987   0.861  0.00  0.00    +0.144 HD
ATOM     18  H   UNL     1     -38.064  37.103  -0.885  0.00  0.00    +0.188 HD
ENDBRANCH  10  15
ENDBRANCH   1   6
BRANCH   2  22
ATOM     19  O   UNL     1     -34.941  27.176   4.528  0.00  0.00    -0.453 OA
ATOM     20  C   UNL     1     -34.872  25.238   3.368  0.00  0.00    +0.038 C 
ATOM     21  C   UNL     1     -35.097  25.824   4.610  0.00  0.00    +0.145 C 
ATOM     22  C   UNL     1     -34.628  27.403   3.258  0.00  0.00    +0.145 C 
ATOM     23  C   UNL     1     -34.562  26.308   2.488  0.00  0.00    +0.041 C 
ATOM     24  C   UNL     1     -34.986  23.843   3.253  0.00  0.00    +0.006 C 
ATOM     25  C   UNL     1     -35.323  23.099   4.392  0.00  0.00    +0.031 C 
ATOM     26  C   UNL     1     -35.432  25.113   5.760  0.00  0.00    +0.038 C 
ATOM     27  C   UNL     1     -35.541  23.725   5.622  0.00  0.00    +0.006 C 
BRANCH  25  30
ATOM     28  N   UNL     1     -35.860  21.041   3.111  0.00  0.00    -0.343 N 
ATOM     29  N   UNL     1     -35.168  20.896   5.339  0.00  0.00    -0.285 NA
ATOM     30  C   UNL     1     -35.447  21.653   4.292  0.00  0.00    +0.117 C 
ATOM     31  H   UNL     1     -35.937  20.060   3.066  0.00  0.00    +0.144 HD
ATOM     32  H   UNL     1     -36.076  21.588   2.322  0.00  0.00    +0.144 HD
ATOM     33  H   UNL     1     -35.250  19.917   5.274  0.00  0.00    +0.188 HD
ENDBRANCH  25  30
ENDBRANCH   2  22
TORSDOF 4
ENDMDL
MODEL 8
REMARK VINA RESULT:      -6.7      6.697     13.389
REMARK  Name = 5478777
REMARK  4 active torsions:
REMARK  status: ('A' for Active; 'I' for Inactive)
REMARK    1  A    between atoms: C_1  and  C_6
REMARK    2  A    between atoms: C_2  and  C_22
REMARK    3  A    between atoms: C_10  and  C_15
REMARK    4  A    between atoms: C_25  and  C_30
REMARK                            x       y       z     vdW  Elec       q    Type
REMARK                         _______ _______ _______ _____ _____    ______ ____
ROOT
ATOM      1  C   UNL     1     -41.083  25.897   2.487  0.00  0.00    +0.018 C 
ATOM      2  C   UNL     1     -40.133  25.349   3.332  0.00  0.00    +0.039 C 
ENDROOT
BRANCH   1   6
ATOM      3  N   UNL     1     -41.903  27.521   4.020  0.00  0.00    -0.313 N 
ATOM      4  C   UNL     1     -42.852  28.512   4.135  0.00  0.00    +0.048 C 
ATOM      5  C   UNL     1     -43.552  28.551   2.927  0.00  0.00    +0.015 C 
ATOM      6  C   UNL     1     -41.980  26.934   2.785  0.00  0.00    +0.048 C 
ATOM      7  C   UNL     1     -42.991  27.551   2.086  0.00  0.00    +0.016 C 
ATOM      8  C   UNL     1     -43.141  29.367   5.204  0.00  0.00    +0.017 C 
ATOM      9  C   UNL     1     -44.593  29.489   2.777  0.00  0.00    +0.001 C 
ATOM     10  C   UNL     1     -44.178  30.290   5.032  0.00  0.00    +0.032 C 
ATOM     11  C   UNL     1     -44.893  30.352   3.839  0.00  0.00    +0.003 C 
ATOM     12  H   UNL     1     -41.262  27.270   4.725  0.00  0.00    +0.152 HD
BRANCH  10  15
ATOM     13  N   UNL     1     -45.482  32.185   5.965  0.00  0.00    -0.343 N 
ATOM     14  N   UNL     1     -43.884  31.097   7.276  0.00  0.00    -0.285 NA
ATOM     15  C   UNL     1     -44.510  31.198   6.118  0.00  0.00    +0.117 C 
ATOM     16  H   UNL     1     -45.692  32.790   6.713  0.00  0.00    +0.144 HD
ATOM     17  H   UNL     1     -45.959  32.278   5.108  0.00  0.00    +0.144 HD
ATOM     18  H   UNL     1     -44.107  31.711   8.013  0.00  0.00    +0.188 HD
ENDBRANCH  10  15
ENDBRANCH   1   6
BRANCH   2  22
ATOM     19  O   UNL     1     -38.024  24.187   3.626  0.00  0.00    -0.453 OA
ATOM     20  C   UNL     1     -38.283  22.446   2.209  0.00  0.00    +0.038 C 
ATOM     21  C   UNL     1     -37.436  23.064   3.124  0.00  0.00    +0.145 C 
ATOM     22  C   UNL     1     -39.206  24.246   3.025  0.00  0.00    +0.145 C 
ATOM     23  C   UNL     1     -39.451  23.250   2.161  0.00  0.00    +0.041 C 
ATOM     24  C   UNL     1     -37.847  21.266   1.583  0.00  0.00    +0.006 C 
ATOM     25  C   UNL     1     -36.580  20.762   1.905  0.00  0.00    +0.031 C 
ATOM     26  C   UNL     1     -36.172  22.588   3.465  0.00  0.00    +0.038 C 
ATOM     27  C   UNL     1     -35.759  21.413   2.829  0.00  0.00    +0.006 C 
BRANCH  25  30
ATOM     28  N   UNL     1     -37.004  18.625   0.712  0.00  0.00    -0.343 N 
ATOM     29  N   UNL     1     -34.817  19.284   1.209  0.00  0.00    -0.285 NA
ATOM     30  C   UNL     1     -36.112  19.541   1.266  0.00  0.00    +0.117 C 
ATOM     31  H   UNL     1     -36.665  17.805   0.283  0.00  0.00    +0.144 HD
ATOM     32  H   UNL     1     -37.972  18.798   0.747  0.00  0.00    +0.144 HD
ATOM     33  H   UNL     1     -34.498  18.460   0.777  0.00  0.00    +0.188 HD
ENDBRANCH  25  30
ENDBRANCH   2  22
TORSDOF 4
ENDMDL
MODEL 9
REMARK VINA RESULT:      -6.6      1.769      2.372
REMARK  Name = 5478777
REMARK  4 active torsions:
REMARK  status: ('A' for Active; 'I' for Inactive)
REMARK    1  A    between atoms: C_1  and  C_6
REMARK    2  A    between atoms: C_2  and  C_22
REMARK    3  A    between atoms: C_10  and  C_15
REMARK    4  A    between atoms: C_25  and  C_30
REMARK                            x       y       z     vdW  Elec       q    Type
REMARK                         _______ _______ _______ _____ _____    ______ ____
ROOT
ATOM      1  C   UNL     1     -34.073  19.118   0.768  0.00  0.00    +0.018 C 
ATOM      2  C   UNL     1     -35.194  19.637   1.393  0.00  0.00    +0.039 C 
ENDROOT
BRANCH   1   6
ATOM      3  N   UNL     1     -33.658  18.268  -1.416  0.00  0.00    -0.313 N 
ATOM      4  C   UNL     1     -33.672  17.095  -2.135  0.00  0.00    +0.048 C 
ATOM      5  C   UNL     1     -34.065  16.080  -1.260  0.00  0.00    +0.015 C 
ATOM      6  C   UNL     1     -34.029  18.031  -0.119  0.00  0.00    +0.048 C 
ATOM      7  C   UNL     1     -34.287  16.686   0.009  0.00  0.00    +0.016 C 
ATOM      8  C   UNL     1     -33.369  16.856  -3.480  0.00  0.00    +0.017 C 
ATOM      9  C   UNL     1     -34.163  14.763  -1.748  0.00  0.00    +0.001 C 
ATOM     10  C   UNL     1     -33.472  15.540  -3.943  0.00  0.00    +0.032 C 
ATOM     11  C   UNL     1     -33.862  14.509  -3.092  0.00  0.00    +0.003 C 
ATOM     12  H   UNL     1     -33.417  19.150  -1.780  0.00  0.00    +0.152 HD
BRANCH  10  15
ATOM     13  N   UNL     1     -32.999  13.938  -5.780  0.00  0.00    -0.343 N 
ATOM     14  N   UNL     1     -33.036  16.236  -6.201  0.00  0.00    -0.285 NA
ATOM     15  C   UNL     1     -33.165  15.248  -5.334  0.00  0.00    +0.117 C 
ATOM     16  H   UNL     1     -32.791  13.762  -6.725  0.00  0.00    +0.144 HD
ATOM     17  H   UNL     1     -33.088  13.188  -5.148  0.00  0.00    +0.144 HD
ATOM     18  H   UNL     1     -32.828  16.040  -7.143  0.00  0.00    +0.188 HD
ENDBRANCH  10  15
ENDBRANCH   1   6
BRANCH   2  22
ATOM     19  O   UNL     1     -35.282  20.533   3.645  0.00  0.00    -0.453 OA
ATOM     20  C   UNL     1     -35.278  22.755   3.233  0.00  0.00    +0.038 C 
ATOM     21  C   UNL     1     -35.308  21.771   4.217  0.00  0.00    +0.145 C 
ATOM     22  C   UNL     1     -35.237  20.766   2.339  0.00  0.00    +0.145 C 
ATOM     23  C   UNL     1     -35.231  22.062   1.995  0.00  0.00    +0.041 C 
ATOM     24  C   UNL     1     -35.298  24.102   3.631  0.00  0.00    +0.006 C 
ATOM     25  C   UNL     1     -35.347  24.399   5.000  0.00  0.00    +0.031 C 
ATOM     26  C   UNL     1     -35.357  22.033   5.584  0.00  0.00    +0.038 C 
ATOM     27  C   UNL     1     -35.376  23.381   5.957  0.00  0.00    +0.006 C 
BRANCH  25  30
ATOM     28  N   UNL     1     -36.495  26.588   5.245  0.00  0.00    -0.343 N 
ATOM     29  N   UNL     1     -34.302  26.314   6.007  0.00  0.00    -0.285 NA
ATOM     30  C   UNL     1     -35.369  25.788   5.431  0.00  0.00    +0.117 C 
ATOM     31  H   UNL     1     -36.488  27.526   5.545  0.00  0.00    +0.144 HD
ATOM     32  H   UNL     1     -37.298  26.215   4.815  0.00  0.00    +0.144 HD
ATOM     33  H   UNL     1     -34.314  27.253   6.300  0.00  0.00    +0.188 HD
ENDBRANCH  25  30
ENDBRANCH   2  22
TORSDOF 4
ENDMDL
