MODEL 1
REMARK VINA RESULT:      -7.6      0.000      0.000
REMARK  Name = 53396311
REMARK  6 active torsions:
REMARK  status: ('A' for Active; 'I' for Inactive)
REMARK    1  A    between atoms: N_1  and  C_22
REMARK    2  A    between atoms: C_4  and  C_11
REMARK    3  A    between atoms: C_5  and  N_17
REMARK    4  A    between atoms: C_22  and  C_23
REMARK    5  A    between atoms: C_23  and  N_24
REMARK    6  A    between atoms: C_28  and  N_34
REMARK                            x       y       z     vdW  Elec       q    Type
REMARK                         _______ _______ _______ _____ _____    ______ ____
ROOT
ATOM      1  N   UNL     1     -36.681  22.655   4.097  0.00  0.00    -0.266 N 
ATOM      2  N   UNL     1     -35.392  21.453   2.549  0.00  0.00    -0.336 NA
ATOM      3  N   UNL     1     -37.766  21.722   2.238  0.00  0.00    -0.169 NA
ATOM      4  C   UNL     1     -35.359  20.741   1.404  0.00  0.00    +0.160 C 
ATOM      5  C   UNL     1     -36.473  20.480   0.631  0.00  0.00    +0.108 C 
ATOM      6  C   UNL     1     -36.610  21.906   2.902  0.00  0.00    +0.145 C 
ATOM      7  C   UNL     1     -37.661  21.001   1.102  0.00  0.00    +0.129 C 
ATOM      8  H   UNL     1     -37.558  23.001   4.384  0.00  0.00    +0.159 HD
ENDROOT
BRANCH   4  11
ATOM      9 CL   UNL     1     -33.625  22.560  -0.385  0.00  0.00    -0.082 Cl
ATOM     10 CL   UNL     1     -29.951  18.658   0.012  0.00  0.00    -0.082 Cl
ATOM     11  C   UNL     1     -34.037  20.263   1.046  0.00  0.00    +0.042 C 
ATOM     12  C   UNL     1     -33.177  21.012   0.242  0.00  0.00    +0.061 C 
ATOM     13  C   UNL     1     -33.633  19.019   1.531  0.00  0.00    +0.004 C 
ATOM     14  C   UNL     1     -31.913  20.515  -0.078  0.00  0.00    +0.023 C 
ATOM     15  C   UNL     1     -32.370  18.522   1.211  0.00  0.00    +0.012 C 
ATOM     16  C   UNL     1     -31.510  19.271   0.407  0.00  0.00    +0.059 C 
ENDBRANCH   4  11
BRANCH   5  17
ATOM     17  N   UNL     1     -36.435  19.749  -0.541  0.00  0.00    -0.242 N 
ATOM     18  N   UNL     1     -36.512  17.998  -1.904  0.00  0.00    -0.224 NA
ATOM     19  C   UNL     1     -36.224  20.245  -1.797  0.00  0.00    +0.092 C 
ATOM     20  C   UNL     1     -36.603  18.398  -0.656  0.00  0.00    +0.172 C 
ATOM     21  C   UNL     1     -36.275  19.144  -2.621  0.00  0.00    +0.117 C 
ENDBRANCH   5  17
BRANCH   1  22
ATOM     22  C   UNL     1     -35.537  22.933   4.908  0.00  0.00    +0.119 C 
BRANCH  22  23
ATOM     23  C   UNL     1     -35.598  24.356   5.444  0.00  0.00    +0.111 C 
BRANCH  23  24
ATOM     24  N   UNL     1     -34.918  25.267   4.551  0.00  0.00    -0.307 N 
ATOM     25  N   UNL     1     -33.411  27.004   4.048  0.00  0.00    -0.375 NA
ATOM     26  C   UNL     1     -33.985  26.201   4.971  0.00  0.00    +0.181 C 
ATOM     27  C   UNL     1     -33.702  26.249   6.326  0.00  0.00    +0.045 C 
ATOM     28  C   UNL     1     -32.155  28.027   5.843  0.00  0.00    +0.254 C 
ATOM     29  C   UNL     1     -32.768  27.183   6.762  0.00  0.00    +0.015 C 
ATOM     30  C   UNL     1     -32.509  27.900   4.510  0.00  0.00    +0.187 C 
ATOM     31  H   UNL     1     -35.130  25.222   3.591  0.00  0.00    +0.149 HD
ATOM     32  N   UNL     1     -31.893  28.756   3.562  0.00  0.00    -0.334 N 
ATOM     33  H   UNL     1     -32.127  28.684   2.608  0.00  0.00    +0.144 HD
ATOM     34  H   UNL     1     -31.230  29.422   3.858  0.00  0.00    +0.144 HD
BRANCH  28  37
ATOM     35  O   UNL     1     -31.579  29.909   7.045  0.00  0.00    -0.130 OA
ATOM     36  O   UNL     1     -30.007  28.863   5.927  0.00  0.00    -0.130 OA
ATOM     37  N   UNL     1     -31.201  28.979   6.294  0.00  0.00    +0.045 N 
ENDBRANCH  28  37
ENDBRANCH  23  24
ENDBRANCH  22  23
ENDBRANCH   1  22
TORSDOF 6
ENDMDL
MODEL 2
REMARK VINA RESULT:      -7.4      1.706      2.141
REMARK  Name = 53396311
REMARK  6 active torsions:
REMARK  status: ('A' for Active; 'I' for Inactive)
REMARK    1  A    between atoms: N_1  and  C_22
REMARK    2  A    between atoms: C_4  and  C_11
REMARK    3  A    between atoms: C_5  and  N_17
REMARK    4  A    between atoms: C_22  and  C_23
REMARK    5  A    between atoms: C_23  and  N_24
REMARK    6  A    between atoms: C_28  and  N_34
REMARK                            x       y       z     vdW  Elec       q    Type
REMARK                         _______ _______ _______ _____ _____    ______ ____
ROOT
ATOM      1  N   UNL     1     -36.270  21.486   3.846  0.00  0.00    -0.266 N 
ATOM      2  N   UNL     1     -34.781  20.458   2.354  0.00  0.00    -0.336 NA
ATOM      3  N   UNL     1     -37.131  20.617   1.844  0.00  0.00    -0.169 NA
ATOM      4  C   UNL     1     -34.606  19.824   1.176  0.00  0.00    +0.160 C 
ATOM      5  C   UNL     1     -35.630  19.554   0.291  0.00  0.00    +0.108 C 
ATOM      6  C   UNL     1     -36.050  20.821   2.621  0.00  0.00    +0.145 C 
ATOM      7  C   UNL     1     -36.884  19.978   0.681  0.00  0.00    +0.129 C 
ATOM      8  H   UNL     1     -37.187  21.765   4.073  0.00  0.00    +0.159 HD
ENDROOT
BRANCH   4  11
ATOM      9 CL   UNL     1     -32.843  21.833  -0.363  0.00  0.00    -0.082 Cl
ATOM     10 CL   UNL     1     -28.981  18.132   0.162  0.00  0.00    -0.082 Cl
ATOM     11  C   UNL     1     -33.231  19.442   0.912  0.00  0.00    +0.042 C 
ATOM     12  C   UNL     1     -32.355  20.282   0.224  0.00  0.00    +0.061 C 
ATOM     13  C   UNL     1     -32.793  18.199   1.368  0.00  0.00    +0.004 C 
ATOM     14  C   UNL     1     -31.040  19.876  -0.008  0.00  0.00    +0.023 C 
ATOM     15  C   UNL     1     -31.479  17.794   1.136  0.00  0.00    +0.012 C 
ATOM     16  C   UNL     1     -30.603  18.633   0.448  0.00  0.00    +0.059 C 
ENDBRANCH   4  11
BRANCH   5  17
ATOM     17  N   UNL     1     -35.447  18.903  -0.914  0.00  0.00    -0.242 N 
ATOM     18  N   UNL     1     -35.297  17.242  -2.380  0.00  0.00    -0.224 NA
ATOM     19  C   UNL     1     -35.159  19.490  -2.115  0.00  0.00    +0.092 C 
ATOM     20  C   UNL     1     -35.519  17.555  -1.123  0.00  0.00    +0.172 C 
ATOM     21  C   UNL     1     -35.071  18.444  -3.004  0.00  0.00    +0.117 C 
ENDBRANCH   5  17
BRANCH   1  22
ATOM     22  C   UNL     1     -35.220  21.772   4.773  0.00  0.00    +0.119 C 
BRANCH  22  23
ATOM     23  C   UNL     1     -35.570  22.990   5.615  0.00  0.00    +0.111 C 
BRANCH  23  24
ATOM     24  N   UNL     1     -36.138  24.034   4.791  0.00  0.00    -0.307 N 
ATOM     25  N   UNL     1     -36.077  26.085   3.636  0.00  0.00    -0.375 NA
ATOM     26  C   UNL     1     -35.447  25.172   4.409  0.00  0.00    +0.181 C 
ATOM     27  C   UNL     1     -34.141  25.300   4.852  0.00  0.00    +0.045 C 
ATOM     28  C   UNL     1     -34.049  27.400   3.683  0.00  0.00    +0.254 C 
ATOM     29  C   UNL     1     -33.436  26.438   4.477  0.00  0.00    +0.015 C 
ATOM     30  C   UNL     1     -35.360  27.179   3.293  0.00  0.00    +0.187 C 
ATOM     31  H   UNL     1     -37.068  23.930   4.484  0.00  0.00    +0.149 HD
ATOM     32  N   UNL     1     -35.999  28.152   2.484  0.00  0.00    -0.334 N 
ATOM     33  H   UNL     1     -36.930  28.018   2.194  0.00  0.00    +0.144 HD
ATOM     34  H   UNL     1     -35.511  28.964   2.212  0.00  0.00    +0.144 HD
BRANCH  28  37
ATOM     35  O   UNL     1     -32.695  28.556   2.217  0.00  0.00    -0.130 OA
ATOM     36  O   UNL     1     -33.334  29.560   4.062  0.00  0.00    -0.130 OA
ATOM     37  N   UNL     1     -33.324  28.562   3.302  0.00  0.00    +0.045 N 
ENDBRANCH  28  37
ENDBRANCH  23  24
ENDBRANCH  22  23
ENDBRANCH   1  22
TORSDOF 6
ENDMDL
MODEL 3
REMARK VINA RESULT:      -7.4      0.925      1.533
REMARK  Name = 53396311
REMARK  6 active torsions:
REMARK  status: ('A' for Active; 'I' for Inactive)
REMARK    1  A    between atoms: N_1  and  C_22
REMARK    2  A    between atoms: C_4  and  C_11
REMARK    3  A    between atoms: C_5  and  N_17
REMARK    4  A    between atoms: C_22  and  C_23
REMARK    5  A    between atoms: C_23  and  N_24
REMARK    6  A    between atoms: C_28  and  N_34
REMARK                            x       y       z     vdW  Elec       q    Type
REMARK                         _______ _______ _______ _____ _____    ______ ____
ROOT
ATOM      1  N   UNL     1     -36.728  22.903   4.022  0.00  0.00    -0.266 N 
ATOM      2  N   UNL     1     -35.469  21.595   2.538  0.00  0.00    -0.336 NA
ATOM      3  N   UNL     1     -37.860  21.778   2.303  0.00  0.00    -0.169 NA
ATOM      4  C   UNL     1     -35.463  20.780   1.462  0.00  0.00    +0.160 C 
ATOM      5  C   UNL     1     -36.599  20.424   0.764  0.00  0.00    +0.108 C 
ATOM      6  C   UNL     1     -36.684  22.050   2.899  0.00  0.00    +0.145 C 
ATOM      7  C   UNL     1     -37.781  20.958   1.235  0.00  0.00    +0.129 C 
ATOM      8  H   UNL     1     -37.601  23.254   4.314  0.00  0.00    +0.159 HD
ENDROOT
BRANCH   4  11
ATOM      9 CL   UNL     1     -33.777  22.559  -0.411  0.00  0.00    -0.082 Cl
ATOM     10 CL   UNL     1     -30.063  18.701   0.032  0.00  0.00    -0.082 Cl
ATOM     11  C   UNL     1     -34.143  20.303   1.094  0.00  0.00    +0.042 C 
ATOM     12  C   UNL     1     -33.305  21.034   0.252  0.00  0.00    +0.061 C 
ATOM     13  C   UNL     1     -33.719  19.077   1.607  0.00  0.00    +0.004 C 
ATOM     14  C   UNL     1     -32.043  20.539  -0.076  0.00  0.00    +0.023 C 
ATOM     15  C   UNL     1     -32.458  18.581   1.278  0.00  0.00    +0.012 C 
ATOM     16  C   UNL     1     -31.620  19.313   0.437  0.00  0.00    +0.059 C 
ENDBRANCH   4  11
BRANCH   5  17
ATOM     17  N   UNL     1     -36.588  19.589  -0.337  0.00  0.00    -0.242 N 
ATOM     18  N   UNL     1     -36.413  18.937  -2.452  0.00  0.00    -0.224 NA
ATOM     19  C   UNL     1     -36.807  18.240  -0.331  0.00  0.00    +0.092 C 
ATOM     20  C   UNL     1     -36.356  19.961  -1.631  0.00  0.00    +0.172 C 
ATOM     21  C   UNL     1     -36.694  17.861  -1.649  0.00  0.00    +0.117 C 
ENDBRANCH   5  17
BRANCH   1  22
ATOM     22  C   UNL     1     -35.560  23.282   4.755  0.00  0.00    +0.119 C 
BRANCH  22  23
ATOM     23  C   UNL     1     -35.104  24.675   4.348  0.00  0.00    +0.111 C 
BRANCH  23  24
ATOM     24  N   UNL     1     -34.402  25.320   5.435  0.00  0.00    -0.307 N 
ATOM     25  N   UNL     1     -33.005  26.972   6.365  0.00  0.00    -0.375 NA
ATOM     26  C   UNL     1     -33.619  26.452   5.278  0.00  0.00    +0.181 C 
ATOM     27  C   UNL     1     -33.515  26.980   4.002  0.00  0.00    +0.045 C 
ATOM     28  C   UNL     1     -32.085  28.680   4.923  0.00  0.00    +0.254 C 
ATOM     29  C   UNL     1     -32.732  28.116   3.830  0.00  0.00    +0.015 C 
ATOM     30  C   UNL     1     -32.251  28.075   6.159  0.00  0.00    +0.187 C 
ATOM     31  H   UNL     1     -34.483  24.933   6.336  0.00  0.00    +0.149 HD
ATOM     32  N   UNL     1     -31.596  28.639   7.282  0.00  0.00    -0.334 N 
ATOM     33  H   UNL     1     -31.699  28.227   8.171  0.00  0.00    +0.144 HD
ATOM     34  H   UNL     1     -31.037  29.443   7.174  0.00  0.00    +0.144 HD
BRANCH  28  37
ATOM     35  O   UNL     1     -30.345  29.809   3.914  0.00  0.00    -0.130 OA
ATOM     36  O   UNL     1     -31.543  30.867   5.418  0.00  0.00    -0.130 OA
ATOM     37  N   UNL     1     -31.285  29.842   4.743  0.00  0.00    +0.045 N 
ENDBRANCH  28  37
ENDBRANCH  23  24
ENDBRANCH  22  23
ENDBRANCH   1  22
TORSDOF 6
ENDMDL
MODEL 4
REMARK VINA RESULT:      -7.3      3.502      4.093
REMARK  Name = 53396311
REMARK  6 active torsions:
REMARK  status: ('A' for Active; 'I' for Inactive)
REMARK    1  A    between atoms: N_1  and  C_22
REMARK    2  A    between atoms: C_4  and  C_11
REMARK    3  A    between atoms: C_5  and  N_17
REMARK    4  A    between atoms: C_22  and  C_23
REMARK    5  A    between atoms: C_23  and  N_24
REMARK    6  A    between atoms: C_28  and  N_34
REMARK                            x       y       z     vdW  Elec       q    Type
REMARK                         _______ _______ _______ _____ _____    ______ ____
ROOT
ATOM      1  N   UNL     1     -35.987  21.178   3.867  0.00  0.00    -0.266 N 
ATOM      2  N   UNL     1     -34.482  20.239   2.332  0.00  0.00    -0.336 NA
ATOM      3  N   UNL     1     -36.839  20.355   1.842  0.00  0.00    -0.169 NA
ATOM      4  C   UNL     1     -34.300  19.648   1.133  0.00  0.00    +0.160 C 
ATOM      5  C   UNL     1     -35.323  19.382   0.245  0.00  0.00    +0.108 C 
ATOM      6  C   UNL     1     -35.758  20.560   2.618  0.00  0.00    +0.145 C 
ATOM      7  C   UNL     1     -36.584  19.762   0.657  0.00  0.00    +0.129 C 
ATOM      8  H   UNL     1     -36.909  21.427   4.108  0.00  0.00    +0.159 HD
ENDROOT
BRANCH   4  11
ATOM      9 CL   UNL     1     -32.612  21.730  -0.394  0.00  0.00    -0.082 Cl
ATOM     10 CL   UNL     1     -28.641  18.134   0.033  0.00  0.00    -0.082 Cl
ATOM     11  C   UNL     1     -32.918  19.310   0.848  0.00  0.00    +0.042 C 
ATOM     12  C   UNL     1     -32.073  20.185   0.164  0.00  0.00    +0.061 C 
ATOM     13  C   UNL     1     -32.439  18.073   1.281  0.00  0.00    +0.004 C 
ATOM     14  C   UNL     1     -30.750  19.820  -0.088  0.00  0.00    +0.023 C 
ATOM     15  C   UNL     1     -31.117  17.709   1.028  0.00  0.00    +0.012 C 
ATOM     16  C   UNL     1     -30.272  18.584   0.344  0.00  0.00    +0.059 C 
ENDBRANCH   4  11
BRANCH   5  17
ATOM     17  N   UNL     1     -35.131  18.776  -0.982  0.00  0.00    -0.242 N 
ATOM     18  N   UNL     1     -34.756  18.560  -3.159  0.00  0.00    -0.224 NA
ATOM     19  C   UNL     1     -35.142  17.432  -1.231  0.00  0.00    +0.092 C 
ATOM     20  C   UNL     1     -34.896  19.412  -2.169  0.00  0.00    +0.172 C 
ATOM     21  C   UNL     1     -34.908  17.325  -2.582  0.00  0.00    +0.117 C 
ENDBRANCH   5  17
BRANCH   1  22
ATOM     22  C   UNL     1     -34.938  21.461   4.796  0.00  0.00    +0.119 C 
BRANCH  22  23
ATOM     23  C   UNL     1     -34.998  22.914   5.242  0.00  0.00    +0.111 C 
BRANCH  23  24
ATOM     24  N   UNL     1     -36.338  23.438   5.095  0.00  0.00    -0.307 N 
ATOM     25  N   UNL     1     -37.977  24.800   4.095  0.00  0.00    -0.375 NA
ATOM     26  C   UNL     1     -36.694  24.379   4.142  0.00  0.00    +0.181 C 
ATOM     27  C   UNL     1     -35.697  24.831   3.294  0.00  0.00    +0.045 C 
ATOM     28  C   UNL     1     -37.350  26.235   2.253  0.00  0.00    +0.254 C 
ATOM     29  C   UNL     1     -36.039  25.777   2.334  0.00  0.00    +0.015 C 
ATOM     30  C   UNL     1     -38.273  25.720   3.149  0.00  0.00    +0.187 C 
ATOM     31  H   UNL     1     -37.035  23.108   5.705  0.00  0.00    +0.149 HD
ATOM     32  N   UNL     1     -39.612  26.180   3.079  0.00  0.00    -0.334 N 
ATOM     33  H   UNL     1     -40.287  25.829   3.705  0.00  0.00    +0.144 HD
ATOM     34  H   UNL     1     -39.868  26.850   2.404  0.00  0.00    +0.144 HD
BRANCH  28  37
ATOM     35  O   UNL     1     -38.550  26.904   0.401  0.00  0.00    -0.130 OA
ATOM     36  O   UNL     1     -37.136  28.324   1.298  0.00  0.00    -0.130 OA
ATOM     37  N   UNL     1     -37.696  27.202   1.270  0.00  0.00    +0.045 N 
ENDBRANCH  28  37
ENDBRANCH  23  24
ENDBRANCH  22  23
ENDBRANCH   1  22
TORSDOF 6
ENDMDL
MODEL 5
REMARK VINA RESULT:      -7.2      6.989      9.099
REMARK  Name = 53396311
REMARK  6 active torsions:
REMARK  status: ('A' for Active; 'I' for Inactive)
REMARK    1  A    between atoms: N_1  and  C_22
REMARK    2  A    between atoms: C_4  and  C_11
REMARK    3  A    between atoms: C_5  and  N_17
REMARK    4  A    between atoms: C_22  and  C_23
REMARK    5  A    between atoms: C_23  and  N_24
REMARK    6  A    between atoms: C_28  and  N_34
REMARK                            x       y       z     vdW  Elec       q    Type
REMARK                         _______ _______ _______ _____ _____    ______ ____
ROOT
ATOM      1  N   UNL     1     -40.024  26.563   1.451  0.00  0.00    -0.266 N 
ATOM      2  N   UNL     1     -38.160  25.558   2.459  0.00  0.00    -0.336 NA
ATOM      3  N   UNL     1     -37.923  27.558   1.134  0.00  0.00    -0.169 NA
ATOM      4  C   UNL     1     -36.828  25.584   2.670  0.00  0.00    +0.160 C 
ATOM      5  C   UNL     1     -35.989  26.550   2.153  0.00  0.00    +0.108 C 
ATOM      6  C   UNL     1     -38.634  26.560   1.693  0.00  0.00    +0.145 C 
ATOM      7  C   UNL     1     -36.598  27.522   1.386  0.00  0.00    +0.129 C 
ATOM      8  H   UNL     1     -40.404  27.282   0.894  0.00  0.00    +0.159 HD
ENDROOT
BRANCH   4  11
ATOM      9 CL   UNL     1     -36.280  26.190   5.644  0.00  0.00    -0.082 Cl
ATOM     10 CL   UNL     1     -34.840  21.021   5.949  0.00  0.00    -0.082 Cl
ATOM     11  C   UNL     1     -36.342  24.495   3.496  0.00  0.00    +0.042 C 
ATOM     12  C   UNL     1     -36.065  24.668   4.852  0.00  0.00    +0.061 C 
ATOM     13  C   UNL     1     -36.156  23.248   2.899  0.00  0.00    +0.004 C 
ATOM     14  C   UNL     1     -35.601  23.593   5.611  0.00  0.00    +0.023 C 
ATOM     15  C   UNL     1     -35.691  22.174   3.658  0.00  0.00    +0.012 C 
ATOM     16  C   UNL     1     -35.414  22.347   5.014  0.00  0.00    +0.059 C 
ENDBRANCH   4  11
BRANCH   5  17
ATOM     17  N   UNL     1     -34.624  26.572   2.371  0.00  0.00    -0.242 N 
ATOM     18  N   UNL     1     -32.667  27.132   3.258  0.00  0.00    -0.224 NA
ATOM     19  C   UNL     1     -33.687  25.834   1.703  0.00  0.00    +0.092 C 
ATOM     20  C   UNL     1     -33.965  27.335   3.293  0.00  0.00    +0.172 C 
ATOM     21  C   UNL     1     -32.487  26.198   2.269  0.00  0.00    +0.117 C 
ENDBRANCH   5  17
BRANCH   1  22
ATOM     22  C   UNL     1     -40.907  25.570   1.978  0.00  0.00    +0.119 C 
BRANCH  22  23
ATOM     23  C   UNL     1     -42.211  26.206   2.435  0.00  0.00    +0.111 C 
BRANCH  23  24
ATOM     24  N   UNL     1     -41.953  27.357   3.270  0.00  0.00    -0.307 N 
ATOM     25  N   UNL     1     -42.559  29.027   4.816  0.00  0.00    -0.375 NA
ATOM     26  C   UNL     1     -42.911  27.952   4.075  0.00  0.00    +0.181 C 
ATOM     27  C   UNL     1     -44.180  27.399   4.065  0.00  0.00    +0.045 C 
ATOM     28  C   UNL     1     -44.829  29.094   5.644  0.00  0.00    +0.254 C 
ATOM     29  C   UNL     1     -45.152  27.987   4.868  0.00  0.00    +0.015 C 
ATOM     30  C   UNL     1     -43.530  29.572   5.582  0.00  0.00    +0.187 C 
ATOM     31  H   UNL     1     -41.047  27.740   3.266  0.00  0.00    +0.149 HD
ATOM     32  N   UNL     1     -43.187  30.701   6.368  0.00  0.00    -0.334 N 
ATOM     33  H   UNL     1     -42.270  31.060   6.341  0.00  0.00    +0.144 HD
ATOM     34  H   UNL     1     -43.866  31.128   6.940  0.00  0.00    +0.144 HD
BRANCH  28  37
ATOM     35  O   UNL     1     -45.709  29.620   7.710  0.00  0.00    -0.130 OA
ATOM     36  O   UNL     1     -46.794  30.271   5.916  0.00  0.00    -0.130 OA
ATOM     37  N   UNL     1     -45.826  29.691   6.463  0.00  0.00    +0.045 N 
ENDBRANCH  28  37
ENDBRANCH  23  24
ENDBRANCH  22  23
ENDBRANCH   1  22
TORSDOF 6
ENDMDL
MODEL 6
REMARK VINA RESULT:      -7.1      4.487      8.194
REMARK  Name = 53396311
REMARK  6 active torsions:
REMARK  status: ('A' for Active; 'I' for Inactive)
REMARK    1  A    between atoms: N_1  and  C_22
REMARK    2  A    between atoms: C_4  and  C_11
REMARK    3  A    between atoms: C_5  and  N_17
REMARK    4  A    between atoms: C_22  and  C_23
REMARK    5  A    between atoms: C_23  and  N_24
REMARK    6  A    between atoms: C_28  and  N_34
REMARK                            x       y       z     vdW  Elec       q    Type
REMARK                         _______ _______ _______ _____ _____    ______ ____
ROOT
ATOM      1  N   UNL     1     -39.974  26.409   1.389  0.00  0.00    -0.266 N 
ATOM      2  N   UNL     1     -38.100  25.471   2.443  0.00  0.00    -0.336 NA
ATOM      3  N   UNL     1     -37.889  27.434   1.060  0.00  0.00    -0.169 NA
ATOM      4  C   UNL     1     -36.770  25.529   2.663  0.00  0.00    +0.160 C 
ATOM      5  C   UNL     1     -35.945  26.495   2.125  0.00  0.00    +0.108 C 
ATOM      6  C   UNL     1     -38.586  26.440   1.643  0.00  0.00    +0.145 C 
ATOM      7  C   UNL     1     -36.566  27.432   1.323  0.00  0.00    +0.129 C 
ATOM      8  H   UNL     1     -40.362  27.103   0.808  0.00  0.00    +0.159 HD
ENDROOT
BRANCH   4  11
ATOM      9 CL   UNL     1     -36.301  26.223   5.632  0.00  0.00    -0.082 Cl
ATOM     10 CL   UNL     1     -34.722  21.107   6.095  0.00  0.00    -0.082 Cl
ATOM     11  C   UNL     1     -36.271  24.475   3.526  0.00  0.00    +0.042 C 
ATOM     12  C   UNL     1     -36.027  24.689   4.883  0.00  0.00    +0.061 C 
ATOM     13  C   UNL     1     -36.037  23.219   2.964  0.00  0.00    +0.004 C 
ATOM     14  C   UNL     1     -35.548  23.647   5.677  0.00  0.00    +0.023 C 
ATOM     15  C   UNL     1     -35.557  22.178   3.758  0.00  0.00    +0.012 C 
ATOM     16  C   UNL     1     -35.313  22.392   5.115  0.00  0.00    +0.059 C 
ENDBRANCH   4  11
BRANCH   5  17
ATOM     17  N   UNL     1     -34.583  26.550   2.353  0.00  0.00    -0.242 N 
ATOM     18  N   UNL     1     -32.644  27.182   3.231  0.00  0.00    -0.224 NA
ATOM     19  C   UNL     1     -33.627  25.800   1.726  0.00  0.00    +0.092 C 
ATOM     20  C   UNL     1     -33.946  27.364   3.246  0.00  0.00    +0.172 C 
ATOM     21  C   UNL     1     -32.439  26.209   2.285  0.00  0.00    +0.117 C 
ENDBRANCH   5  17
BRANCH   1  22
ATOM     22  C   UNL     1     -40.842  25.415   1.939  0.00  0.00    +0.119 C 
BRANCH  22  23
ATOM     23  C   UNL     1     -40.977  24.238   0.984  0.00  0.00    +0.111 C 
BRANCH  23  24
ATOM     24  N   UNL     1     -40.345  23.060   1.535  0.00  0.00    -0.307 N 
ATOM     25  N   UNL     1     -38.729  21.348   1.570  0.00  0.00    -0.375 NA
ATOM     26  C   UNL     1     -39.238  22.448   0.971  0.00  0.00    +0.181 C 
ATOM     27  C   UNL     1     -38.722  23.011  -0.185  0.00  0.00    +0.045 C 
ATOM     28  C   UNL     1     -37.059  21.273  -0.176  0.00  0.00    +0.254 C 
ATOM     29  C   UNL     1     -37.611  22.406  -0.763  0.00  0.00    +0.015 C 
ATOM     30  C   UNL     1     -37.650  20.787   0.979  0.00  0.00    +0.187 C 
ATOM     31  H   UNL     1     -40.724  22.670   2.355  0.00  0.00    +0.149 HD
ATOM     32  N   UNL     1     -37.098  19.632   1.587  0.00  0.00    -0.334 N 
ATOM     33  H   UNL     1     -37.500  19.268   2.409  0.00  0.00    +0.144 HD
ATOM     34  H   UNL     1     -36.312  19.193   1.188  0.00  0.00    +0.144 HD
BRANCH  28  37
ATOM     35  O   UNL     1     -36.045  19.519  -1.278  0.00  0.00    -0.130 OA
ATOM     36  O   UNL     1     -34.830  21.275  -0.769  0.00  0.00    -0.130 OA
ATOM     37  N   UNL     1     -35.923  20.659  -0.770  0.00  0.00    +0.045 N 
ENDBRANCH  28  37
ENDBRANCH  23  24
ENDBRANCH  22  23
ENDBRANCH   1  22
TORSDOF 6
ENDMDL
MODEL 7
REMARK VINA RESULT:      -6.9      1.981      2.691
REMARK  Name = 53396311
REMARK  6 active torsions:
REMARK  status: ('A' for Active; 'I' for Inactive)
REMARK    1  A    between atoms: N_1  and  C_22
REMARK    2  A    between atoms: C_4  and  C_11
REMARK    3  A    between atoms: C_5  and  N_17
REMARK    4  A    between atoms: C_22  and  C_23
REMARK    5  A    between atoms: C_23  and  N_24
REMARK    6  A    between atoms: C_28  and  N_34
REMARK                            x       y       z     vdW  Elec       q    Type
REMARK                         _______ _______ _______ _____ _____    ______ ____
ROOT
ATOM      1  N   UNL     1     -36.999  25.028   4.838  0.00  0.00    -0.266 N 
ATOM      2  N   UNL     1     -36.290  23.454   3.251  0.00  0.00    -0.336 NA
ATOM      3  N   UNL     1     -38.550  24.291   3.239  0.00  0.00    -0.169 NA
ATOM      4  C   UNL     1     -36.606  22.690   2.184  0.00  0.00    +0.160 C 
ATOM      5  C   UNL     1     -37.855  22.674   1.597  0.00  0.00    +0.108 C 
ATOM      6  C   UNL     1     -37.294  24.217   3.721  0.00  0.00    +0.145 C 
ATOM      7  C   UNL     1     -38.797  23.502   2.172  0.00  0.00    +0.129 C 
ATOM      8  H   UNL     1     -37.712  25.599   5.207  0.00  0.00    +0.159 HD
ENDROOT
BRANCH   4  11
ATOM      9 CL   UNL     1     -34.742  23.936   0.066  0.00  0.00    -0.082 Cl
ATOM     10 CL   UNL     1     -32.137  19.239   0.274  0.00  0.00    -0.082 Cl
ATOM     11  C   UNL     1     -35.509  21.876   1.697  0.00  0.00    +0.042 C 
ATOM     12  C   UNL     1     -34.610  22.349   0.740  0.00  0.00    +0.061 C 
ATOM     13  C   UNL     1     -35.363  20.589   2.214  0.00  0.00    +0.004 C 
ATOM     14  C   UNL     1     -33.568  21.533   0.299  0.00  0.00    +0.023 C 
ATOM     15  C   UNL     1     -34.321  19.774   1.774  0.00  0.00    +0.012 C 
ATOM     16  C   UNL     1     -33.423  20.247   0.816  0.00  0.00    +0.059 C 
ENDBRANCH   4  11
BRANCH   5  17
ATOM     17  N   UNL     1     -38.175  21.890   0.505  0.00  0.00    -0.242 N 
ATOM     18  N   UNL     1     -38.904  20.149  -0.665  0.00  0.00    -0.224 NA
ATOM     19  C   UNL     1     -38.009  22.227  -0.810  0.00  0.00    +0.092 C 
ATOM     20  C   UNL     1     -38.715  20.635   0.541  0.00  0.00    +0.172 C 
ATOM     21  C   UNL     1     -38.467  21.136  -1.512  0.00  0.00    +0.117 C 
ENDBRANCH   5  17
BRANCH   1  22
ATOM     22  C   UNL     1     -35.711  25.057   5.457  0.00  0.00    +0.119 C 
BRANCH  22  23
ATOM     23  C   UNL     1     -34.903  26.242   4.951  0.00  0.00    +0.111 C 
BRANCH  23  24
ATOM     24  N   UNL     1     -33.816  26.543   5.855  0.00  0.00    -0.307 N 
ATOM     25  N   UNL     1     -31.817  27.622   6.474  0.00  0.00    -0.375 NA
ATOM     26  C   UNL     1     -32.783  27.415   5.552  0.00  0.00    +0.181 C 
ATOM     27  C   UNL     1     -32.811  28.022   4.307  0.00  0.00    +0.045 C 
ATOM     28  C   UNL     1     -30.767  29.137   4.910  0.00  0.00    +0.254 C 
ATOM     29  C   UNL     1     -31.780  28.898   3.988  0.00  0.00    +0.015 C 
ATOM     30  C   UNL     1     -30.831  28.480   6.128  0.00  0.00    +0.187 C 
ATOM     31  H   UNL     1     -33.809  26.103   6.736  0.00  0.00    +0.149 HD
ATOM     32  N   UNL     1     -29.804  28.713   7.077  0.00  0.00    -0.334 N 
ATOM     33  H   UNL     1     -29.827  28.257   7.950  0.00  0.00    +0.144 HD
ATOM     34  H   UNL     1     -29.067  29.331   6.864  0.00  0.00    +0.144 HD
BRANCH  28  37
ATOM     35  O   UNL     1     -28.696  29.589   4.002  0.00  0.00    -0.130 OA
ATOM     36  O   UNL     1     -29.837  31.248   4.876  0.00  0.00    -0.130 OA
ATOM     37  N   UNL     1     -29.715  30.035   4.580  0.00  0.00    +0.045 N 
ENDBRANCH  28  37
ENDBRANCH  23  24
ENDBRANCH  22  23
ENDBRANCH   1  22
TORSDOF 6
ENDMDL
MODEL 8
REMARK VINA RESULT:      -6.9      6.973      8.695
REMARK  Name = 53396311
REMARK  6 active torsions:
REMARK  status: ('A' for Active; 'I' for Inactive)
REMARK    1  A    between atoms: N_1  and  C_22
REMARK    2  A    between atoms: C_4  and  C_11
REMARK    3  A    between atoms: C_5  and  N_17
REMARK    4  A    between atoms: C_22  and  C_23
REMARK    5  A    between atoms: C_23  and  N_24
REMARK    6  A    between atoms: C_28  and  N_34
REMARK                            x       y       z     vdW  Elec       q    Type
REMARK                         _______ _______ _______ _____ _____    ______ ____
ROOT
ATOM      1  N   UNL     1     -41.278  25.034   1.766  0.00  0.00    -0.266 N 
ATOM      2  N   UNL     1     -39.047  24.886   2.473  0.00  0.00    -0.336 NA
ATOM      3  N   UNL     1     -40.243  22.929   1.734  0.00  0.00    -0.169 NA
ATOM      4  C   UNL     1     -37.971  24.101   2.689  0.00  0.00    +0.160 C 
ATOM      5  C   UNL     1     -37.954  22.741   2.454  0.00  0.00    +0.108 C 
ATOM      6  C   UNL     1     -40.133  24.244   2.003  0.00  0.00    +0.145 C 
ATOM      7  C   UNL     1     -39.130  22.204   1.972  0.00  0.00    +0.129 C 
ATOM      8  H   UNL     1     -42.091  24.595   1.422  0.00  0.00    +0.159 HD
ENDROOT
BRANCH   4  11
ATOM      9 CL   UNL     1     -35.722  24.771   0.687  0.00  0.00    -0.082 Cl
ATOM     10 CL   UNL     1     -33.282  27.040   4.904  0.00  0.00    -0.082 Cl
ATOM     11  C   UNL     1     -36.815  24.815   3.196  0.00  0.00    +0.042 C 
ATOM     12  C   UNL     1     -35.745  25.165   2.370  0.00  0.00    +0.061 C 
ATOM     13  C   UNL     1     -36.791  25.155   4.549  0.00  0.00    +0.004 C 
ATOM     14  C   UNL     1     -34.653  25.853   2.899  0.00  0.00    +0.023 C 
ATOM     15  C   UNL     1     -35.699  25.842   5.077  0.00  0.00    +0.012 C 
ATOM     16  C   UNL     1     -34.630  26.192   4.251  0.00  0.00    +0.059 C 
ENDBRANCH   4  11
BRANCH   5  17
ATOM     17  N   UNL     1     -36.850  21.941   2.678  0.00  0.00    -0.242 N 
ATOM     18  N   UNL     1     -35.201  20.927   3.766  0.00  0.00    -0.224 NA
ATOM     19  C   UNL     1     -36.182  21.203   1.741  0.00  0.00    +0.092 C 
ATOM     20  C   UNL     1     -36.224  21.744   3.877  0.00  0.00    +0.172 C 
ATOM     21  C   UNL     1     -35.169  20.586   2.438  0.00  0.00    +0.117 C 
ENDBRANCH   5  17
BRANCH   1  22
ATOM     22  C   UNL     1     -41.312  26.443   2.004  0.00  0.00    +0.119 C 
BRANCH  22  23
ATOM     23  C   UNL     1     -42.565  26.823   2.778  0.00  0.00    +0.111 C 
BRANCH  23  24
ATOM     24  N   UNL     1     -42.330  28.001   3.582  0.00  0.00    -0.307 N 
ATOM     25  N   UNL     1     -42.901  29.589   5.224  0.00  0.00    -0.375 NA
ATOM     26  C   UNL     1     -43.224  28.476   4.529  0.00  0.00    +0.181 C 
ATOM     27  C   UNL     1     -44.402  27.769   4.698  0.00  0.00    +0.045 C 
ATOM     28  C   UNL     1     -45.014  29.376   6.380  0.00  0.00    +0.254 C 
ATOM     29  C   UNL     1     -45.310  28.234   5.644  0.00  0.00    +0.015 C 
ATOM     30  C   UNL     1     -43.808  30.012   6.134  0.00  0.00    +0.187 C 
ATOM     31  H   UNL     1     -41.489  28.494   3.450  0.00  0.00    +0.149 HD
ATOM     32  N   UNL     1     -43.495  31.179   6.876  0.00  0.00    -0.334 N 
ATOM     33  H   UNL     1     -42.643  31.648   6.720  0.00  0.00    +0.144 HD
ATOM     34  H   UNL     1     -44.129  31.520   7.549  0.00  0.00    +0.144 HD
BRANCH  28  37
ATOM     35  O   UNL     1     -45.849  29.442   8.529  0.00  0.00    -0.130 OA
ATOM     36  O   UNL     1     -46.834  30.656   6.988  0.00  0.00    -0.130 OA
ATOM     37  N   UNL     1     -45.944  29.848   7.346  0.00  0.00    +0.045 N 
ENDBRANCH  28  37
ENDBRANCH  23  24
ENDBRANCH  22  23
ENDBRANCH   1  22
TORSDOF 6
ENDMDL
MODEL 9
REMARK VINA RESULT:      -6.8      2.448      4.010
REMARK  Name = 53396311
REMARK  6 active torsions:
REMARK  status: ('A' for Active; 'I' for Inactive)
REMARK    1  A    between atoms: N_1  and  C_22
REMARK    2  A    between atoms: C_4  and  C_11
REMARK    3  A    between atoms: C_5  and  N_17
REMARK    4  A    between atoms: C_22  and  C_23
REMARK    5  A    between atoms: C_23  and  N_24
REMARK    6  A    between atoms: C_28  and  N_34
REMARK                            x       y       z     vdW  Elec       q    Type
REMARK                         _______ _______ _______ _____ _____    ______ ____
ROOT
ATOM      1  N   UNL     1     -37.628  19.947   0.844  0.00  0.00    -0.266 N 
ATOM      2  N   UNL     1     -35.444  19.608   0.059  0.00  0.00    -0.336 NA
ATOM      3  N   UNL     1     -37.114  17.883  -0.146  0.00  0.00    -0.169 NA
ATOM      4  C   UNL     1     -34.565  18.775  -0.537  0.00  0.00    +0.160 C 
ATOM      5  C   UNL     1     -34.882  17.500  -0.960  0.00  0.00    +0.108 C 
ATOM      6  C   UNL     1     -36.682  19.104   0.222  0.00  0.00    +0.145 C 
ATOM      7  C   UNL     1     -36.184  17.104  -0.736  0.00  0.00    +0.129 C 
ATOM      8  H   UNL     1     -38.544  19.610   0.978  0.00  0.00    +0.159 HD
ENDROOT
BRANCH   4  11
ATOM      9 CL   UNL     1     -32.467  18.124   1.629  0.00  0.00    -0.082 Cl
ATOM     10 CL   UNL     1     -29.157  21.154  -1.329  0.00  0.00    -0.082 Cl
ATOM     11  C   UNL     1     -33.238  19.340  -0.700  0.00  0.00    +0.042 C 
ATOM     12  C   UNL     1     -32.220  19.103   0.225  0.00  0.00    +0.061 C 
ATOM     13  C   UNL     1     -32.993  20.136  -1.819  0.00  0.00    +0.004 C 
ATOM     14  C   UNL     1     -30.958  19.665   0.031  0.00  0.00    +0.023 C 
ATOM     15  C   UNL     1     -31.732  20.697  -2.013  0.00  0.00    +0.012 C 
ATOM     16  C   UNL     1     -30.714  20.461  -1.088  0.00  0.00    +0.059 C 
ENDBRANCH   4  11
BRANCH   5  17
ATOM     17  N   UNL     1     -33.978  16.651  -1.569  0.00  0.00    -0.242 N 
ATOM     18  N   UNL     1     -32.459  15.048  -1.801  0.00  0.00    -0.224 NA
ATOM     19  C   UNL     1     -33.673  16.615  -2.901  0.00  0.00    +0.092 C 
ATOM     20  C   UNL     1     -33.225  15.693  -0.950  0.00  0.00    +0.172 C 
ATOM     21  C   UNL     1     -32.733  15.618  -3.018  0.00  0.00    +0.117 C 
ENDBRANCH   5  17
BRANCH   1  22
ATOM     22  C   UNL     1     -37.315  21.270   1.287  0.00  0.00    +0.119 C 
BRANCH  22  23
ATOM     23  C   UNL     1     -36.735  21.238   2.693  0.00  0.00    +0.111 C 
BRANCH  23  24
ATOM     24  N   UNL     1     -37.193  22.375   3.460  0.00  0.00    -0.307 N 
ATOM     25  N   UNL     1     -36.930  24.478   4.483  0.00  0.00    -0.375 NA
ATOM     26  C   UNL     1     -36.398  23.470   3.757  0.00  0.00    +0.181 C 
ATOM     27  C   UNL     1     -35.097  23.456   3.285  0.00  0.00    +0.045 C 
ATOM     28  C   UNL     1     -34.798  25.606   4.322  0.00  0.00    +0.254 C 
ATOM     29  C   UNL     1     -34.287  24.549   3.577  0.00  0.00    +0.015 C 
ATOM     30  C   UNL     1     -36.114  25.523   4.748  0.00  0.00    +0.187 C 
ATOM     31  H   UNL     1     -38.120  22.369   3.790  0.00  0.00    +0.149 HD
ATOM     32  N   UNL     1     -36.647  26.593   5.510  0.00  0.00    -0.334 N 
ATOM     33  H   UNL     1     -37.579  26.558   5.825  0.00  0.00    +0.144 HD
ATOM     34  H   UNL     1     -36.084  27.373   5.725  0.00  0.00    +0.144 HD
BRANCH  28  37
ATOM     35  O   UNL     1     -34.220  27.826   4.079  0.00  0.00    -0.130 OA
ATOM     36  O   UNL     1     -33.006  26.570   5.408  0.00  0.00    -0.130 OA
ATOM     37  N   UNL     1     -33.968  26.722   4.617  0.00  0.00    +0.045 N 
ENDBRANCH  28  37
ENDBRANCH  23  24
ENDBRANCH  22  23
ENDBRANCH   1  22
TORSDOF 6
ENDMDL
