MODEL 1
REMARK VINA RESULT:      -5.7      0.000      0.000
REMARK  Name = 196471
REMARK  9 active torsions:
REMARK  status: ('A' for Active; 'I' for Inactive)
REMARK    1  A    between atoms: C_2  and  O_18
REMARK    2  A    between atoms: C_3  and  O_20
REMARK    3  A    between atoms: C_4  and  C_22
REMARK    4  A    between atoms: C_5  and  N_7
REMARK    5  A    between atoms: C_12  and  O_16
REMARK    6  A    between atoms: C_22  and  O_23
REMARK    7  A    between atoms: O_23  and  P_24
REMARK    8  A    between atoms: P_24  and  O_26
REMARK    9  A    between atoms: P_24  and  O_28
REMARK                            x       y       z     vdW  Elec       q    Type
REMARK                         _______ _______ _______ _____ _____    ______ ____
ROOT
ATOM      1  O   UNL     1     -38.447  25.081   2.894  0.00  0.00    -0.332 OA
ATOM      2  C   UNL     1     -37.551  26.258   1.044  0.00  0.00    +0.171 C 
ATOM      3  C   UNL     1     -36.405  25.749   1.894  0.00  0.00    +0.188 C 
ATOM      4  C   UNL     1     -38.705  25.377   1.504  0.00  0.00    +0.176 C 
ATOM      5  C   UNL     1     -37.097  25.457   3.214  0.00  0.00    +0.236 C 
ENDROOT
BRANCH   5   7
ATOM      6  O   UNL     1     -36.017  25.719   5.762  0.00  0.00    -0.193 OA
ATOM      7  N   UNL     1     -36.474  24.386   3.936  0.00  0.00    -0.175 N 
ATOM      8  N   UNL     1     -35.350  23.555   5.904  0.00  0.00    -0.303 NA
ATOM      9  N   UNL     1     -34.661  21.360   6.082  0.00  0.00    -0.330 N 
ATOM     10  C   UNL     1     -36.378  23.123   3.371  0.00  0.00    +0.120 C 
ATOM     11  C   UNL     1     -35.947  24.608   5.233  0.00  0.00    +0.276 C 
ATOM     12  C   UNL     1     -35.807  22.094   4.002  0.00  0.00    +0.198 C 
ATOM     13  C   UNL     1     -35.266  22.367   5.363  0.00  0.00    +0.227 C 
ATOM     14  H   UNL     1     -34.305  21.543   6.981  0.00  0.00    +0.145 HD
ATOM     15  H   UNL     1     -34.586  20.457   5.698  0.00  0.00    +0.145 HD
BRANCH  12  16
ATOM     16  O   UNL     1     -35.723  20.850   3.424  0.00  0.00    -0.466 OA
ATOM     17  C   UNL     1     -35.160  20.930   2.127  0.00  0.00    +0.253 C 
ENDBRANCH  12  16
ENDBRANCH   5   7
BRANCH   2  18
ATOM     18  O   UNL     1     -37.862  27.607   1.389  0.00  0.00    -0.379 OA
ATOM     19  H   UNL     1     -38.015  27.668   2.345  0.00  0.00    +0.211 HD
ENDBRANCH   2  18
BRANCH   3  20
ATOM     20  O   UNL     1     -35.368  26.700   2.021  0.00  0.00    -0.378 OA
ATOM     21  H   UNL     1     -34.704  26.372   2.648  0.00  0.00    +0.211 HD
ENDBRANCH   3  20
BRANCH   4  22
ATOM     22  C   UNL     1     -38.796  24.060   0.747  0.00  0.00    +0.186 C 
BRANCH  22  23
ATOM     23  O   UNL     1     -39.457  23.111   1.566  0.00  0.00    -0.271 OA
BRANCH  23  24
ATOM     24  P   UNL     1     -39.435  21.556   1.118  0.00  0.00    +0.473 P 
ATOM     25  O   UNL     1     -40.773  20.979   0.761  0.00  0.00    -0.227 OA
BRANCH  24  26
ATOM     26  O   UNL     1     -38.666  20.817   2.334  0.00  0.00    -0.303 OA
ATOM     27  H   UNL     1     -37.807  20.491   2.024  0.00  0.00    +0.222 HD
ENDBRANCH  24  26
BRANCH  24  28
ATOM     28  O   UNL     1     -38.343  21.538  -0.076  0.00  0.00    -0.303 OA
ATOM     29  H   UNL     1     -38.729  21.118  -0.861  0.00  0.00    +0.222 HD
ENDBRANCH  24  28
ENDBRANCH  23  24
ENDBRANCH  22  23
ENDBRANCH   4  22
TORSDOF 9
ENDMDL
MODEL 2
REMARK VINA RESULT:      -5.7      2.379      4.924
REMARK  Name = 196471
REMARK  9 active torsions:
REMARK  status: ('A' for Active; 'I' for Inactive)
REMARK    1  A    between atoms: C_2  and  O_18
REMARK    2  A    between atoms: C_3  and  O_20
REMARK    3  A    between atoms: C_4  and  C_22
REMARK    4  A    between atoms: C_5  and  N_7
REMARK    5  A    between atoms: C_12  and  O_16
REMARK    6  A    between atoms: C_22  and  O_23
REMARK    7  A    between atoms: O_23  and  P_24
REMARK    8  A    between atoms: P_24  and  O_26
REMARK    9  A    between atoms: P_24  and  O_28
REMARK                            x       y       z     vdW  Elec       q    Type
REMARK                         _______ _______ _______ _____ _____    ______ ____
ROOT
ATOM      1  O   UNL     1     -35.521  24.272   2.925  0.00  0.00    -0.332 OA
ATOM      2  C   UNL     1     -35.232  24.541   5.261  0.00  0.00    +0.171 C 
ATOM      3  C   UNL     1     -36.461  25.316   4.833  0.00  0.00    +0.188 C 
ATOM      4  C   UNL     1     -35.043  23.576   4.098  0.00  0.00    +0.176 C 
ATOM      5  C   UNL     1     -36.249  25.441   3.335  0.00  0.00    +0.236 C 
ENDROOT
BRANCH   5   7
ATOM      6  O   UNL     1     -37.080  27.638   1.847  0.00  0.00    -0.193 OA
ATOM      7  N   UNL     1     -37.485  25.498   2.609  0.00  0.00    -0.175 N 
ATOM      8  N   UNL     1     -39.030  26.687   1.186  0.00  0.00    -0.303 NA
ATOM      9  N   UNL     1     -41.022  25.749   0.493  0.00  0.00    -0.330 N 
ATOM     10  C   UNL     1     -38.354  24.418   2.618  0.00  0.00    +0.120 C 
ATOM     11  C   UNL     1     -37.831  26.662   1.875  0.00  0.00    +0.276 C 
ATOM     12  C   UNL     1     -39.515  24.422   1.959  0.00  0.00    +0.198 C 
ATOM     13  C   UNL     1     -39.843  25.662   1.200  0.00  0.00    +0.227 C 
ATOM     14  H   UNL     1     -41.236  26.569  -0.008  0.00  0.00    +0.145 HD
ATOM     15  H   UNL     1     -41.650  24.991   0.488  0.00  0.00    +0.145 HD
BRANCH  12  16
ATOM     16  O   UNL     1     -40.362  23.340   1.982  0.00  0.00    -0.466 OA
ATOM     17  C   UNL     1     -39.635  22.126   1.949  0.00  0.00    +0.253 C 
ENDBRANCH  12  16
ENDBRANCH   5   7
BRANCH   2  18
ATOM     18  O   UNL     1     -34.095  25.401   5.308  0.00  0.00    -0.379 OA
ATOM     19  H   UNL     1     -34.195  26.029   6.041  0.00  0.00    +0.211 HD
ENDBRANCH   2  18
BRANCH   3  20
ATOM     20  O   UNL     1     -36.553  26.571   5.477  0.00  0.00    -0.378 OA
ATOM     21  H   UNL     1     -37.446  26.930   5.356  0.00  0.00    +0.211 HD
ENDBRANCH   3  20
BRANCH   4  22
ATOM     22  C   UNL     1     -35.843  22.290   4.246  0.00  0.00    +0.186 C 
BRANCH  22  23
ATOM     23  O   UNL     1     -35.084  21.220   3.711  0.00  0.00    -0.271 OA
BRANCH  23  24
ATOM     24  P   UNL     1     -35.538  20.583   2.294  0.00  0.00    +0.473 P 
ATOM     25  O   UNL     1     -34.483  19.779   1.592  0.00  0.00    -0.227 OA
BRANCH  24  26
ATOM     26  O   UNL     1     -36.105  21.851   1.467  0.00  0.00    -0.303 OA
ATOM     27  H   UNL     1     -36.511  22.483   2.081  0.00  0.00    +0.222 HD
ENDBRANCH  24  26
BRANCH  24  28
ATOM     28  O   UNL     1     -36.878  19.762   2.678  0.00  0.00    -0.303 OA
ATOM     29  H   UNL     1     -36.704  18.809   2.611  0.00  0.00    +0.222 HD
ENDBRANCH  24  28
ENDBRANCH  23  24
ENDBRANCH  22  23
ENDBRANCH   4  22
TORSDOF 9
ENDMDL
MODEL 3
REMARK VINA RESULT:      -5.6      2.318      3.719
REMARK  Name = 196471
REMARK  9 active torsions:
REMARK  status: ('A' for Active; 'I' for Inactive)
REMARK    1  A    between atoms: C_2  and  O_18
REMARK    2  A    between atoms: C_3  and  O_20
REMARK    3  A    between atoms: C_4  and  C_22
REMARK    4  A    between atoms: C_5  and  N_7
REMARK    5  A    between atoms: C_12  and  O_16
REMARK    6  A    between atoms: C_22  and  O_23
REMARK    7  A    between atoms: O_23  and  P_24
REMARK    8  A    between atoms: P_24  and  O_26
REMARK    9  A    between atoms: P_24  and  O_28
REMARK                            x       y       z     vdW  Elec       q    Type
REMARK                         _______ _______ _______ _____ _____    ______ ____
ROOT
ATOM      1  O   UNL     1     -37.000  24.303   4.239  0.00  0.00    -0.332 OA
ATOM      2  C   UNL     1     -35.498  26.133   4.337  0.00  0.00    +0.171 C 
ATOM      3  C   UNL     1     -34.735  24.904   3.888  0.00  0.00    +0.188 C 
ATOM      4  C   UNL     1     -36.940  25.734   4.052  0.00  0.00    +0.176 C 
ATOM      5  C   UNL     1     -35.663  23.782   4.318  0.00  0.00    +0.236 C 
ENDROOT
BRANCH   5   7
ATOM      6  O   UNL     1     -35.201  21.200   5.242  0.00  0.00    -0.193 OA
ATOM      7  N   UNL     1     -35.562  22.630   3.468  0.00  0.00    -0.175 N 
ATOM      8  N   UNL     1     -35.230  20.257   3.180  0.00  0.00    -0.303 NA
ATOM      9  N   UNL     1     -35.255  19.264   1.096  0.00  0.00    -0.330 N 
ATOM     10  C   UNL     1     -35.695  22.759   2.094  0.00  0.00    +0.120 C 
ATOM     11  C   UNL     1     -35.323  21.348   4.025  0.00  0.00    +0.276 C 
ATOM     12  C   UNL     1     -35.609  21.720   1.261  0.00  0.00    +0.198 C 
ATOM     13  C   UNL     1     -35.358  20.389   1.884  0.00  0.00    +0.227 C 
ATOM     14  H   UNL     1     -35.089  18.387   1.511  0.00  0.00    +0.145 HD
ATOM     15  H   UNL     1     -35.348  19.337   0.119  0.00  0.00    +0.145 HD
BRANCH  12  16
ATOM     16  O   UNL     1     -35.744  21.869  -0.098  0.00  0.00    -0.466 OA
ATOM     17  C   UNL     1     -36.801  22.759  -0.408  0.00  0.00    +0.253 C 
ENDBRANCH  12  16
ENDBRANCH   5   7
BRANCH   2  18
ATOM     18  O   UNL     1     -35.363  26.312   5.747  0.00  0.00    -0.379 OA
ATOM     19  H   UNL     1     -35.798  25.579   6.209  0.00  0.00    +0.211 HD
ENDBRANCH   2  18
BRANCH   3  20
ATOM     20  O   UNL     1     -33.459  24.816   4.490  0.00  0.00    -0.378 OA
ATOM     21  H   UNL     1     -33.264  23.889   4.699  0.00  0.00    +0.211 HD
ENDBRANCH   3  20
BRANCH   4  22
ATOM     22  C   UNL     1     -37.380  26.045   2.628  0.00  0.00    +0.186 C 
BRANCH  22  23
ATOM     23  O   UNL     1     -38.730  26.474   2.654  0.00  0.00    -0.271 OA
BRANCH  23  24
ATOM     24  P   UNL     1     -39.898  25.355   2.596  0.00  0.00    +0.473 P 
ATOM     25  O   UNL     1     -41.141  25.772   1.865  0.00  0.00    -0.227 OA
BRANCH  24  26
ATOM     26  O   UNL     1     -40.112  24.943   4.145  0.00  0.00    -0.303 OA
ATOM     27  H   UNL     1     -40.840  25.463   4.521  0.00  0.00    +0.222 HD
ENDBRANCH  24  26
BRANCH  24  28
ATOM     28  O   UNL     1     -39.138  24.070   1.973  0.00  0.00    -0.303 OA
ATOM     29  H   UNL     1     -38.243  24.013   2.343  0.00  0.00    +0.222 HD
ENDBRANCH  24  28
ENDBRANCH  23  24
ENDBRANCH  22  23
ENDBRANCH   4  22
TORSDOF 9
ENDMDL
MODEL 4
REMARK VINA RESULT:      -5.6      2.752      6.237
REMARK  Name = 196471
REMARK  9 active torsions:
REMARK  status: ('A' for Active; 'I' for Inactive)
REMARK    1  A    between atoms: C_2  and  O_18
REMARK    2  A    between atoms: C_3  and  O_20
REMARK    3  A    between atoms: C_4  and  C_22
REMARK    4  A    between atoms: C_5  and  N_7
REMARK    5  A    between atoms: C_12  and  O_16
REMARK    6  A    between atoms: C_22  and  O_23
REMARK    7  A    between atoms: O_23  and  P_24
REMARK    8  A    between atoms: P_24  and  O_26
REMARK    9  A    between atoms: P_24  and  O_28
REMARK                            x       y       z     vdW  Elec       q    Type
REMARK                         _______ _______ _______ _____ _____    ______ ____
ROOT
ATOM      1  O   UNL     1     -36.862  23.318   3.877  0.00  0.00    -0.332 OA
ATOM      2  C   UNL     1     -35.536  21.654   2.837  0.00  0.00    +0.171 C 
ATOM      3  C   UNL     1     -36.820  21.811   2.049  0.00  0.00    +0.188 C 
ATOM      4  C   UNL     1     -35.487  22.953   3.629  0.00  0.00    +0.176 C 
ATOM      5  C   UNL     1     -37.719  22.514   3.050  0.00  0.00    +0.236 C 
ENDROOT
BRANCH   5   7
ATOM      6  O   UNL     1     -40.161  21.627   2.059  0.00  0.00    -0.193 OA
ATOM      7  N   UNL     1     -38.686  23.364   2.417  0.00  0.00    -0.175 N 
ATOM      8  N   UNL     1     -40.819  23.672   1.331  0.00  0.00    -0.303 NA
ATOM      9  N   UNL     1     -41.521  25.738   0.580  0.00  0.00    -0.330 N 
ATOM     10  C   UNL     1     -38.434  24.719   2.265  0.00  0.00    +0.120 C 
ATOM     11  C   UNL     1     -39.908  22.827   1.938  0.00  0.00    +0.276 C 
ATOM     12  C   UNL     1     -39.301  25.551   1.683  0.00  0.00    +0.198 C 
ATOM     13  C   UNL     1     -40.573  24.950   1.193  0.00  0.00    +0.227 C 
ATOM     14  H   UNL     1     -42.361  25.338   0.258  0.00  0.00    +0.145 HD
ATOM     15  H   UNL     1     -41.360  26.702   0.465  0.00  0.00    +0.145 HD
BRANCH  12  16
ATOM     16  O   UNL     1     -39.032  26.892   1.542  0.00  0.00    -0.466 OA
ATOM     17  C   UNL     1     -37.780  27.095   0.912  0.00  0.00    +0.253 C 
ENDBRANCH  12  16
ENDBRANCH   5   7
BRANCH   2  18
ATOM     18  O   UNL     1     -35.653  20.577   3.766  0.00  0.00    -0.379 OA
ATOM     19  H   UNL     1     -36.099  20.890   4.568  0.00  0.00    +0.211 HD
ENDBRANCH   2  18
BRANCH   3  20
ATOM     20  O   UNL     1     -37.344  20.569   1.625  0.00  0.00    -0.378 OA
ATOM     21  H   UNL     1     -37.622  20.054   2.399  0.00  0.00    +0.211 HD
ENDBRANCH   3  20
BRANCH   4  22
ATOM     22  C   UNL     1     -34.822  24.095   2.872  0.00  0.00    +0.186 C 
BRANCH  22  23
ATOM     23  O   UNL     1     -35.490  25.302   3.196  0.00  0.00    -0.271 OA
BRANCH  23  24
ATOM     24  P   UNL     1     -35.047  26.094   4.537  0.00  0.00    +0.473 P 
ATOM     25  O   UNL     1     -33.715  25.693   5.100  0.00  0.00    -0.227 OA
BRANCH  24  26
ATOM     26  O   UNL     1     -36.306  25.897   5.532  0.00  0.00    -0.303 OA
ATOM     27  H   UNL     1     -35.985  25.678   6.421  0.00  0.00    +0.222 HD
ENDBRANCH  24  26
BRANCH  24  28
ATOM     28  O   UNL     1     -35.163  27.646   4.096  0.00  0.00    -0.303 OA
ATOM     29  H   UNL     1     -36.001  27.788   3.628  0.00  0.00    +0.222 HD
ENDBRANCH  24  28
ENDBRANCH  23  24
ENDBRANCH  22  23
ENDBRANCH   4  22
TORSDOF 9
ENDMDL
MODEL 5
REMARK VINA RESULT:      -5.4      2.778      5.794
REMARK  Name = 196471
REMARK  9 active torsions:
REMARK  status: ('A' for Active; 'I' for Inactive)
REMARK    1  A    between atoms: C_2  and  O_18
REMARK    2  A    between atoms: C_3  and  O_20
REMARK    3  A    between atoms: C_4  and  C_22
REMARK    4  A    between atoms: C_5  and  N_7
REMARK    5  A    between atoms: C_12  and  O_16
REMARK    6  A    between atoms: C_22  and  O_23
REMARK    7  A    between atoms: O_23  and  P_24
REMARK    8  A    between atoms: P_24  and  O_26
REMARK    9  A    between atoms: P_24  and  O_28
REMARK                            x       y       z     vdW  Elec       q    Type
REMARK                         _______ _______ _______ _____ _____    ______ ____
ROOT
ATOM      1  O   UNL     1     -36.754  24.126   4.531  0.00  0.00    -0.332 OA
ATOM      2  C   UNL     1     -35.228  22.634   5.559  0.00  0.00    +0.171 C 
ATOM      3  C   UNL     1     -35.459  22.182   4.133  0.00  0.00    +0.188 C 
ATOM      4  C   UNL     1     -35.697  24.082   5.515  0.00  0.00    +0.176 C 
ATOM      5  C   UNL     1     -36.749  22.901   3.779  0.00  0.00    +0.236 C 
ENDROOT
BRANCH   5   7
ATOM      6  O   UNL     1     -39.142  23.086   2.375  0.00  0.00    -0.193 OA
ATOM      7  N   UNL     1     -36.838  23.214   2.381  0.00  0.00    -0.175 N 
ATOM      8  N   UNL     1     -38.156  23.588   0.394  0.00  0.00    -0.303 NA
ATOM      9  N   UNL     1     -37.186  24.103  -1.636  0.00  0.00    -0.330 N 
ATOM     10  C   UNL     1     -35.689  23.445   1.640  0.00  0.00    +0.120 C 
ATOM     11  C   UNL     1     -38.103  23.286   1.743  0.00  0.00    +0.276 C 
ATOM     12  C   UNL     1     -35.719  23.738   0.338  0.00  0.00    +0.198 C 
ATOM     13  C   UNL     1     -37.066  23.806  -0.296  0.00  0.00    +0.227 C 
ATOM     14  H   UNL     1     -38.077  24.147  -2.052  0.00  0.00    +0.145 HD
ATOM     15  H   UNL     1     -36.381  24.271  -2.177  0.00  0.00    +0.145 HD
BRANCH  12  16
ATOM     16  O   UNL     1     -34.568  23.964  -0.378  0.00  0.00    -0.466 OA
ATOM     17  C   UNL     1     -33.560  23.034  -0.025  0.00  0.00    +0.253 C 
ENDBRANCH  12  16
ENDBRANCH   5   7
BRANCH   2  18
ATOM     18  O   UNL     1     -36.085  21.921   6.450  0.00  0.00    -0.379 OA
ATOM     19  H   UNL     1     -35.549  21.451   7.107  0.00  0.00    +0.211 HD
ENDBRANCH   2  18
BRANCH   3  20
ATOM     20  O   UNL     1     -35.573  20.777   4.027  0.00  0.00    -0.378 OA
ATOM     21  H   UNL     1     -36.091  20.553   3.238  0.00  0.00    +0.211 HD
ENDBRANCH   3  20
BRANCH   4  22
ATOM     22  C   UNL     1     -34.608  25.055   5.084  0.00  0.00    +0.186 C 
BRANCH  22  23
ATOM     23  O   UNL     1     -35.193  26.329   4.879  0.00  0.00    -0.271 OA
BRANCH  23  24
ATOM     24  P   UNL     1     -35.190  26.948   3.383  0.00  0.00    +0.473 P 
ATOM     25  O   UNL     1     -34.113  26.421   2.480  0.00  0.00    -0.227 OA
BRANCH  24  26
ATOM     26  O   UNL     1     -35.165  28.546   3.629  0.00  0.00    -0.303 OA
ATOM     27  H   UNL     1     -34.296  28.898   3.381  0.00  0.00    +0.222 HD
ENDBRANCH  24  26
BRANCH  24  28
ATOM     28  O   UNL     1     -36.701  26.675   2.874  0.00  0.00    -0.303 OA
ATOM     29  H   UNL     1     -37.321  27.197   3.408  0.00  0.00    +0.222 HD
ENDBRANCH  24  28
ENDBRANCH  23  24
ENDBRANCH  22  23
ENDBRANCH   4  22
TORSDOF 9
ENDMDL
MODEL 6
REMARK VINA RESULT:      -5.4      2.124      4.530
REMARK  Name = 196471
REMARK  9 active torsions:
REMARK  status: ('A' for Active; 'I' for Inactive)
REMARK    1  A    between atoms: C_2  and  O_18
REMARK    2  A    between atoms: C_3  and  O_20
REMARK    3  A    between atoms: C_4  and  C_22
REMARK    4  A    between atoms: C_5  and  N_7
REMARK    5  A    between atoms: C_12  and  O_16
REMARK    6  A    between atoms: C_22  and  O_23
REMARK    7  A    between atoms: O_23  and  P_24
REMARK    8  A    between atoms: P_24  and  O_26
REMARK    9  A    between atoms: P_24  and  O_28
REMARK                            x       y       z     vdW  Elec       q    Type
REMARK                         _______ _______ _______ _____ _____    ______ ____
ROOT
ATOM      1  O   UNL     1     -34.850  23.131   2.236  0.00  0.00    -0.332 OA
ATOM      2  C   UNL     1     -36.249  21.743   3.550  0.00  0.00    +0.171 C 
ATOM      3  C   UNL     1     -36.208  23.120   4.178  0.00  0.00    +0.188 C 
ATOM      4  C   UNL     1     -35.773  22.025   2.132  0.00  0.00    +0.176 C 
ATOM      5  C   UNL     1     -34.966  23.720   3.543  0.00  0.00    +0.236 C 
ENDROOT
BRANCH   5   7
ATOM      6  O   UNL     1     -33.264  25.514   4.814  0.00  0.00    -0.193 OA
ATOM      7  N   UNL     1     -35.053  25.145   3.404  0.00  0.00    -0.175 N 
ATOM      8  N   UNL     1     -34.253  27.359   3.940  0.00  0.00    -0.303 NA
ATOM      9  N   UNL     1     -35.234  29.257   3.066  0.00  0.00    -0.330 N 
ATOM     10  C   UNL     1     -36.029  25.713   2.600  0.00  0.00    +0.120 C 
ATOM     11  C   UNL     1     -34.143  25.988   4.092  0.00  0.00    +0.276 C 
ATOM     12  C   UNL     1     -36.152  27.033   2.439  0.00  0.00    +0.198 C 
ATOM     13  C   UNL     1     -35.177  27.885   3.177  0.00  0.00    +0.227 C 
ATOM     14  H   UNL     1     -34.589  29.817   3.555  0.00  0.00    +0.145 HD
ATOM     15  H   UNL     1     -35.920  29.677   2.499  0.00  0.00    +0.145 HD
BRANCH  12  16
ATOM     16  O   UNL     1     -37.127  27.575   1.636  0.00  0.00    -0.466 OA
ATOM     17  C   UNL     1     -38.113  26.612   1.315  0.00  0.00    +0.253 C 
ENDBRANCH  12  16
ENDBRANCH   5   7
BRANCH   2  18
ATOM     18  O   UNL     1     -35.293  20.886   4.173  0.00  0.00    -0.379 OA
ATOM     19  H   UNL     1     -34.544  21.415   4.490  0.00  0.00    +0.211 HD
ENDBRANCH   2  18
BRANCH   3  20
ATOM     20  O   UNL     1     -36.125  23.065   5.588  0.00  0.00    -0.378 OA
ATOM     21  H   UNL     1     -36.219  23.959   5.952  0.00  0.00    +0.211 HD
ENDBRANCH   3  20
BRANCH   4  22
ATOM     22  C   UNL     1     -36.896  22.432   1.189  0.00  0.00    +0.186 C 
BRANCH  22  23
ATOM     23  O   UNL     1     -37.998  21.565   1.396  0.00  0.00    -0.271 OA
BRANCH  23  24
ATOM     24  P   UNL     1     -39.451  22.219   1.685  0.00  0.00    +0.473 P 
ATOM     25  O   UNL     1     -39.436  23.432   2.568  0.00  0.00    -0.227 OA
BRANCH  24  26
ATOM     26  O   UNL     1     -40.328  20.975   2.233  0.00  0.00    -0.303 OA
ATOM     27  H   UNL     1     -39.738  20.307   2.616  0.00  0.00    +0.222 HD
ENDBRANCH  24  26
BRANCH  24  28
ATOM     28  O   UNL     1     -40.041  22.462   0.199  0.00  0.00    -0.303 OA
ATOM     29  H   UNL     1     -39.311  22.652  -0.411  0.00  0.00    +0.222 HD
ENDBRANCH  24  28
ENDBRANCH  23  24
ENDBRANCH  22  23
ENDBRANCH   4  22
TORSDOF 9
ENDMDL
MODEL 7
REMARK VINA RESULT:      -5.4      2.748      6.366
REMARK  Name = 196471
REMARK  9 active torsions:
REMARK  status: ('A' for Active; 'I' for Inactive)
REMARK    1  A    between atoms: C_2  and  O_18
REMARK    2  A    between atoms: C_3  and  O_20
REMARK    3  A    between atoms: C_4  and  C_22
REMARK    4  A    between atoms: C_5  and  N_7
REMARK    5  A    between atoms: C_12  and  O_16
REMARK    6  A    between atoms: C_22  and  O_23
REMARK    7  A    between atoms: O_23  and  P_24
REMARK    8  A    between atoms: P_24  and  O_26
REMARK    9  A    between atoms: P_24  and  O_28
REMARK                            x       y       z     vdW  Elec       q    Type
REMARK                         _______ _______ _______ _____ _____    ______ ____
ROOT
ATOM      1  O   UNL     1     -36.427  23.603   4.955  0.00  0.00    -0.332 OA
ATOM      2  C   UNL     1     -34.953  21.757   5.138  0.00  0.00    +0.171 C 
ATOM      3  C   UNL     1     -35.525  21.782   3.736  0.00  0.00    +0.188 C 
ATOM      4  C   UNL     1     -35.212  23.180   5.613  0.00  0.00    +0.176 C 
ATOM      5  C   UNL     1     -36.745  22.670   3.909  0.00  0.00    +0.236 C 
ENDROOT
BRANCH   5   7
ATOM      6  O   UNL     1     -38.535  21.783   1.974  0.00  0.00    -0.193 OA
ATOM      7  N   UNL     1     -37.066  23.400   2.716  0.00  0.00    -0.175 N 
ATOM      8  N   UNL     1     -38.279  23.598   0.639  0.00  0.00    -0.303 NA
ATOM      9  N   UNL     1     -38.044  25.432  -0.743  0.00  0.00    -0.330 N 
ATOM     10  C   UNL     1     -36.473  24.628   2.465  0.00  0.00    +0.120 C 
ATOM     11  C   UNL     1     -37.991  22.871   1.780  0.00  0.00    +0.276 C 
ATOM     12  C   UNL     1     -36.738  25.345   1.371  0.00  0.00    +0.198 C 
ATOM     13  C   UNL     1     -37.715  24.757   0.412  0.00  0.00    +0.227 C 
ATOM     14  H   UNL     1     -38.690  25.041  -1.374  0.00  0.00    +0.145 HD
ATOM     15  H   UNL     1     -37.634  26.306  -0.936  0.00  0.00    +0.145 HD
BRANCH  12  16
ATOM     16  O   UNL     1     -36.139  26.561   1.141  0.00  0.00    -0.466 OA
ATOM     17  C   UNL     1     -34.842  26.392   0.598  0.00  0.00    +0.253 C 
ENDBRANCH  12  16
ENDBRANCH   5   7
BRANCH   2  18
ATOM     18  O   UNL     1     -35.708  20.873   5.966  0.00  0.00    -0.379 OA
ATOM     19  H   UNL     1     -36.556  21.287   6.190  0.00  0.00    +0.211 HD
ENDBRANCH   2  18
BRANCH   3  20
ATOM     20  O   UNL     1     -35.855  20.489   3.269  0.00  0.00    -0.378 OA
ATOM     21  H   UNL     1     -36.767  20.276   3.525  0.00  0.00    +0.211 HD
ENDBRANCH   3  20
BRANCH   4  22
ATOM     22  C   UNL     1     -34.105  24.153   5.233  0.00  0.00    +0.186 C 
BRANCH  22  23
ATOM     23  O   UNL     1     -34.510  25.463   5.589  0.00  0.00    -0.271 OA
BRANCH  23  24
ATOM     24  P   UNL     1     -33.863  26.715   4.792  0.00  0.00    +0.473 P 
ATOM     25  O   UNL     1     -33.060  27.659   5.638  0.00  0.00    -0.227 OA
BRANCH  24  26
ATOM     26  O   UNL     1     -35.125  27.376   4.026  0.00  0.00    -0.303 OA
ATOM     27  H   UNL     1     -35.432  26.775   3.330  0.00  0.00    +0.222 HD
ENDBRANCH  24  26
BRANCH  24  28
ATOM     28  O   UNL     1     -33.039  25.999   3.598  0.00  0.00    -0.303 OA
ATOM     29  H   UNL     1     -33.651  25.751   2.887  0.00  0.00    +0.222 HD
ENDBRANCH  24  28
ENDBRANCH  23  24
ENDBRANCH  22  23
ENDBRANCH   4  22
TORSDOF 9
ENDMDL
MODEL 8
REMARK VINA RESULT:      -5.2      3.080      5.407
REMARK  Name = 196471
REMARK  9 active torsions:
REMARK  status: ('A' for Active; 'I' for Inactive)
REMARK    1  A    between atoms: C_2  and  O_18
REMARK    2  A    between atoms: C_3  and  O_20
REMARK    3  A    between atoms: C_4  and  C_22
REMARK    4  A    between atoms: C_5  and  N_7
REMARK    5  A    between atoms: C_12  and  O_16
REMARK    6  A    between atoms: C_22  and  O_23
REMARK    7  A    between atoms: O_23  and  P_24
REMARK    8  A    between atoms: P_24  and  O_26
REMARK    9  A    between atoms: P_24  and  O_28
REMARK                            x       y       z     vdW  Elec       q    Type
REMARK                         _______ _______ _______ _____ _____    ______ ____
ROOT
ATOM      1  O   UNL     1     -35.089  21.278   2.308  0.00  0.00    -0.332 OA
ATOM      2  C   UNL     1     -36.753  20.386   0.877  0.00  0.00    +0.171 C 
ATOM      3  C   UNL     1     -37.409  21.359   1.834  0.00  0.00    +0.188 C 
ATOM      4  C   UNL     1     -35.289  20.795   0.961  0.00  0.00    +0.176 C 
ATOM      5  C   UNL     1     -36.369  21.470   2.934  0.00  0.00    +0.236 C 
ENDROOT
BRANCH   5   7
ATOM      6  O   UNL     1     -35.450  21.927   5.518  0.00  0.00    -0.193 OA
ATOM      7  N   UNL     1     -36.385  22.753   3.577  0.00  0.00    -0.175 N 
ATOM      8  N   UNL     1     -35.926  24.145   5.494  0.00  0.00    -0.303 NA
ATOM      9  N   UNL     1     -36.395  26.405   5.503  0.00  0.00    -0.330 N 
ATOM     10  C   UNL     1     -36.879  23.864   2.912  0.00  0.00    +0.120 C 
ATOM     11  C   UNL     1     -35.896  22.896   4.901  0.00  0.00    +0.276 C 
ATOM     12  C   UNL     1     -36.916  25.078   3.466  0.00  0.00    +0.198 C 
ATOM     13  C   UNL     1     -36.393  25.188   4.857  0.00  0.00    +0.227 C 
ATOM     14  H   UNL     1     -36.049  26.475   6.422  0.00  0.00    +0.145 HD
ATOM     15  H   UNL     1     -36.741  27.204   5.046  0.00  0.00    +0.145 HD
BRANCH  12  16
ATOM     16  O   UNL     1     -37.410  26.167   2.789  0.00  0.00    -0.466 OA
ATOM     17  C   UNL     1     -38.549  25.815   2.025  0.00  0.00    +0.253 C 
ENDBRANCH  12  16
ENDBRANCH   5   7
BRANCH   2  18
ATOM     18  O   UNL     1     -36.866  19.052   1.372  0.00  0.00    -0.379 OA
ATOM     19  H   UNL     1     -37.706  18.668   1.076  0.00  0.00    +0.211 HD
ENDBRANCH   2  18
BRANCH   3  20
ATOM     20  O   UNL     1     -38.654  20.887   2.308  0.00  0.00    -0.378 OA
ATOM     21  H   UNL     1     -38.941  20.133   1.768  0.00  0.00    +0.211 HD
ENDBRANCH   3  20
BRANCH   4  22
ATOM     22  C   UNL     1     -34.919  21.913  -0.003  0.00  0.00    +0.186 C 
BRANCH  22  23
ATOM     23  O   UNL     1     -33.572  22.286   0.229  0.00  0.00    -0.271 OA
BRANCH  23  24
ATOM     24  P   UNL     1     -32.421  21.657  -0.720  0.00  0.00    +0.473 P 
ATOM     25  O   UNL     1     -32.877  21.267  -2.096  0.00  0.00    -0.227 OA
BRANCH  24  26
ATOM     26  O   UNL     1     -31.804  20.456   0.170  0.00  0.00    -0.303 OA
ATOM     27  H   UNL     1     -32.383  19.680   0.114  0.00  0.00    +0.222 HD
ENDBRANCH  24  26
BRANCH  24  28
ATOM     28  O   UNL     1     -31.261  22.783  -0.679  0.00  0.00    -0.303 OA
ATOM     29  H   UNL     1     -30.470  22.449  -1.132  0.00  0.00    +0.222 HD
ENDBRANCH  24  28
ENDBRANCH  23  24
ENDBRANCH  22  23
ENDBRANCH   4  22
TORSDOF 9
ENDMDL
MODEL 9
REMARK VINA RESULT:      -5.2      1.883      2.595
REMARK  Name = 196471
REMARK  9 active torsions:
REMARK  status: ('A' for Active; 'I' for Inactive)
REMARK    1  A    between atoms: C_2  and  O_18
REMARK    2  A    between atoms: C_3  and  O_20
REMARK    3  A    between atoms: C_4  and  C_22
REMARK    4  A    between atoms: C_5  and  N_7
REMARK    5  A    between atoms: C_12  and  O_16
REMARK    6  A    between atoms: C_22  and  O_23
REMARK    7  A    between atoms: O_23  and  P_24
REMARK    8  A    between atoms: P_24  and  O_26
REMARK    9  A    between atoms: P_24  and  O_28
REMARK                            x       y       z     vdW  Elec       q    Type
REMARK                         _______ _______ _______ _____ _____    ______ ____
ROOT
ATOM      1  O   UNL     1     -39.056  23.529   2.911  0.00  0.00    -0.332 OA
ATOM      2  C   UNL     1     -38.724  25.778   2.244  0.00  0.00    +0.171 C 
ATOM      3  C   UNL     1     -37.376  25.091   2.317  0.00  0.00    +0.188 C 
ATOM      4  C   UNL     1     -39.680  24.595   2.163  0.00  0.00    +0.176 C 
ATOM      5  C   UNL     1     -37.687  23.877   3.175  0.00  0.00    +0.236 C 
ENDROOT
BRANCH   5   7
ATOM      6  O   UNL     1     -36.102  22.545   5.030  0.00  0.00    -0.193 OA
ATOM      7  N   UNL     1     -36.852  22.753   2.859  0.00  0.00    -0.175 N 
ATOM      8  N   UNL     1     -35.278  21.053   3.533  0.00  0.00    -0.303 NA
ATOM      9  N   UNL     1     -34.421  19.518   2.037  0.00  0.00    -0.330 N 
ATOM     10  C   UNL     1     -36.797  22.264   1.562  0.00  0.00    +0.120 C 
ATOM     11  C   UNL     1     -36.074  22.133   3.869  0.00  0.00    +0.276 C 
ATOM     12  C   UNL     1     -36.036  21.223   1.218  0.00  0.00    +0.198 C 
ATOM     13  C   UNL     1     -35.233  20.598   2.307  0.00  0.00    +0.227 C 
ATOM     14  H   UNL     1     -33.892  19.108   2.759  0.00  0.00    +0.145 HD
ATOM     15  H   UNL     1     -34.371  19.157   1.123  0.00  0.00    +0.145 HD
BRANCH  12  16
ATOM     16  O   UNL     1     -35.995  20.753  -0.073  0.00  0.00    -0.466 OA
ATOM     17  C   UNL     1     -35.373  21.690  -0.934  0.00  0.00    +0.253 C 
ENDBRANCH  12  16
ENDBRANCH   5   7
BRANCH   2  18
ATOM     18  O   UNL     1     -38.991  26.475   3.460  0.00  0.00    -0.379 OA
ATOM     19  H   UNL     1     -39.736  26.055   3.917  0.00  0.00    +0.211 HD
ENDBRANCH   2  18
BRANCH   3  20
ATOM     20  O   UNL     1     -36.383  25.919   2.886  0.00  0.00    -0.378 OA
ATOM     21  H   UNL     1     -35.522  25.709   2.492  0.00  0.00    +0.211 HD
ENDBRANCH   3  20
BRANCH   4  22
ATOM     22  C   UNL     1     -39.911  24.105   0.741  0.00  0.00    +0.186 C 
BRANCH  22  23
ATOM     23  O   UNL     1     -40.869  23.061   0.771  0.00  0.00    -0.271 OA
BRANCH  23  24
ATOM     24  P   UNL     1     -40.389  21.560   0.398  0.00  0.00    +0.473 P 
ATOM     25  O   UNL     1     -39.291  21.481  -0.623  0.00  0.00    -0.227 OA
BRANCH  24  26
ATOM     26  O   UNL     1     -41.762  20.806  -0.003  0.00  0.00    -0.303 OA
ATOM     27  H   UNL     1     -42.292  21.382  -0.576  0.00  0.00    +0.222 HD
ENDBRANCH  24  26
BRANCH  24  28
ATOM     28  O   UNL     1     -40.026  20.926   1.841  0.00  0.00    -0.303 OA
ATOM     29  H   UNL     1     -40.653  20.215   2.049  0.00  0.00    +0.222 HD
ENDBRANCH  24  28
ENDBRANCH  23  24
ENDBRANCH  22  23
ENDBRANCH   4  22
TORSDOF 9
ENDMDL
