MODEL 1
REMARK VINA RESULT:      -6.4      0.000      0.000
REMARK  Name = 192989
REMARK  3 active torsions:
REMARK  status: ('A' for Active; 'I' for Inactive)
REMARK    1  A    between atoms: N_3  and  C_5
REMARK    2  A    between atoms: N_3  and  C_14
REMARK    3  A    between atoms: C_17  and  O_21
REMARK                            x       y       z     vdW  Elec       q    Type
REMARK                         _______ _______ _______ _____ _____    ______ ____
ROOT
ATOM      1  N   UNL     1     -38.237  24.158   3.499  0.00  0.00    -0.204 NA
ENDROOT
BRANCH   1   5
ATOM      2  O   UNL     1     -38.007  26.090   1.648  0.00  0.00    -0.268 OA
ATOM      3  O   UNL     1     -34.340  27.869   3.816  0.00  0.00    -0.274 OA
ATOM      4  N   UNL     1     -36.165  26.990   2.734  0.00  0.00    -0.250 N 
ATOM      5  C   UNL     1     -37.290  25.022   3.614  0.00  0.00    +0.120 C 
ATOM      6  C   UNL     1     -35.342  25.949   4.783  0.00  0.00    +0.100 C 
ATOM      7  C   UNL     1     -36.306  25.025   4.710  0.00  0.00    +0.004 C 
ATOM      8  C   UNL     1     -37.196  26.085   2.563  0.00  0.00    +0.267 C 
ATOM      9  C   UNL     1     -35.226  27.018   3.752  0.00  0.00    +0.232 C 
ATOM     10  C   UNL     1     -34.333  25.965   5.892  0.00  0.00    +0.014 C 
ATOM     11  H   UNL     1     -36.090  27.697   2.054  0.00  0.00    +0.158 HD
ENDBRANCH   1   5
BRANCH   1  14
ATOM     12  O   UNL     1     -40.079  22.593   2.153  0.00  0.00    -0.268 OA
ATOM     13  N   UNL     1     -38.504  20.988   1.664  0.00  0.00    -0.251 N 
ATOM     14  C   UNL     1     -37.866  22.971   2.933  0.00  0.00    +0.124 C 
ATOM     15  C   UNL     1     -36.257  21.205   2.364  0.00  0.00    +0.028 C 
ATOM     16  C   UNL     1     -36.620  22.473   2.977  0.00  0.00    +0.021 C 
ATOM     17  C   UNL     1     -37.218  20.507   1.727  0.00  0.00    +0.189 C 
ATOM     18  C   UNL     1     -38.922  22.183   2.223  0.00  0.00    +0.267 C 
ATOM     19  C   UNL     1     -34.829  20.773   2.490  0.00  0.00    +0.036 C 
ATOM     20  H   UNL     1     -39.174  20.446   1.190  0.00  0.00    +0.158 HD
BRANCH  17  21
ATOM     21  O   UNL     1     -36.988  19.300   1.113  0.00  0.00    -0.495 OA
ATOM     22  H   UNL     1     -36.128  18.928   1.119  0.00  0.00    +0.293 HD
ENDBRANCH  17  21
ENDBRANCH   1  14
TORSDOF 3
ENDMDL
MODEL 2
REMARK VINA RESULT:      -6.3      2.100      2.475
REMARK  Name = 192989
REMARK  3 active torsions:
REMARK  status: ('A' for Active; 'I' for Inactive)
REMARK    1  A    between atoms: N_3  and  C_5
REMARK    2  A    between atoms: N_3  and  C_14
REMARK    3  A    between atoms: C_17  and  O_21
REMARK                            x       y       z     vdW  Elec       q    Type
REMARK                         _______ _______ _______ _____ _____    ______ ____
ROOT
ATOM      1  N   UNL     1     -37.169  23.015   3.549  0.00  0.00    -0.204 NA
ENDROOT
BRANCH   1   5
ATOM      2  O   UNL     1     -35.967  23.089   5.950  0.00  0.00    -0.268 OA
ATOM      3  O   UNL     1     -32.942  26.236   4.448  0.00  0.00    -0.274 OA
ATOM      4  N   UNL     1     -34.442  24.669   5.201  0.00  0.00    -0.250 N 
ATOM      5  C   UNL     1     -36.164  23.800   3.719  0.00  0.00    +0.120 C 
ATOM      6  C   UNL     1     -34.567  25.473   2.899  0.00  0.00    +0.100 C 
ATOM      7  C   UNL     1     -35.616  24.677   2.670  0.00  0.00    +0.004 C 
ATOM      8  C   UNL     1     -35.519  23.812   5.071  0.00  0.00    +0.267 C 
ATOM      9  C   UNL     1     -33.907  25.504   4.234  0.00  0.00    +0.232 C 
ATOM     10  C   UNL     1     -33.999  26.372   1.842  0.00  0.00    +0.014 C 
ATOM     11  H   UNL     1     -34.006  24.688   6.082  0.00  0.00    +0.158 HD
ENDBRANCH   1   5
BRANCH   1  14
ATOM     12  O   UNL     1     -39.191  21.863   2.053  0.00  0.00    -0.268 OA
ATOM     13  N   UNL     1     -37.777  20.264   1.194  0.00  0.00    -0.251 N 
ATOM     14  C   UNL     1     -36.923  21.927   2.759  0.00  0.00    +0.124 C 
ATOM     15  C   UNL     1     -35.492  20.182   1.790  0.00  0.00    +0.028 C 
ATOM     16  C   UNL     1     -35.721  21.340   2.641  0.00  0.00    +0.021 C 
ATOM     17  C   UNL     1     -36.534  19.686   1.094  0.00  0.00    +0.189 C 
ATOM     18  C   UNL     1     -38.070  21.363   1.981  0.00  0.00    +0.267 C 
ATOM     19  C   UNL     1     -34.100  19.631   1.753  0.00  0.00    +0.036 C 
ATOM     20  H   UNL     1     -38.509  19.869   0.669  0.00  0.00    +0.158 HD
BRANCH  17  21
ATOM     21  O   UNL     1     -36.431  18.599   0.262  0.00  0.00    -0.495 OA
ATOM     22  H   UNL     1     -35.632  18.436  -0.200  0.00  0.00    +0.293 HD
ENDBRANCH  17  21
ENDBRANCH   1  14
TORSDOF 3
ENDMDL
MODEL 3
REMARK VINA RESULT:      -6.3      2.114      5.918
REMARK  Name = 192989
REMARK  3 active torsions:
REMARK  status: ('A' for Active; 'I' for Inactive)
REMARK    1  A    between atoms: N_3  and  C_5
REMARK    2  A    between atoms: N_3  and  C_14
REMARK    3  A    between atoms: C_17  and  O_21
REMARK                            x       y       z     vdW  Elec       q    Type
REMARK                         _______ _______ _______ _____ _____    ______ ____
ROOT
ATOM      1  N   UNL     1     -37.237  22.874   3.525  0.00  0.00    -0.204 NA
ENDROOT
BRANCH   1   5
ATOM      2  O   UNL     1     -39.180  21.890   1.955  0.00  0.00    -0.268 OA
ATOM      3  O   UNL     1     -36.285  18.780   0.151  0.00  0.00    -0.274 OA
ATOM      4  N   UNL     1     -37.730  20.326   1.043  0.00  0.00    -0.250 N 
ATOM      5  C   UNL     1     -36.964  21.895   2.736  0.00  0.00    +0.120 C 
ATOM      6  C   UNL     1     -35.407  20.250   1.792  0.00  0.00    +0.100 C 
ATOM      7  C   UNL     1     -35.637  21.265   2.632  0.00  0.00    +0.004 C 
ATOM      8  C   UNL     1     -38.074  21.375   1.875  0.00  0.00    +0.267 C 
ATOM      9  C   UNL     1     -36.493  19.714   0.924  0.00  0.00    +0.232 C 
ATOM     10  C   UNL     1     -34.062  19.598   1.676  0.00  0.00    +0.014 C 
ATOM     11  H   UNL     1     -38.446  19.974   0.468  0.00  0.00    +0.158 HD
ENDBRANCH   1   5
BRANCH   1  14
ATOM     12  O   UNL     1     -35.938  22.892   5.968  0.00  0.00    -0.268 OA
ATOM     13  N   UNL     1     -34.501  24.561   5.301  0.00  0.00    -0.251 N 
ATOM     14  C   UNL     1     -36.198  23.731   3.759  0.00  0.00    +0.124 C 
ATOM     15  C   UNL     1     -34.621  25.509   3.139  0.00  0.00    +0.028 C 
ATOM     16  C   UNL     1     -35.731  24.610   2.859  0.00  0.00    +0.021 C 
ATOM     17  C   UNL     1     -34.045  25.450   4.356  0.00  0.00    +0.189 C 
ATOM     18  C   UNL     1     -35.548  23.678   5.107  0.00  0.00    +0.267 C 
ATOM     19  C   UNL     1     -34.204  26.436   2.041  0.00  0.00    +0.036 C 
ATOM     20  H   UNL     1     -34.051  24.553   6.176  0.00  0.00    +0.158 HD
BRANCH  17  21
ATOM     21  O   UNL     1     -32.993  26.250   4.728  0.00  0.00    -0.495 OA
ATOM     22  H   UNL     1     -32.113  25.980   4.553  0.00  0.00    +0.293 HD
ENDBRANCH  17  21
ENDBRANCH   1  14
TORSDOF 3
ENDMDL
MODEL 4
REMARK VINA RESULT:      -6.3      2.349      2.615
REMARK  Name = 192989
REMARK  3 active torsions:
REMARK  status: ('A' for Active; 'I' for Inactive)
REMARK    1  A    between atoms: N_3  and  C_5
REMARK    2  A    between atoms: N_3  and  C_14
REMARK    3  A    between atoms: C_17  and  O_21
REMARK                            x       y       z     vdW  Elec       q    Type
REMARK                         _______ _______ _______ _____ _____    ______ ____
ROOT
ATOM      1  N   UNL     1     -36.498  24.846   4.317  0.00  0.00    -0.204 NA
ENDROOT
BRANCH   1   5
ATOM      2  O   UNL     1     -36.153  26.691   2.396  0.00  0.00    -0.268 OA
ATOM      3  O   UNL     1     -32.653  28.602   4.722  0.00  0.00    -0.274 OA
ATOM      4  N   UNL     1     -34.395  27.657   3.561  0.00  0.00    -0.250 N 
ATOM      5  C   UNL     1     -35.566  25.723   4.455  0.00  0.00    +0.120 C 
ATOM      6  C   UNL     1     -33.708  26.721   5.708  0.00  0.00    +0.100 C 
ATOM      7  C   UNL     1     -34.659  25.786   5.614  0.00  0.00    +0.004 C 
ATOM      8  C   UNL     1     -35.407  26.736   3.364  0.00  0.00    +0.267 C 
ATOM      9  C   UNL     1     -33.528  27.741   4.638  0.00  0.00    +0.232 C 
ATOM     10  C   UNL     1     -32.777  26.798   6.881  0.00  0.00    +0.014 C 
ATOM     11  H   UNL     1     -34.278  28.332   2.854  0.00  0.00    +0.158 HD
ENDBRANCH   1   5
BRANCH   1  14
ATOM     12  O   UNL     1     -36.141  22.683   6.004  0.00  0.00    -0.268 OA
ATOM     13  N   UNL     1     -35.495  21.314   4.271  0.00  0.00    -0.251 N 
ATOM     14  C   UNL     1     -36.084  23.639   3.829  0.00  0.00    +0.124 C 
ATOM     15  C   UNL     1     -35.383  22.103   2.046  0.00  0.00    +0.028 C 
ATOM     16  C   UNL     1     -35.822  23.401   2.534  0.00  0.00    +0.021 C 
ATOM     17  C   UNL     1     -35.235  21.103   2.937  0.00  0.00    +0.189 C 
ATOM     18  C   UNL     1     -35.914  22.519   4.807  0.00  0.00    +0.267 C 
ATOM     19  C   UNL     1     -35.128  21.980   0.576  0.00  0.00    +0.036 C 
ATOM     20  H   UNL     1     -35.373  20.557   4.886  0.00  0.00    +0.158 HD
BRANCH  17  21
ATOM     21  O   UNL     1     -34.827  19.840   2.588  0.00  0.00    -0.495 OA
ATOM     22  H   UNL     1     -35.279  19.370   1.915  0.00  0.00    +0.293 HD
ENDBRANCH  17  21
ENDBRANCH   1  14
TORSDOF 3
ENDMDL
MODEL 5
REMARK VINA RESULT:      -6.1      1.918      2.263
REMARK  Name = 192989
REMARK  3 active torsions:
REMARK  status: ('A' for Active; 'I' for Inactive)
REMARK    1  A    between atoms: N_3  and  C_5
REMARK    2  A    between atoms: N_3  and  C_14
REMARK    3  A    between atoms: C_17  and  O_21
REMARK                            x       y       z     vdW  Elec       q    Type
REMARK                         _______ _______ _______ _____ _____    ______ ____
ROOT
ATOM      1  N   UNL     1     -36.211  25.410   2.207  0.00  0.00    -0.204 NA
ENDROOT
BRANCH   1   5
ATOM      2  O   UNL     1     -34.394  26.733   0.737  0.00  0.00    -0.268 OA
ATOM      3  O   UNL     1     -31.916  27.719   4.505  0.00  0.00    -0.274 OA
ATOM      4  N   UNL     1     -33.146  27.234   2.627  0.00  0.00    -0.250 N 
ATOM      5  C   UNL     1     -35.201  25.945   2.798  0.00  0.00    +0.120 C 
ATOM      6  C   UNL     1     -33.899  26.455   4.815  0.00  0.00    +0.100 C 
ATOM      7  C   UNL     1     -34.966  25.880   4.251  0.00  0.00    +0.004 C 
ATOM      8  C   UNL     1     -34.210  26.675   1.944  0.00  0.00    +0.267 C 
ATOM      9  C   UNL     1     -32.900  27.189   3.989  0.00  0.00    +0.232 C 
ATOM     10  C   UNL     1     -33.647  26.397   6.292  0.00  0.00    +0.014 C 
ATOM     11  H   UNL     1     -32.487  27.720   2.082  0.00  0.00    +0.158 HD
ENDBRANCH   1   5
BRANCH   1  14
ATOM     12  O   UNL     1     -38.218  24.147   3.633  0.00  0.00    -0.268 OA
ATOM     13  N   UNL     1     -37.401  22.058   3.120  0.00  0.00    -0.251 N 
ATOM     14  C   UNL     1     -36.266  24.047   2.281  0.00  0.00    +0.124 C 
ATOM     15  C   UNL     1     -35.469  21.777   1.787  0.00  0.00    +0.028 C 
ATOM     16  C   UNL     1     -35.383  23.226   1.690  0.00  0.00    +0.021 C 
ATOM     17  C   UNL     1     -36.480  21.245   2.502  0.00  0.00    +0.189 C 
ATOM     18  C   UNL     1     -37.382  23.441   3.072  0.00  0.00    +0.267 C 
ATOM     19  C   UNL     1     -34.416  20.984   1.077  0.00  0.00    +0.036 C 
ATOM     20  H   UNL     1     -38.122  21.627   3.631  0.00  0.00    +0.158 HD
BRANCH  17  21
ATOM     21  O   UNL     1     -36.658  19.892   2.660  0.00  0.00    -0.495 OA
ATOM     22  H   UNL     1     -37.055  19.559   3.440  0.00  0.00    +0.293 HD
ENDBRANCH  17  21
ENDBRANCH   1  14
TORSDOF 3
ENDMDL
MODEL 6
REMARK VINA RESULT:      -6.1      0.235      5.599
REMARK  Name = 192989
REMARK  3 active torsions:
REMARK  status: ('A' for Active; 'I' for Inactive)
REMARK    1  A    between atoms: N_3  and  C_5
REMARK    2  A    between atoms: N_3  and  C_14
REMARK    3  A    between atoms: C_17  and  O_21
REMARK                            x       y       z     vdW  Elec       q    Type
REMARK                         _______ _______ _______ _____ _____    ______ ____
ROOT
ATOM      1  N   UNL     1     -38.169  23.997   3.649  0.00  0.00    -0.204 NA
ENDROOT
BRANCH   1   5
ATOM      2  O   UNL     1     -40.069  22.762   2.208  0.00  0.00    -0.268 OA
ATOM      3  O   UNL     1     -37.025  19.647   0.679  0.00  0.00    -0.274 OA
ATOM      4  N   UNL     1     -38.543  21.195   1.434  0.00  0.00    -0.250 N 
ATOM      5  C   UNL     1     -37.850  22.961   2.956  0.00  0.00    +0.120 C 
ATOM      6  C   UNL     1     -36.215  21.315   2.157  0.00  0.00    +0.100 C 
ATOM      7  C   UNL     1     -36.492  22.394   2.897  0.00  0.00    +0.004 C 
ATOM      8  C   UNL     1     -38.937  22.301   2.165  0.00  0.00    +0.267 C 
ATOM      9  C   UNL     1     -37.277  20.640   1.360  0.00  0.00    +0.232 C 
ATOM     10  C   UNL     1     -34.838  20.726   2.088  0.00  0.00    +0.014 C 
ATOM     11  H   UNL     1     -39.245  20.751   0.906  0.00  0.00    +0.158 HD
ENDBRANCH   1   5
BRANCH   1  14
ATOM     12  O   UNL     1     -38.046  26.020   1.766  0.00  0.00    -0.268 OA
ATOM     13  N   UNL     1     -36.211  26.977   2.771  0.00  0.00    -0.251 N 
ATOM     14  C   UNL     1     -37.203  24.961   3.720  0.00  0.00    +0.124 C 
ATOM     15  C   UNL     1     -35.244  26.054   4.720  0.00  0.00    +0.028 C 
ATOM     16  C   UNL     1     -36.260  25.013   4.673  0.00  0.00    +0.021 C 
ATOM     17  C   UNL     1     -35.259  27.002   3.763  0.00  0.00    +0.189 C 
ATOM     18  C   UNL     1     -37.205  26.021   2.662  0.00  0.00    +0.267 C 
ATOM     19  C   UNL     1     -34.255  25.989   5.842  0.00  0.00    +0.036 C 
ATOM     20  H   UNL     1     -36.184  27.688   2.092  0.00  0.00    +0.158 HD
BRANCH  17  21
ATOM     21  O   UNL     1     -34.350  28.030   3.710  0.00  0.00    -0.495 OA
ATOM     22  H   UNL     1     -33.939  28.333   4.495  0.00  0.00    +0.293 HD
ENDBRANCH  17  21
ENDBRANCH   1  14
TORSDOF 3
ENDMDL
MODEL 7
REMARK VINA RESULT:      -6.0      1.921      3.073
REMARK  Name = 192989
REMARK  3 active torsions:
REMARK  status: ('A' for Active; 'I' for Inactive)
REMARK    1  A    between atoms: N_3  and  C_5
REMARK    2  A    between atoms: N_3  and  C_14
REMARK    3  A    between atoms: C_17  and  O_21
REMARK                            x       y       z     vdW  Elec       q    Type
REMARK                         _______ _______ _______ _____ _____    ______ ____
ROOT
ATOM      1  N   UNL     1     -35.456  23.281   4.100  0.00  0.00    -0.204 NA
ENDROOT
BRANCH   1   5
ATOM      2  O   UNL     1     -36.264  25.133   5.869  0.00  0.00    -0.268 OA
ATOM      3  O   UNL     1     -34.640  28.533   3.202  0.00  0.00    -0.274 OA
ATOM      4  N   UNL     1     -35.448  26.846   4.534  0.00  0.00    -0.250 N 
ATOM      5  C   UNL     1     -35.241  24.524   3.843  0.00  0.00    +0.120 C 
ATOM      6  C   UNL     1     -34.372  26.315   2.409  0.00  0.00    +0.100 C 
ATOM      7  C   UNL     1     -34.572  25.011   2.625  0.00  0.00    +0.004 C 
ATOM      8  C   UNL     1     -35.705  25.526   4.855  0.00  0.00    +0.267 C 
ATOM      9  C   UNL     1     -34.822  27.332   3.399  0.00  0.00    +0.232 C 
ATOM     10  C   UNL     1     -33.693  26.825   1.173  0.00  0.00    +0.014 C 
ATOM     11  H   UNL     1     -35.744  27.518   5.189  0.00  0.00    +0.158 HD
ENDBRANCH   1   5
BRANCH   1  14
ATOM     12  O   UNL     1     -35.283  20.661   3.228  0.00  0.00    -0.268 OA
ATOM     13  N   UNL     1     -37.352  20.755   2.228  0.00  0.00    -0.251 N 
ATOM     14  C   UNL     1     -36.472  22.713   3.384  0.00  0.00    +0.124 C 
ATOM     15  C   UNL     1     -38.669  22.717   2.286  0.00  0.00    +0.028 C 
ATOM     16  C   UNL     1     -37.605  23.351   3.050  0.00  0.00    +0.021 C 
ATOM     17  C   UNL     1     -38.502  21.436   1.902  0.00  0.00    +0.189 C 
ATOM     18  C   UNL     1     -36.301  21.291   2.949  0.00  0.00    +0.267 C 
ATOM     19  C   UNL     1     -39.878  23.548   1.986  0.00  0.00    +0.036 C 
ATOM     20  H   UNL     1     -37.272  19.822   1.926  0.00  0.00    +0.158 HD
BRANCH  17  21
ATOM     21  O   UNL     1     -39.439  20.741   1.179  0.00  0.00    -0.495 OA
ATOM     22  H   UNL     1     -40.272  21.129   0.995  0.00  0.00    +0.293 HD
ENDBRANCH  17  21
ENDBRANCH   1  14
TORSDOF 3
ENDMDL
MODEL 8
REMARK VINA RESULT:      -6.0      2.539      3.190
REMARK  Name = 192989
REMARK  3 active torsions:
REMARK  status: ('A' for Active; 'I' for Inactive)
REMARK    1  A    between atoms: N_3  and  C_5
REMARK    2  A    between atoms: N_3  and  C_14
REMARK    3  A    between atoms: C_17  and  O_21
REMARK                            x       y       z     vdW  Elec       q    Type
REMARK                         _______ _______ _______ _____ _____    ______ ____
ROOT
ATOM      1  N   UNL     1     -36.614  24.732   4.547  0.00  0.00    -0.204 NA
ENDROOT
BRANCH   1   5
ATOM      2  O   UNL     1     -34.491  25.705   5.873  0.00  0.00    -0.268 OA
ATOM      3  O   UNL     1     -33.929  29.038   2.729  0.00  0.00    -0.274 OA
ATOM      4  N   UNL     1     -34.202  27.381   4.296  0.00  0.00    -0.250 N 
ATOM      5  C   UNL     1     -36.004  25.763   4.077  0.00  0.00    +0.120 C 
ATOM      6  C   UNL     1     -35.726  27.527   2.394  0.00  0.00    +0.100 C 
ATOM      7  C   UNL     1     -36.397  26.460   2.840  0.00  0.00    +0.004 C 
ATOM      8  C   UNL     1     -34.824  26.275   4.844  0.00  0.00    +0.267 C 
ATOM      9  C   UNL     1     -34.548  28.056   3.137  0.00  0.00    +0.232 C 
ATOM     10  C   UNL     1     -36.113  28.247   1.137  0.00  0.00    +0.014 C 
ATOM     11  H   UNL     1     -33.423  27.729   4.786  0.00  0.00    +0.158 HD
ENDBRANCH   1   5
BRANCH   1  14
ATOM     12  O   UNL     1     -35.865  22.603   6.148  0.00  0.00    -0.268 OA
ATOM     13  N   UNL     1     -35.473  21.248   4.330  0.00  0.00    -0.251 N 
ATOM     14  C   UNL     1     -36.237  23.540   3.995  0.00  0.00    +0.124 C 
ATOM     15  C   UNL     1     -35.791  22.019   2.119  0.00  0.00    +0.028 C 
ATOM     16  C   UNL     1     -36.197  23.301   2.675  0.00  0.00    +0.021 C 
ATOM     17  C   UNL     1     -35.443  21.036   2.972  0.00  0.00    +0.189 C 
ATOM     18  C   UNL     1     -35.847  22.437   4.930  0.00  0.00    +0.267 C 
ATOM     19  C   UNL     1     -35.795  21.894   0.627  0.00  0.00    +0.036 C 
ATOM     20  H   UNL     1     -35.210  20.503   4.916  0.00  0.00    +0.158 HD
BRANCH  17  21
ATOM     21  O   UNL     1     -35.046  19.789   2.557  0.00  0.00    -0.495 OA
ATOM     22  H   UNL     1     -34.548  19.693   1.769  0.00  0.00    +0.293 HD
ENDBRANCH  17  21
ENDBRANCH   1  14
TORSDOF 3
ENDMDL
MODEL 9
REMARK VINA RESULT:      -6.0      2.108      2.838
REMARK  Name = 192989
REMARK  3 active torsions:
REMARK  status: ('A' for Active; 'I' for Inactive)
REMARK    1  A    between atoms: N_3  and  C_5
REMARK    2  A    between atoms: N_3  and  C_14
REMARK    3  A    between atoms: C_17  and  O_21
REMARK                            x       y       z     vdW  Elec       q    Type
REMARK                         _______ _______ _______ _____ _____    ______ ____
ROOT
ATOM      1  N   UNL     1     -36.244  25.815   4.091  0.00  0.00    -0.204 NA
ENDROOT
BRANCH   1   5
ATOM      2  O   UNL     1     -35.190  27.258   2.087  0.00  0.00    -0.268 OA
ATOM      3  O   UNL     1     -31.639  28.540   4.744  0.00  0.00    -0.274 OA
ATOM      4  N   UNL     1     -33.404  27.908   3.418  0.00  0.00    -0.250 N 
ATOM      5  C   UNL     1     -35.142  26.448   4.292  0.00  0.00    +0.120 C 
ATOM      6  C   UNL     1     -33.263  27.115   5.722  0.00  0.00    +0.100 C 
ATOM      7  C   UNL     1     -34.404  26.436   5.567  0.00  0.00    +0.004 C 
ATOM      8  C   UNL     1     -34.587  27.243   3.150  0.00  0.00    +0.267 C 
ATOM      9  C   UNL     1     -32.690  27.915   4.604  0.00  0.00    +0.232 C 
ATOM     10  C   UNL     1     -32.501  27.112   7.013  0.00  0.00    +0.014 C 
ATOM     11  H   UNL     1     -33.027  28.437   2.679  0.00  0.00    +0.158 HD
ENDBRANCH   1   5
BRANCH   1  14
ATOM     12  O   UNL     1     -36.871  24.569   1.702  0.00  0.00    -0.268 OA
ATOM     13  N   UNL     1     -36.324  22.493   2.528  0.00  0.00    -0.251 N 
ATOM     14  C   UNL     1     -36.112  24.462   3.951  0.00  0.00    +0.124 C 
ATOM     15  C   UNL     1     -35.553  22.205   4.744  0.00  0.00    +0.028 C 
ATOM     16  C   UNL     1     -35.683  23.643   4.925  0.00  0.00    +0.021 C 
ATOM     17  C   UNL     1     -35.880  21.682   3.546  0.00  0.00    +0.189 C 
ATOM     18  C   UNL     1     -36.472  23.865   2.627  0.00  0.00    +0.267 C 
ATOM     19  C   UNL     1     -35.060  21.414   5.916  0.00  0.00    +0.036 C 
ATOM     20  H   UNL     1     -36.552  22.068   1.671  0.00  0.00    +0.158 HD
BRANCH  17  21
ATOM     21  O   UNL     1     -35.796  20.340   3.265  0.00  0.00    -0.495 OA
ATOM     22  H   UNL     1     -34.995  19.979   2.939  0.00  0.00    +0.293 HD
ENDBRANCH  17  21
ENDBRANCH   1  14
TORSDOF 3
ENDMDL
