MODEL 1
REMARK VINA RESULT:      -6.1      0.000      0.000
REMARK  Name = 56842915
REMARK  9 active torsions:
REMARK  status: ('A' for Active; 'I' for Inactive)
REMARK    1  A    between atoms: C_4  and  O_20
REMARK    2  A    between atoms: C_5  and  C_12
REMARK    3  A    between atoms: N_11  and  C_12
REMARK    4  A    between atoms: N_11  and  N_13
REMARK    5  A    between atoms: N_13  and  C_16
REMARK    6  A    between atoms: C_16  and  N_17
REMARK    7  A    between atoms: O_20  and  C_22
REMARK    8  A    between atoms: C_22  and  O_23
REMARK    9  A    between atoms: O_23  and  C_24
REMARK                            x       y       z     vdW  Elec       q    Type
REMARK                         _______ _______ _______ _____ _____    ______ ____
ROOT
ATOM      1  N   UNL     1     -33.278  26.961   5.473  0.00  0.00    -0.247 NA
ATOM      2  C   UNL     1     -35.619  26.029   4.218  0.00  0.00    +0.038 C 
ATOM      3  C   UNL     1     -34.859  27.060   3.628  0.00  0.00    +0.018 C 
ATOM      4  C   UNL     1     -36.783  25.581   3.572  0.00  0.00    +0.152 C 
ATOM      5  C   UNL     1     -33.709  27.478   4.300  0.00  0.00    +0.079 C 
ATOM      6  C   UNL     1     -35.275  27.624   2.410  0.00  0.00    +0.001 C 
ATOM      7  C   UNL     1     -35.189  25.479   5.432  0.00  0.00    +0.024 C 
ATOM      8  C   UNL     1     -37.186  26.150   2.361  0.00  0.00    +0.038 C 
ATOM      9  C   UNL     1     -36.434  27.169   1.782  0.00  0.00    +0.003 C 
ATOM     10  C   UNL     1     -34.029  25.975   6.007  0.00  0.00    +0.099 C 
ENDROOT
BRANCH   5  11
ATOM     11  C   UNL     1     -32.848  28.536   3.785  0.00  0.00    +0.157 C 
BRANCH  11  12
ATOM     12  N   UNL     1     -32.867  29.747   4.262  0.00  0.00    -0.126 NA
BRANCH  12  13
ATOM     13  N   UNL     1     -32.454  29.852   5.548  0.00  0.00    -0.244 N 
ATOM     14  H   UNL     1     -33.112  30.045   6.253  0.00  0.00    +0.170 HD
BRANCH  13  16
ATOM     15  S   UNL     1     -29.941  30.655   5.208  0.00  0.00    -0.018 S 
ATOM     16  C   UNL     1     -31.132  29.693   5.878  0.00  0.00    +0.143 C 
BRANCH  16  17
ATOM     17  N   UNL     1     -30.832  28.710   6.783  0.00  0.00    -0.340 N 
ATOM     18  H   UNL     1     -30.416  28.943   7.644  0.00  0.00    +0.144 HD
ATOM     19  H   UNL     1     -31.033  27.770   6.572  0.00  0.00    +0.144 HD
ENDBRANCH  16  17
ENDBRANCH  13  16
ENDBRANCH  12  13
ENDBRANCH  11  12
ENDBRANCH   5  11
BRANCH   4  20
ATOM     20  O   UNL     1     -37.550  24.584   4.102  0.00  0.00    -0.393 OA
BRANCH  20  22
ATOM     21  O   UNL     1     -38.262  22.993   2.552  0.00  0.00    -0.202 OA
ATOM     22  C   UNL     1     -37.471  23.369   3.410  0.00  0.00    +0.521 C 
BRANCH  22  23
ATOM     23  O   UNL     1     -36.355  22.675   3.860  0.00  0.00    -0.393 OA
BRANCH  23  24
ATOM     24  C   UNL     1     -35.610  22.109   2.823  0.00  0.00    +0.152 C 
ATOM     25  C   UNL     1     -35.471  20.723   2.740  0.00  0.00    +0.038 C 
ATOM     26  C   UNL     1     -35.005  22.928   1.870  0.00  0.00    +0.038 C 
ATOM     27  C   UNL     1     -34.726  20.158   1.705  0.00  0.00    +0.003 C 
ATOM     28  C   UNL     1     -34.261  22.363   0.836  0.00  0.00    +0.003 C 
ATOM     29  C   UNL     1     -34.121  20.977   0.753  0.00  0.00    +0.000 C 
ENDBRANCH  23  24
ENDBRANCH  22  23
ENDBRANCH  20  22
ENDBRANCH   4  20
TORSDOF 9
ENDMDL
MODEL 2
REMARK VINA RESULT:      -6.1      1.758      3.101
REMARK  Name = 56842915
REMARK  9 active torsions:
REMARK  status: ('A' for Active; 'I' for Inactive)
REMARK    1  A    between atoms: C_4  and  O_20
REMARK    2  A    between atoms: C_5  and  C_12
REMARK    3  A    between atoms: N_11  and  C_12
REMARK    4  A    between atoms: N_11  and  N_13
REMARK    5  A    between atoms: N_13  and  C_16
REMARK    6  A    between atoms: C_16  and  N_17
REMARK    7  A    between atoms: O_20  and  C_22
REMARK    8  A    between atoms: C_22  and  O_23
REMARK    9  A    between atoms: O_23  and  C_24
REMARK                            x       y       z     vdW  Elec       q    Type
REMARK                         _______ _______ _______ _____ _____    ______ ____
ROOT
ATOM      1  N   UNL     1     -34.976  27.007   4.328  0.00  0.00    -0.247 NA
ATOM      2  C   UNL     1     -35.886  24.380   3.887  0.00  0.00    +0.038 C 
ATOM      3  C   UNL     1     -35.018  24.660   4.963  0.00  0.00    +0.018 C 
ATOM      4  C   UNL     1     -36.326  23.061   3.688  0.00  0.00    +0.152 C 
ATOM      5  C   UNL     1     -34.603  25.982   5.128  0.00  0.00    +0.079 C 
ATOM      6  C   UNL     1     -34.606  23.622   5.816  0.00  0.00    +0.001 C 
ATOM      7  C   UNL     1     -36.285  25.427   3.048  0.00  0.00    +0.024 C 
ATOM      8  C   UNL     1     -35.910  22.037   4.543  0.00  0.00    +0.038 C 
ATOM      9  C   UNL     1     -35.052  22.318   5.604  0.00  0.00    +0.003 C 
ATOM     10  C   UNL     1     -35.808  26.702   3.310  0.00  0.00    +0.099 C 
ENDROOT
BRANCH   5  11
ATOM     11  C   UNL     1     -33.706  26.388   6.204  0.00  0.00    +0.157 C 
BRANCH  11  12
ATOM     12  N   UNL     1     -32.609  27.054   5.987  0.00  0.00    -0.126 NA
BRANCH  12  13
ATOM     13  N   UNL     1     -32.346  28.018   6.901  0.00  0.00    -0.244 N 
ATOM     14  H   UNL     1     -32.733  27.949   7.803  0.00  0.00    +0.170 HD
BRANCH  13  16
ATOM     15  S   UNL     1     -31.921  30.115   5.321  0.00  0.00    -0.018 S 
ATOM     16  C   UNL     1     -31.548  29.089   6.586  0.00  0.00    +0.143 C 
BRANCH  16  17
ATOM     17  N   UNL     1     -30.432  29.279   7.355  0.00  0.00    -0.340 N 
ATOM     18  H   UNL     1     -29.728  28.591   7.381  0.00  0.00    +0.144 HD
ATOM     19  H   UNL     1     -30.332  30.104   7.882  0.00  0.00    +0.144 HD
ENDBRANCH  16  17
ENDBRANCH  13  16
ENDBRANCH  12  13
ENDBRANCH  11  12
ENDBRANCH   5  11
BRANCH   4  20
ATOM     20  O   UNL     1     -37.167  22.740   2.662  0.00  0.00    -0.393 OA
BRANCH  20  22
ATOM     21  O   UNL     1     -35.841  22.615   0.747  0.00  0.00    -0.202 OA
ATOM     22  C   UNL     1     -36.546  22.079   1.595  0.00  0.00    +0.521 C 
BRANCH  22  23
ATOM     23  O   UNL     1     -36.864  20.729   1.665  0.00  0.00    -0.393 OA
BRANCH  23  24
ATOM     24  C   UNL     1     -35.820  19.900   1.249  0.00  0.00    +0.152 C 
ATOM     25  C   UNL     1     -35.995  19.053   0.154  0.00  0.00    +0.038 C 
ATOM     26  C   UNL     1     -34.600  19.919   1.927  0.00  0.00    +0.038 C 
ATOM     27  C   UNL     1     -34.952  18.225  -0.261  0.00  0.00    +0.003 C 
ATOM     28  C   UNL     1     -33.559  19.091   1.512  0.00  0.00    +0.003 C 
ATOM     29  C   UNL     1     -33.734  18.244   0.417  0.00  0.00    +0.000 C 
ENDBRANCH  23  24
ENDBRANCH  22  23
ENDBRANCH  20  22
ENDBRANCH   4  20
TORSDOF 9
ENDMDL
MODEL 3
REMARK VINA RESULT:      -6.0      4.574      7.314
REMARK  Name = 56842915
REMARK  9 active torsions:
REMARK  status: ('A' for Active; 'I' for Inactive)
REMARK    1  A    between atoms: C_4  and  O_20
REMARK    2  A    between atoms: C_5  and  C_12
REMARK    3  A    between atoms: N_11  and  C_12
REMARK    4  A    between atoms: N_11  and  N_13
REMARK    5  A    between atoms: N_13  and  C_16
REMARK    6  A    between atoms: C_16  and  N_17
REMARK    7  A    between atoms: O_20  and  C_22
REMARK    8  A    between atoms: C_22  and  O_23
REMARK    9  A    between atoms: O_23  and  C_24
REMARK                            x       y       z     vdW  Elec       q    Type
REMARK                         _______ _______ _______ _____ _____    ______ ____
ROOT
ATOM      1  N   UNL     1     -36.353  22.357   1.312  0.00  0.00    -0.247 NA
ATOM      2  C   UNL     1     -35.977  23.474   3.868  0.00  0.00    +0.038 C 
ATOM      3  C   UNL     1     -35.680  22.116   3.636  0.00  0.00    +0.018 C 
ATOM      4  C   UNL     1     -35.781  24.008   5.152  0.00  0.00    +0.152 C 
ATOM      5  C   UNL     1     -35.887  21.622   2.347  0.00  0.00    +0.079 C 
ATOM      6  C   UNL     1     -35.195  21.318   4.686  0.00  0.00    +0.001 C 
ATOM      7  C   UNL     1     -36.459  24.253   2.809  0.00  0.00    +0.024 C 
ATOM      8  C   UNL     1     -35.299  23.206   6.188  0.00  0.00    +0.038 C 
ATOM      9  C   UNL     1     -35.007  21.863   5.956  0.00  0.00    +0.003 C 
ATOM     10  C   UNL     1     -36.625  23.653   1.570  0.00  0.00    +0.099 C 
ENDROOT
BRANCH   5  11
ATOM     11  C   UNL     1     -35.615  20.234   1.992  0.00  0.00    +0.157 C 
BRANCH  11  12
ATOM     12  N   UNL     1     -34.664  19.895   1.170  0.00  0.00    -0.126 NA
BRANCH  12  13
ATOM     13  N   UNL     1     -33.841  18.924   1.632  0.00  0.00    -0.244 N 
ATOM     14  H   UNL     1     -34.167  18.297   2.316  0.00  0.00    +0.170 HD
BRANCH  13  16
ATOM     15  S   UNL     1     -31.897  19.940   0.127  0.00  0.00    -0.018 S 
ATOM     16  C   UNL     1     -32.558  18.804   1.160  0.00  0.00    +0.143 C 
BRANCH  16  17
ATOM     17  N   UNL     1     -31.843  17.713   1.573  0.00  0.00    -0.340 N 
ATOM     18  H   UNL     1     -30.884  17.799   1.776  0.00  0.00    +0.144 HD
ATOM     19  H   UNL     1     -32.289  16.840   1.668  0.00  0.00    +0.144 HD
ENDBRANCH  16  17
ENDBRANCH  13  16
ENDBRANCH  12  13
ENDBRANCH  11  12
ENDBRANCH   5  11
BRANCH   4  20
ATOM     20  O   UNL     1     -36.052  25.318   5.426  0.00  0.00    -0.393 OA
BRANCH  20  22
ATOM     21  O   UNL     1     -34.044  26.113   6.306  0.00  0.00    -0.202 OA
ATOM     22  C   UNL     1     -34.922  26.146   5.451  0.00  0.00    +0.521 C 
BRANCH  22  23
ATOM     23  O   UNL     1     -34.971  26.997   4.355  0.00  0.00    -0.393 OA
BRANCH  23  24
ATOM     24  C   UNL     1     -33.757  27.075   3.670  0.00  0.00    +0.152 C 
ATOM     25  C   UNL     1     -33.007  28.251   3.711  0.00  0.00    +0.038 C 
ATOM     26  C   UNL     1     -33.293  25.977   2.945  0.00  0.00    +0.038 C 
ATOM     27  C   UNL     1     -31.794  28.329   3.027  0.00  0.00    +0.003 C 
ATOM     28  C   UNL     1     -32.081  26.056   2.261  0.00  0.00    +0.003 C 
ATOM     29  C   UNL     1     -31.331  27.232   2.302  0.00  0.00    +0.000 C 
ENDBRANCH  23  24
ENDBRANCH  22  23
ENDBRANCH  20  22
ENDBRANCH   4  20
TORSDOF 9
ENDMDL
MODEL 4
REMARK VINA RESULT:      -6.0      2.767      4.294
REMARK  Name = 56842915
REMARK  9 active torsions:
REMARK  status: ('A' for Active; 'I' for Inactive)
REMARK    1  A    between atoms: C_4  and  O_20
REMARK    2  A    between atoms: C_5  and  C_12
REMARK    3  A    between atoms: N_11  and  C_12
REMARK    4  A    between atoms: N_11  and  N_13
REMARK    5  A    between atoms: N_13  and  C_16
REMARK    6  A    between atoms: C_16  and  N_17
REMARK    7  A    between atoms: O_20  and  C_22
REMARK    8  A    between atoms: C_22  and  O_23
REMARK    9  A    between atoms: O_23  and  C_24
REMARK                            x       y       z     vdW  Elec       q    Type
REMARK                         _______ _______ _______ _____ _____    ______ ____
ROOT
ATOM      1  N   UNL     1     -35.173  23.654   5.824  0.00  0.00    -0.247 NA
ATOM      2  C   UNL     1     -36.169  22.358   3.533  0.00  0.00    +0.038 C 
ATOM      3  C   UNL     1     -36.484  23.710   3.777  0.00  0.00    +0.018 C 
ATOM      4  C   UNL     1     -36.679  21.734   2.382  0.00  0.00    +0.152 C 
ATOM      5  C   UNL     1     -35.959  24.296   4.930  0.00  0.00    +0.079 C 
ATOM      6  C   UNL     1     -37.298  24.412   2.872  0.00  0.00    +0.001 C 
ATOM      7  C   UNL     1     -35.356  21.675   4.446  0.00  0.00    +0.024 C 
ATOM      8  C   UNL     1     -37.488  22.441   1.490  0.00  0.00    +0.038 C 
ATOM      9  C   UNL     1     -37.797  23.777   1.735  0.00  0.00    +0.003 C 
ATOM     10  C   UNL     1     -34.892  22.361   5.558  0.00  0.00    +0.099 C 
ENDROOT
BRANCH   5  11
ATOM     11  C   UNL     1     -36.218  25.687   5.284  0.00  0.00    +0.157 C 
BRANCH  11  12
ATOM     12  N   UNL     1     -35.282  26.592   5.294  0.00  0.00    -0.126 NA
BRANCH  12  13
ATOM     13  N   UNL     1     -34.391  26.491   4.279  0.00  0.00    -0.244 N 
ATOM     14  H   UNL     1     -33.685  25.807   4.319  0.00  0.00    +0.170 HD
BRANCH  13  16
ATOM     15  S   UNL     1     -33.905  26.861   1.690  0.00  0.00    -0.018 S 
ATOM     16  C   UNL     1     -34.461  27.330   3.195  0.00  0.00    +0.143 C 
BRANCH  16  17
ATOM     17  N   UNL     1     -35.008  28.567   3.401  0.00  0.00    -0.340 N 
ATOM     18  H   UNL     1     -34.431  29.327   3.644  0.00  0.00    +0.144 HD
ATOM     19  H   UNL     1     -35.980  28.698   3.307  0.00  0.00    +0.144 HD
ENDBRANCH  16  17
ENDBRANCH  13  16
ENDBRANCH  12  13
ENDBRANCH  11  12
ENDBRANCH   5  11
BRANCH   4  20
ATOM     20  O   UNL     1     -36.401  20.427   2.101  0.00  0.00    -0.393 OA
BRANCH  20  22
ATOM     21  O   UNL     1     -36.190  19.547  -0.049  0.00  0.00    -0.202 OA
ATOM     22  C   UNL     1     -35.756  20.228   0.874  0.00  0.00    +0.521 C 
BRANCH  22  23
ATOM     23  O   UNL     1     -34.556  20.926   0.886  0.00  0.00    -0.393 OA
BRANCH  23  24
ATOM     24  C   UNL     1     -33.438  20.092   0.814  0.00  0.00    +0.152 C 
ATOM     25  C   UNL     1     -32.319  20.487   0.080  0.00  0.00    +0.038 C 
ATOM     26  C   UNL     1     -33.439  18.864   1.477  0.00  0.00    +0.038 C 
ATOM     27  C   UNL     1     -31.202  19.654   0.008  0.00  0.00    +0.003 C 
ATOM     28  C   UNL     1     -32.323  18.033   1.405  0.00  0.00    +0.003 C 
ATOM     29  C   UNL     1     -31.204  18.427   0.670  0.00  0.00    +0.000 C 
ENDBRANCH  23  24
ENDBRANCH  22  23
ENDBRANCH  20  22
ENDBRANCH   4  20
TORSDOF 9
ENDMDL
MODEL 5
REMARK VINA RESULT:      -6.0      2.259      3.429
REMARK  Name = 56842915
REMARK  9 active torsions:
REMARK  status: ('A' for Active; 'I' for Inactive)
REMARK    1  A    between atoms: C_4  and  O_20
REMARK    2  A    between atoms: C_5  and  C_12
REMARK    3  A    between atoms: N_11  and  C_12
REMARK    4  A    between atoms: N_11  and  N_13
REMARK    5  A    between atoms: N_13  and  C_16
REMARK    6  A    between atoms: C_16  and  N_17
REMARK    7  A    between atoms: O_20  and  C_22
REMARK    8  A    between atoms: C_22  and  O_23
REMARK    9  A    between atoms: O_23  and  C_24
REMARK                            x       y       z     vdW  Elec       q    Type
REMARK                         _______ _______ _______ _____ _____    ______ ____
ROOT
ATOM      1  N   UNL     1     -34.443  24.415   5.341  0.00  0.00    -0.247 NA
ATOM      2  C   UNL     1     -35.444  22.967   3.145  0.00  0.00    +0.038 C 
ATOM      3  C   UNL     1     -34.832  24.223   2.949  0.00  0.00    +0.018 C 
ATOM      4  C   UNL     1     -35.935  22.265   2.032  0.00  0.00    +0.152 C 
ATOM      5  C   UNL     1     -34.356  24.890   4.078  0.00  0.00    +0.079 C 
ATOM      6  C   UNL     1     -34.723  24.752   1.652  0.00  0.00    +0.001 C 
ATOM      7  C   UNL     1     -35.543  22.457   4.445  0.00  0.00    +0.024 C 
ATOM      8  C   UNL     1     -35.822  22.801   0.747  0.00  0.00    +0.038 C 
ATOM      9  C   UNL     1     -35.217  24.041   0.558  0.00  0.00    +0.003 C 
ATOM     10  C   UNL     1     -35.033  23.211   5.491  0.00  0.00    +0.099 C 
ENDROOT
BRANCH   5  11
ATOM     11  C   UNL     1     -33.706  26.194   3.996  0.00  0.00    +0.157 C 
BRANCH  11  12
ATOM     12  N   UNL     1     -33.852  27.107   4.913  0.00  0.00    -0.126 NA
BRANCH  12  13
ATOM     13  N   UNL     1     -32.772  27.905   5.088  0.00  0.00    -0.244 N 
ATOM     14  H   UNL     1     -32.360  28.341   4.308  0.00  0.00    +0.170 HD
BRANCH  13  16
ATOM     15  S   UNL     1     -31.321  29.462   6.683  0.00  0.00    -0.018 S 
ATOM     16  C   UNL     1     -32.245  28.113   6.338  0.00  0.00    +0.143 C 
BRANCH  16  17
ATOM     17  N   UNL     1     -32.512  27.167   7.290  0.00  0.00    -0.340 N 
ATOM     18  H   UNL     1     -32.574  26.217   7.037  0.00  0.00    +0.144 HD
ATOM     19  H   UNL     1     -32.642  27.435   8.228  0.00  0.00    +0.144 HD
ENDBRANCH  16  17
ENDBRANCH  13  16
ENDBRANCH  12  13
ENDBRANCH  11  12
ENDBRANCH   5  11
BRANCH   4  20
ATOM     20  O   UNL     1     -36.534  21.046   2.170  0.00  0.00    -0.393 OA
BRANCH  20  22
ATOM     21  O   UNL     1     -36.214  19.385   0.563  0.00  0.00    -0.202 OA
ATOM     22  C   UNL     1     -35.840  19.992   1.560  0.00  0.00    +0.521 C 
BRANCH  22  23
ATOM     23  O   UNL     1     -34.670  19.762   2.272  0.00  0.00    -0.393 OA
BRANCH  23  24
ATOM     24  C   UNL     1     -33.570  19.511   1.449  0.00  0.00    +0.152 C 
ATOM     25  C   UNL     1     -33.106  20.503   0.584  0.00  0.00    +0.038 C 
ATOM     26  C   UNL     1     -32.934  18.271   1.493  0.00  0.00    +0.038 C 
ATOM     27  C   UNL     1     -32.007  20.253  -0.238  0.00  0.00    +0.003 C 
ATOM     28  C   UNL     1     -31.836  18.021   0.671  0.00  0.00    +0.003 C 
ATOM     29  C   UNL     1     -31.372  19.013  -0.195  0.00  0.00    +0.000 C 
ENDBRANCH  23  24
ENDBRANCH  22  23
ENDBRANCH  20  22
ENDBRANCH   4  20
TORSDOF 9
ENDMDL
MODEL 6
REMARK VINA RESULT:      -6.0      2.412      3.836
REMARK  Name = 56842915
REMARK  9 active torsions:
REMARK  status: ('A' for Active; 'I' for Inactive)
REMARK    1  A    between atoms: C_4  and  O_20
REMARK    2  A    between atoms: C_5  and  C_12
REMARK    3  A    between atoms: N_11  and  C_12
REMARK    4  A    between atoms: N_11  and  N_13
REMARK    5  A    between atoms: N_13  and  C_16
REMARK    6  A    between atoms: C_16  and  N_17
REMARK    7  A    between atoms: O_20  and  C_22
REMARK    8  A    between atoms: C_22  and  O_23
REMARK    9  A    between atoms: O_23  and  C_24
REMARK                            x       y       z     vdW  Elec       q    Type
REMARK                         _______ _______ _______ _____ _____    ______ ____
ROOT
ATOM      1  N   UNL     1     -33.363  26.272   1.775  0.00  0.00    -0.247 NA
ATOM      2  C   UNL     1     -34.829  24.133   2.869  0.00  0.00    +0.038 C 
ATOM      3  C   UNL     1     -34.293  25.130   3.710  0.00  0.00    +0.018 C 
ATOM      4  C   UNL     1     -35.557  23.076   3.440  0.00  0.00    +0.152 C 
ATOM      5  C   UNL     1     -33.576  26.164   3.106  0.00  0.00    +0.079 C 
ATOM      6  C   UNL     1     -34.491  25.053   5.099  0.00  0.00    +0.001 C 
ATOM      7  C   UNL     1     -34.621  24.227   1.488  0.00  0.00    +0.024 C 
ATOM      8  C   UNL     1     -35.748  23.010   4.822  0.00  0.00    +0.038 C 
ATOM      9  C   UNL     1     -35.216  23.996   5.649  0.00  0.00    +0.003 C 
ATOM     10  C   UNL     1     -33.892  25.301   1.002  0.00  0.00    +0.099 C 
ENDROOT
BRANCH   5  11
ATOM     11  C   UNL     1     -32.976  27.249   3.876  0.00  0.00    +0.157 C 
BRANCH  11  12
ATOM     12  N   UNL     1     -33.628  28.333   4.181  0.00  0.00    -0.126 NA
BRANCH  12  13
ATOM     13  N   UNL     1     -34.754  28.536   3.455  0.00  0.00    -0.244 N 
ATOM     14  H   UNL     1     -35.441  27.834   3.421  0.00  0.00    +0.170 HD
BRANCH  13  16
ATOM     15  S   UNL     1     -34.539  29.851   1.153  0.00  0.00    -0.018 S 
ATOM     16  C   UNL     1     -34.947  29.708   2.768  0.00  0.00    +0.143 C 
BRANCH  16  17
ATOM     17  N   UNL     1     -35.488  30.754   3.464  0.00  0.00    -0.340 N 
ATOM     18  H   UNL     1     -35.552  31.644   3.047  0.00  0.00    +0.144 HD
ATOM     19  H   UNL     1     -35.816  30.618   4.382  0.00  0.00    +0.144 HD
ENDBRANCH  16  17
ENDBRANCH  13  16
ENDBRANCH  12  13
ENDBRANCH  11  12
ENDBRANCH   5  11
BRANCH   4  20
ATOM     20  O   UNL     1     -36.097  22.088   2.668  0.00  0.00    -0.393 OA
BRANCH  20  22
ATOM     21  O   UNL     1     -35.005  20.379   3.820  0.00  0.00    -0.202 OA
ATOM     22  C   UNL     1     -35.447  20.852   2.779  0.00  0.00    +0.521 C 
BRANCH  22  23
ATOM     23  O   UNL     1     -35.393  20.266   1.521  0.00  0.00    -0.393 OA
BRANCH  23  24
ATOM     24  C   UNL     1     -34.088  20.018   1.090  0.00  0.00    +0.152 C 
ATOM     25  C   UNL     1     -33.405  20.978   0.343  0.00  0.00    +0.038 C 
ATOM     26  C   UNL     1     -33.466  18.810   1.408  0.00  0.00    +0.038 C 
ATOM     27  C   UNL     1     -32.101  20.730  -0.087  0.00  0.00    +0.003 C 
ATOM     28  C   UNL     1     -32.163  18.563   0.978  0.00  0.00    +0.003 C 
ATOM     29  C   UNL     1     -31.480  19.523   0.231  0.00  0.00    +0.000 C 
ENDBRANCH  23  24
ENDBRANCH  22  23
ENDBRANCH  20  22
ENDBRANCH   4  20
TORSDOF 9
ENDMDL
MODEL 7
REMARK VINA RESULT:      -5.9      2.026      4.382
REMARK  Name = 56842915
REMARK  9 active torsions:
REMARK  status: ('A' for Active; 'I' for Inactive)
REMARK    1  A    between atoms: C_4  and  O_20
REMARK    2  A    between atoms: C_5  and  C_12
REMARK    3  A    between atoms: N_11  and  C_12
REMARK    4  A    between atoms: N_11  and  N_13
REMARK    5  A    between atoms: N_13  and  C_16
REMARK    6  A    between atoms: C_16  and  N_17
REMARK    7  A    between atoms: O_20  and  C_22
REMARK    8  A    between atoms: C_22  and  O_23
REMARK    9  A    between atoms: O_23  and  C_24
REMARK                            x       y       z     vdW  Elec       q    Type
REMARK                         _______ _______ _______ _____ _____    ______ ____
ROOT
ATOM      1  N   UNL     1     -34.289  27.373   4.513  0.00  0.00    -0.247 NA
ATOM      2  C   UNL     1     -35.523  24.931   3.852  0.00  0.00    +0.038 C 
ATOM      3  C   UNL     1     -34.760  25.045   5.032  0.00  0.00    +0.018 C 
ATOM      4  C   UNL     1     -36.129  23.701   3.545  0.00  0.00    +0.152 C 
ATOM      5  C   UNL     1     -34.173  26.282   5.303  0.00  0.00    +0.079 C 
ATOM      6  C   UNL     1     -34.615  23.933   5.880  0.00  0.00    +0.001 C 
ATOM      7  C   UNL     1     -35.656  26.049   3.020  0.00  0.00    +0.024 C 
ATOM      8  C   UNL     1     -35.978  22.604   4.395  0.00  0.00    +0.038 C 
ATOM      9  C   UNL     1     -35.222  22.720   5.560  0.00  0.00    +0.003 C 
ATOM     10  C   UNL     1     -35.028  27.227   3.392  0.00  0.00    +0.099 C 
ENDROOT
BRANCH   5  11
ATOM     11  C   UNL     1     -33.363  26.516   6.493  0.00  0.00    +0.157 C 
BRANCH  11  12
ATOM     12  N   UNL     1     -32.196  27.092   6.442  0.00  0.00    -0.126 NA
BRANCH  12  13
ATOM     13  N   UNL     1     -32.188  28.382   6.856  0.00  0.00    -0.244 N 
ATOM     14  H   UNL     1     -32.533  28.607   7.749  0.00  0.00    +0.170 HD
BRANCH  13  16
ATOM     15  S   UNL     1     -30.079  29.762   6.006  0.00  0.00    -0.018 S 
ATOM     16  C   UNL     1     -31.705  29.378   6.045  0.00  0.00    +0.143 C 
BRANCH  16  17
ATOM     17  N   UNL     1     -32.615  30.043   5.269  0.00  0.00    -0.340 N 
ATOM     18  H   UNL     1     -32.550  30.002   4.287  0.00  0.00    +0.144 HD
ATOM     19  H   UNL     1     -33.336  30.563   5.692  0.00  0.00    +0.144 HD
ENDBRANCH  16  17
ENDBRANCH  13  16
ENDBRANCH  12  13
ENDBRANCH  11  12
ENDBRANCH   5  11
BRANCH   4  20
ATOM     20  O   UNL     1     -36.879  23.542   2.416  0.00  0.00    -0.393 OA
BRANCH  20  22
ATOM     21  O   UNL     1     -38.882  22.356   2.263  0.00  0.00    -0.202 OA
ATOM     22  C   UNL     1     -38.242  23.324   2.657  0.00  0.00    +0.521 C 
BRANCH  22  23
ATOM     23  O   UNL     1     -38.733  24.382   3.411  0.00  0.00    -0.393 OA
BRANCH  23  24
ATOM     24  C   UNL     1     -39.530  25.257   2.670  0.00  0.00    +0.152 C 
ATOM     25  C   UNL     1     -39.088  25.724   1.431  0.00  0.00    +0.038 C 
ATOM     26  C   UNL     1     -40.769  25.664   3.167  0.00  0.00    +0.038 C 
ATOM     27  C   UNL     1     -39.884  26.598   0.691  0.00  0.00    +0.003 C 
ATOM     28  C   UNL     1     -41.564  26.537   2.426  0.00  0.00    +0.003 C 
ATOM     29  C   UNL     1     -41.122  27.005   1.188  0.00  0.00    +0.000 C 
ENDBRANCH  23  24
ENDBRANCH  22  23
ENDBRANCH  20  22
ENDBRANCH   4  20
TORSDOF 9
ENDMDL
MODEL 8
REMARK VINA RESULT:      -5.9      5.158      7.828
REMARK  Name = 56842915
REMARK  9 active torsions:
REMARK  status: ('A' for Active; 'I' for Inactive)
REMARK    1  A    between atoms: C_4  and  O_20
REMARK    2  A    between atoms: C_5  and  C_12
REMARK    3  A    between atoms: N_11  and  C_12
REMARK    4  A    between atoms: N_11  and  N_13
REMARK    5  A    between atoms: N_13  and  C_16
REMARK    6  A    between atoms: C_16  and  N_17
REMARK    7  A    between atoms: O_20  and  C_22
REMARK    8  A    between atoms: C_22  and  O_23
REMARK    9  A    between atoms: O_23  and  C_24
REMARK                            x       y       z     vdW  Elec       q    Type
REMARK                         _______ _______ _______ _____ _____    ______ ____
ROOT
ATOM      1  N   UNL     1     -36.224  22.197   1.257  0.00  0.00    -0.247 NA
ATOM      2  C   UNL     1     -35.991  23.431   3.776  0.00  0.00    +0.038 C 
ATOM      3  C   UNL     1     -35.611  22.084   3.607  0.00  0.00    +0.018 C 
ATOM      4  C   UNL     1     -35.866  24.024   5.044  0.00  0.00    +0.152 C 
ATOM      5  C   UNL     1     -35.750  21.530   2.334  0.00  0.00    +0.079 C 
ATOM      6  C   UNL     1     -35.115  21.356   4.702  0.00  0.00    +0.001 C 
ATOM      7  C   UNL     1     -36.484  24.140   2.674  0.00  0.00    +0.024 C 
ATOM      8  C   UNL     1     -35.371  23.290   6.125  0.00  0.00    +0.038 C 
ATOM      9  C   UNL     1     -34.997  21.959   5.954  0.00  0.00    +0.003 C 
ATOM     10  C   UNL     1     -36.577  23.485   1.456  0.00  0.00    +0.099 C 
ENDROOT
BRANCH   5  11
ATOM     11  C   UNL     1     -35.389  20.148   2.042  0.00  0.00    +0.157 C 
BRANCH  11  12
ATOM     12  N   UNL     1     -35.641  19.586   0.895  0.00  0.00    -0.126 NA
BRANCH  12  13
ATOM     13  N   UNL     1     -36.787  18.865   0.861  0.00  0.00    -0.244 N 
ATOM     14  H   UNL     1     -36.904  18.112   1.483  0.00  0.00    +0.170 HD
BRANCH  13  16
ATOM     15  S   UNL     1     -38.010  18.287  -1.429  0.00  0.00    -0.018 S 
ATOM     16  C   UNL     1     -37.786  19.172  -0.029  0.00  0.00    +0.143 C 
BRANCH  16  17
ATOM     17  N   UNL     1     -38.591  20.234   0.283  0.00  0.00    -0.340 N 
ATOM     18  H   UNL     1     -38.879  20.857  -0.422  0.00  0.00    +0.144 HD
ATOM     19  H   UNL     1     -38.882  20.375   1.213  0.00  0.00    +0.144 HD
ENDBRANCH  16  17
ENDBRANCH  13  16
ENDBRANCH  12  13
ENDBRANCH  11  12
ENDBRANCH   5  11
BRANCH   4  20
ATOM     20  O   UNL     1     -36.219  25.325   5.257  0.00  0.00    -0.393 OA
BRANCH  20  22
ATOM     21  O   UNL     1     -34.323  26.274   6.229  0.00  0.00    -0.202 OA
ATOM     22  C   UNL     1     -35.137  26.212   5.314  0.00  0.00    +0.521 C 
BRANCH  22  23
ATOM     23  O   UNL     1     -35.147  26.998   4.169  0.00  0.00    -0.393 OA
BRANCH  23  24
ATOM     24  C   UNL     1     -33.899  27.074   3.548  0.00  0.00    +0.152 C 
ATOM     25  C   UNL     1     -33.380  25.960   2.886  0.00  0.00    +0.038 C 
ATOM     26  C   UNL     1     -33.171  28.264   3.586  0.00  0.00    +0.038 C 
ATOM     27  C   UNL     1     -32.133  26.037   2.265  0.00  0.00    +0.003 C 
ATOM     28  C   UNL     1     -31.926  28.339   2.965  0.00  0.00    +0.003 C 
ATOM     29  C   UNL     1     -31.406  27.226   2.305  0.00  0.00    +0.000 C 
ENDBRANCH  23  24
ENDBRANCH  22  23
ENDBRANCH  20  22
ENDBRANCH   4  20
TORSDOF 9
ENDMDL
MODEL 9
REMARK VINA RESULT:      -5.8      4.495      7.956
REMARK  Name = 56842915
REMARK  9 active torsions:
REMARK  status: ('A' for Active; 'I' for Inactive)
REMARK    1  A    between atoms: C_4  and  O_20
REMARK    2  A    between atoms: C_5  and  C_12
REMARK    3  A    between atoms: N_11  and  C_12
REMARK    4  A    between atoms: N_11  and  N_13
REMARK    5  A    between atoms: N_13  and  C_16
REMARK    6  A    between atoms: C_16  and  N_17
REMARK    7  A    between atoms: O_20  and  C_22
REMARK    8  A    between atoms: C_22  and  O_23
REMARK    9  A    between atoms: O_23  and  C_24
REMARK                            x       y       z     vdW  Elec       q    Type
REMARK                         _______ _______ _______ _____ _____    ______ ____
ROOT
ATOM      1  N   UNL     1     -36.315  22.776   4.732  0.00  0.00    -0.247 NA
ATOM      2  C   UNL     1     -35.165  25.336   4.509  0.00  0.00    +0.038 C 
ATOM      3  C   UNL     1     -36.117  24.900   3.565  0.00  0.00    +0.018 C 
ATOM      4  C   UNL     1     -34.605  26.617   4.375  0.00  0.00    +0.152 C 
ATOM      5  C   UNL     1     -36.650  23.621   3.731  0.00  0.00    +0.079 C 
ATOM      6  C   UNL     1     -36.491  25.748   2.509  0.00  0.00    +0.001 C 
ATOM      7  C   UNL     1     -34.804  24.477   5.554  0.00  0.00    +0.024 C 
ATOM      8  C   UNL     1     -34.985  27.451   3.321  0.00  0.00    +0.038 C 
ATOM      9  C   UNL     1     -35.926  27.017   2.390  0.00  0.00    +0.003 C 
ATOM     10  C   UNL     1     -35.401  23.227   5.618  0.00  0.00    +0.099 C 
ENDROOT
BRANCH   5  11
ATOM     11  C   UNL     1     -37.641  23.066   2.816  0.00  0.00    +0.157 C 
BRANCH  11  12
ATOM     12  N   UNL     1     -37.333  22.206   1.889  0.00  0.00    -0.126 NA
BRANCH  12  13
ATOM     13  N   UNL     1     -37.314  20.916   2.301  0.00  0.00    -0.244 N 
ATOM     14  H   UNL     1     -37.947  20.619   2.993  0.00  0.00    +0.170 HD
BRANCH  13  16
ATOM     15  S   UNL     1     -34.773  20.239   1.900  0.00  0.00    -0.018 S 
ATOM     16  C   UNL     1     -36.424  20.019   1.766  0.00  0.00    +0.143 C 
BRANCH  16  17
ATOM     17  N   UNL     1     -36.950  18.934   1.118  0.00  0.00    -0.340 N 
ATOM     18  H   UNL     1     -36.996  18.921   0.135  0.00  0.00    +0.144 HD
ATOM     19  H   UNL     1     -37.283  18.165   1.636  0.00  0.00    +0.144 HD
ENDBRANCH  16  17
ENDBRANCH  13  16
ENDBRANCH  12  13
ENDBRANCH  11  12
ENDBRANCH   5  11
BRANCH   4  20
ATOM     20  O   UNL     1     -33.681  27.085   5.264  0.00  0.00    -0.393 OA
BRANCH  20  22
ATOM     21  O   UNL     1     -31.849  27.339   3.843  0.00  0.00    -0.202 OA
ATOM     22  C   UNL     1     -32.625  27.793   4.676  0.00  0.00    +0.521 C 
BRANCH  22  23
ATOM     23  O   UNL     1     -32.612  29.081   5.196  0.00  0.00    -0.393 OA
BRANCH  23  24
ATOM     24  C   UNL     1     -31.324  29.550   5.461  0.00  0.00    +0.152 C 
ATOM     25  C   UNL     1     -30.581  28.996   6.504  0.00  0.00    +0.038 C 
ATOM     26  C   UNL     1     -30.779  30.572   4.683  0.00  0.00    +0.038 C 
ATOM     27  C   UNL     1     -29.294  29.465   6.769  0.00  0.00    +0.003 C 
ATOM     28  C   UNL     1     -29.493  31.039   4.948  0.00  0.00    +0.003 C 
ATOM     29  C   UNL     1     -28.750  30.486   5.991  0.00  0.00    +0.000 C 
ENDBRANCH  23  24
ENDBRANCH  22  23
ENDBRANCH  20  22
ENDBRANCH   4  20
TORSDOF 9
ENDMDL
