MODEL 1
REMARK VINA RESULT:      -6.3      0.000      0.000
REMARK  Name = 192767
REMARK  3 active torsions:
REMARK  status: ('A' for Active; 'I' for Inactive)
REMARK    1  A    between atoms: C_3  and  C_13
REMARK    2  A    between atoms: C_4  and  O_19
REMARK    3  A    between atoms: C_6  and  O_21
REMARK                            x       y       z     vdW  Elec       q    Type
REMARK                         _______ _______ _______ _____ _____    ______ ____
ROOT
ATOM      1  O   UNL     1     -40.396  21.000   1.422  0.00  0.00    -0.266 OA
ATOM      2  N   UNL     1     -38.244  21.104   2.241  0.00  0.00    -0.250 N 
ATOM      3  C   UNL     1     -37.294  23.155   2.976  0.00  0.00    +0.056 C 
ATOM      4  C   UNL     1     -37.196  21.826   2.765  0.00  0.00    +0.193 C 
ATOM      5  C   UNL     1     -38.556  23.796   2.624  0.00  0.00    +0.046 C 
ATOM      6  C   UNL     1     -39.593  23.119   2.113  0.00  0.00    +0.188 C 
ATOM      7  C   UNL     1     -39.464  21.650   1.889  0.00  0.00    +0.286 C 
ATOM      8  H   UNL     1     -38.116  20.137   2.109  0.00  0.00    +0.158 HD
ENDROOT
BRANCH   3  13
ATOM      9  O   UNL     1     -36.278  22.806   5.615  0.00  0.00    -0.270 OA
ATOM     10  O   UNL     1     -33.977  26.593   2.665  0.00  0.00    -0.282 OA
ATOM     11  O   UNL     1     -33.130  26.149   5.156  0.00  0.00    -0.266 OA
ATOM     12  N   UNL     1     -34.712  24.464   5.392  0.00  0.00    -0.246 N 
ATOM     13  C   UNL     1     -36.208  23.945   3.526  0.00  0.00    +0.061 C 
ATOM     14  C   UNL     1     -35.753  23.677   4.924  0.00  0.00    +0.252 C 
ATOM     15  C   UNL     1     -35.622  24.899   2.793  0.00  0.00    +0.051 C 
ATOM     16  C   UNL     1     -34.521  25.717   3.321  0.00  0.00    +0.249 C 
ATOM     17  C   UNL     1     -34.046  25.468   4.718  0.00  0.00    +0.291 C 
ATOM     18  H   UNL     1     -34.413  24.287   6.313  0.00  0.00    +0.158 HD
ENDBRANCH   3  13
BRANCH   4  19
ATOM     19  O   UNL     1     -36.093  21.048   3.031  0.00  0.00    -0.495 OA
ATOM     20  H   UNL     1     -36.040  20.569   3.835  0.00  0.00    +0.293 HD
ENDBRANCH   4  19
BRANCH   6  21
ATOM     21  O   UNL     1     -40.776  23.743   1.789  0.00  0.00    -0.502 OA
ATOM     22  H   UNL     1     -40.850  24.216   0.984  0.00  0.00    +0.292 HD
ENDBRANCH   6  21
TORSDOF 3
ENDMDL
MODEL 2
REMARK VINA RESULT:      -6.2      1.648      2.333
REMARK  Name = 192767
REMARK  3 active torsions:
REMARK  status: ('A' for Active; 'I' for Inactive)
REMARK    1  A    between atoms: C_3  and  C_13
REMARK    2  A    between atoms: C_4  and  O_19
REMARK    3  A    between atoms: C_6  and  O_21
REMARK                            x       y       z     vdW  Elec       q    Type
REMARK                         _______ _______ _______ _____ _____    ______ ____
ROOT
ATOM      1  O   UNL     1     -40.445  22.327   1.663  0.00  0.00    -0.266 OA
ATOM      2  N   UNL     1     -39.596  24.247   2.614  0.00  0.00    -0.250 N 
ATOM      3  C   UNL     1     -37.375  24.338   3.456  0.00  0.00    +0.056 C 
ATOM      4  C   UNL     1     -38.564  24.929   3.218  0.00  0.00    +0.193 C 
ATOM      5  C   UNL     1     -37.228  22.945   3.048  0.00  0.00    +0.046 C 
ATOM      6  C   UNL     1     -38.214  22.257   2.458  0.00  0.00    +0.188 C 
ATOM      7  C   UNL     1     -39.520  22.929   2.203  0.00  0.00    +0.286 C 
ATOM      8  H   UNL     1     -40.441  24.730   2.465  0.00  0.00    +0.158 HD
ENDROOT
BRANCH   3  13
ATOM      9  O   UNL     1     -36.065  23.384   5.800  0.00  0.00    -0.270 OA
ATOM     10  O   UNL     1     -34.252  27.954   3.755  0.00  0.00    -0.282 OA
ATOM     11  O   UNL     1     -33.121  26.936   5.948  0.00  0.00    -0.266 OA
ATOM     12  N   UNL     1     -34.599  25.145   5.877  0.00  0.00    -0.246 N 
ATOM     13  C   UNL     1     -36.268  25.029   4.091  0.00  0.00    +0.061 C 
ATOM     14  C   UNL     1     -35.653  24.439   5.318  0.00  0.00    +0.252 C 
ATOM     15  C   UNL     1     -35.805  26.178   3.585  0.00  0.00    +0.051 C 
ATOM     16  C   UNL     1     -34.686  26.903   4.204  0.00  0.00    +0.249 C 
ATOM     17  C   UNL     1     -34.051  26.333   5.434  0.00  0.00    +0.291 C 
ATOM     18  H   UNL     1     -34.195  24.756   6.685  0.00  0.00    +0.158 HD
ENDBRANCH   3  13
BRANCH   4  19
ATOM     19  O   UNL     1     -38.894  26.228   3.528  0.00  0.00    -0.495 OA
ATOM     20  H   UNL     1     -38.229  26.828   3.802  0.00  0.00    +0.293 HD
ENDBRANCH   4  19
BRANCH   6  21
ATOM     21  O   UNL     1     -38.054  20.943   2.080  0.00  0.00    -0.502 OA
ATOM     22  H   UNL     1     -38.538  20.602   1.355  0.00  0.00    +0.292 HD
ENDBRANCH   6  21
TORSDOF 3
ENDMDL
MODEL 3
REMARK VINA RESULT:      -6.2      0.847      5.723
REMARK  Name = 192767
REMARK  3 active torsions:
REMARK  status: ('A' for Active; 'I' for Inactive)
REMARK    1  A    between atoms: C_3  and  C_13
REMARK    2  A    between atoms: C_4  and  O_19
REMARK    3  A    between atoms: C_6  and  O_21
REMARK                            x       y       z     vdW  Elec       q    Type
REMARK                         _______ _______ _______ _____ _____    ______ ____
ROOT
ATOM      1  O   UNL     1     -34.225  26.584   5.909  0.00  0.00    -0.266 OA
ATOM      2  N   UNL     1     -35.290  24.556   5.651  0.00  0.00    -0.250 N 
ATOM      3  C   UNL     1     -36.680  24.114   3.775  0.00  0.00    +0.056 C 
ATOM      4  C   UNL     1     -36.116  23.720   4.935  0.00  0.00    +0.193 C 
ATOM      5  C   UNL     1     -36.379  25.464   3.310  0.00  0.00    +0.046 C 
ATOM      6  C   UNL     1     -35.578  26.299   3.986  0.00  0.00    +0.188 C 
ATOM      7  C   UNL     1     -34.964  25.844   5.266  0.00  0.00    +0.286 C 
ATOM      8  H   UNL     1     -34.906  24.215   6.491  0.00  0.00    +0.158 HD
ENDROOT
BRANCH   3  13
ATOM      9  O   UNL     1     -35.937  21.517   2.870  0.00  0.00    -0.270 OA
ATOM     10  O   UNL     1     -40.821  23.183   1.560  0.00  0.00    -0.282 OA
ATOM     11  O   UNL     1     -39.986  20.770   0.784  0.00  0.00    -0.266 OA
ATOM     12  N   UNL     1     -37.947  21.140   1.834  0.00  0.00    -0.246 N 
ATOM     13  C   UNL     1     -37.556  23.257   2.997  0.00  0.00    +0.061 C 
ATOM     14  C   UNL     1     -37.064  21.911   2.574  0.00  0.00    +0.252 C 
ATOM     15  C   UNL     1     -38.785  23.666   2.662  0.00  0.00    +0.051 C 
ATOM     16  C   UNL     1     -39.696  22.823   1.875  0.00  0.00    +0.249 C 
ATOM     17  C   UNL     1     -39.228  21.470   1.439  0.00  0.00    +0.291 C 
ATOM     18  H   UNL     1     -37.622  20.254   1.556  0.00  0.00    +0.158 HD
ENDBRANCH   3  13
BRANCH   4  19
ATOM     19  O   UNL     1     -36.279  22.492   5.534  0.00  0.00    -0.495 OA
ATOM     20  H   UNL     1     -36.836  22.404   6.281  0.00  0.00    +0.293 HD
ENDBRANCH   4  19
BRANCH   6  21
ATOM     21  O   UNL     1     -35.307  27.569   3.529  0.00  0.00    -0.502 OA
ATOM     22  H   UNL     1     -34.829  28.168   4.067  0.00  0.00    +0.292 HD
ENDBRANCH   6  21
TORSDOF 3
ENDMDL
MODEL 4
REMARK VINA RESULT:      -6.0      2.692      3.948
REMARK  Name = 192767
REMARK  3 active torsions:
REMARK  status: ('A' for Active; 'I' for Inactive)
REMARK    1  A    between atoms: C_3  and  C_13
REMARK    2  A    between atoms: C_4  and  O_19
REMARK    3  A    between atoms: C_6  and  O_21
REMARK                            x       y       z     vdW  Elec       q    Type
REMARK                         _______ _______ _______ _____ _____    ______ ____
ROOT
ATOM      1  O   UNL     1     -35.372  17.840  -0.151  0.00  0.00    -0.266 OA
ATOM      2  N   UNL     1     -36.673  19.270   1.105  0.00  0.00    -0.250 N 
ATOM      3  C   UNL     1     -35.712  21.056   2.345  0.00  0.00    +0.056 C 
ATOM      4  C   UNL     1     -36.792  20.353   1.945  0.00  0.00    +0.193 C 
ATOM      5  C   UNL     1     -34.411  20.619   1.850  0.00  0.00    +0.046 C 
ATOM      6  C   UNL     1     -34.264  19.569   1.031  0.00  0.00    +0.188 C 
ATOM      7  C   UNL     1     -35.472  18.807   0.600  0.00  0.00    +0.286 C 
ATOM      8  H   UNL     1     -37.496  18.796   0.846  0.00  0.00    +0.158 HD
ENDROOT
BRANCH   3  13
ATOM      9  O   UNL     1     -35.206  20.922   5.146  0.00  0.00    -0.270 OA
ATOM     10  O   UNL     1     -36.551  25.691   3.198  0.00  0.00    -0.282 OA
ATOM     11  O   UNL     1     -36.045  25.412   5.804  0.00  0.00    -0.266 OA
ATOM     12  N   UNL     1     -35.620  23.151   5.478  0.00  0.00    -0.246 N 
ATOM     13  C   UNL     1     -35.803  22.202   3.230  0.00  0.00    +0.061 C 
ATOM     14  C   UNL     1     -35.516  22.019   4.685  0.00  0.00    +0.252 C 
ATOM     15  C   UNL     1     -36.140  23.405   2.751  0.00  0.00    +0.051 C 
ATOM     16  C   UNL     1     -36.243  24.586   3.621  0.00  0.00    +0.249 C 
ATOM     17  C   UNL     1     -35.960  24.430   5.081  0.00  0.00    +0.291 C 
ATOM     18  H   UNL     1     -35.431  23.030   6.436  0.00  0.00    +0.158 HD
ENDBRANCH   3  13
BRANCH   4  19
ATOM     19  O   UNL     1     -38.096  20.609   2.303  0.00  0.00    -0.495 OA
ATOM     20  H   UNL     1     -38.339  21.459   2.612  0.00  0.00    +0.293 HD
ENDBRANCH   4  19
BRANCH   6  21
ATOM     21  O   UNL     1     -33.027  19.174   0.575  0.00  0.00    -0.502 OA
ATOM     22  H   UNL     1     -32.769  19.366  -0.305  0.00  0.00    +0.292 HD
ENDBRANCH   6  21
TORSDOF 3
ENDMDL
MODEL 5
REMARK VINA RESULT:      -5.9      2.840      4.427
REMARK  Name = 192767
REMARK  3 active torsions:
REMARK  status: ('A' for Active; 'I' for Inactive)
REMARK    1  A    between atoms: C_3  and  C_13
REMARK    2  A    between atoms: C_4  and  O_19
REMARK    3  A    between atoms: C_6  and  O_21
REMARK                            x       y       z     vdW  Elec       q    Type
REMARK                         _______ _______ _______ _____ _____    ______ ____
ROOT
ATOM      1  O   UNL     1     -35.904  17.729  -0.540  0.00  0.00    -0.266 OA
ATOM      2  N   UNL     1     -36.913  19.234   0.885  0.00  0.00    -0.250 N 
ATOM      3  C   UNL     1     -35.633  20.706   2.244  0.00  0.00    +0.056 C 
ATOM      4  C   UNL     1     -36.826  20.238   1.823  0.00  0.00    +0.193 C 
ATOM      5  C   UNL     1     -34.437  20.104   1.665  0.00  0.00    +0.046 C 
ATOM      6  C   UNL     1     -34.491  19.126   0.750  0.00  0.00    +0.188 C 
ATOM      7  C   UNL     1     -35.820  18.623   0.298  0.00  0.00    +0.286 C 
ATOM      8  H   UNL     1     -37.810  18.933   0.616  0.00  0.00    +0.158 HD
ENDROOT
BRANCH   3  13
ATOM      9  O   UNL     1     -35.578  23.477   1.581  0.00  0.00    -0.270 OA
ATOM     10  O   UNL     1     -35.188  22.260   6.750  0.00  0.00    -0.282 OA
ATOM     11  O   UNL     1     -35.154  24.815   5.978  0.00  0.00    -0.266 OA
ATOM     12  N   UNL     1     -35.369  24.147   3.763  0.00  0.00    -0.246 N 
ATOM     13  C   UNL     1     -35.508  21.762   3.231  0.00  0.00    +0.061 C 
ATOM     14  C   UNL     1     -35.490  23.184   2.773  0.00  0.00    +0.252 C 
ATOM     15  C   UNL     1     -35.409  21.468   4.533  0.00  0.00    +0.051 C 
ATOM     16  C   UNL     1     -35.280  22.514   5.558  0.00  0.00    +0.249 C 
ATOM     17  C   UNL     1     -35.261  23.946   5.125  0.00  0.00    +0.291 C 
ATOM     18  H   UNL     1     -35.357  25.083   3.460  0.00  0.00    +0.158 HD
ENDBRANCH   3  13
BRANCH   4  19
ATOM     19  O   UNL     1     -38.059  20.676   2.250  0.00  0.00    -0.495 OA
ATOM     20  H   UNL     1     -38.788  20.668   1.663  0.00  0.00    +0.293 HD
ENDBRANCH   4  19
BRANCH   6  21
ATOM     21  O   UNL     1     -33.350  18.572   0.216  0.00  0.00    -0.502 OA
ATOM     22  H   UNL     1     -32.517  18.747   0.606  0.00  0.00    +0.292 HD
ENDBRANCH   6  21
TORSDOF 3
ENDMDL
MODEL 6
REMARK VINA RESULT:      -5.8      2.647      5.000
REMARK  Name = 192767
REMARK  3 active torsions:
REMARK  status: ('A' for Active; 'I' for Inactive)
REMARK    1  A    between atoms: C_3  and  C_13
REMARK    2  A    between atoms: C_4  and  O_19
REMARK    3  A    between atoms: C_6  and  O_21
REMARK                            x       y       z     vdW  Elec       q    Type
REMARK                         _______ _______ _______ _____ _____    ______ ____
ROOT
ATOM      1  O   UNL     1     -34.770  21.876   6.165  0.00  0.00    -0.266 OA
ATOM      2  N   UNL     1     -35.695  23.945   5.743  0.00  0.00    -0.250 N 
ATOM      3  C   UNL     1     -36.852  24.396   3.716  0.00  0.00    +0.056 C 
ATOM      4  C   UNL     1     -36.396  24.797   4.921  0.00  0.00    +0.193 C 
ATOM      5  C   UNL     1     -36.570  23.021   3.319  0.00  0.00    +0.046 C 
ATOM      6  C   UNL     1     -35.890  22.169   4.099  0.00  0.00    +0.188 C 
ATOM      7  C   UNL     1     -35.396  22.632   5.427  0.00  0.00    +0.286 C 
ATOM      8  H   UNL     1     -35.387  24.292   6.611  0.00  0.00    +0.158 HD
ENDROOT
BRANCH   3  13
ATOM      9  O   UNL     1     -39.697  24.551   3.679  0.00  0.00    -0.270 OA
ATOM     10  O   UNL     1     -37.100  27.687   0.248  0.00  0.00    -0.282 OA
ATOM     11  O   UNL     1     -39.768  27.726   0.330  0.00  0.00    -0.266 OA
ATOM     12  N   UNL     1     -39.738  26.129   2.017  0.00  0.00    -0.246 N 
ATOM     13  C   UNL     1     -37.594  25.270   2.826  0.00  0.00    +0.061 C 
ATOM     14  C   UNL     1     -39.087  25.272   2.891  0.00  0.00    +0.252 C 
ATOM     15  C   UNL     1     -36.951  26.063   1.961  0.00  0.00    +0.051 C 
ATOM     16  C   UNL     1     -37.673  26.959   1.046  0.00  0.00    +0.249 C 
ATOM     17  C   UNL     1     -39.168  26.981   1.091  0.00  0.00    +0.291 C 
ATOM     18  H   UNL     1     -40.721  26.129   2.060  0.00  0.00    +0.158 HD
ENDBRANCH   3  13
BRANCH   4  19
ATOM     19  O   UNL     1     -36.561  26.049   5.468  0.00  0.00    -0.495 OA
ATOM     20  H   UNL     1     -35.848  26.656   5.473  0.00  0.00    +0.293 HD
ENDBRANCH   4  19
BRANCH   6  21
ATOM     21  O   UNL     1     -35.635  20.875   3.705  0.00  0.00    -0.502 OA
ATOM     22  H   UNL     1     -36.298  20.380   3.265  0.00  0.00    +0.292 HD
ENDBRANCH   6  21
TORSDOF 3
ENDMDL
MODEL 7
REMARK VINA RESULT:      -5.8      2.527      3.277
REMARK  Name = 192767
REMARK  3 active torsions:
REMARK  status: ('A' for Active; 'I' for Inactive)
REMARK    1  A    between atoms: C_3  and  C_13
REMARK    2  A    between atoms: C_4  and  O_19
REMARK    3  A    between atoms: C_6  and  O_21
REMARK                            x       y       z     vdW  Elec       q    Type
REMARK                         _______ _______ _______ _____ _____    ______ ____
ROOT
ATOM      1  O   UNL     1     -35.371  19.054  -0.266  0.00  0.00    -0.266 OA
ATOM      2  N   UNL     1     -35.409  19.881   1.885  0.00  0.00    -0.250 N 
ATOM      3  C   UNL     1     -35.621  22.209   2.317  0.00  0.00    +0.056 C 
ATOM      4  C   UNL     1     -35.493  20.940   2.759  0.00  0.00    +0.193 C 
ATOM      5  C   UNL     1     -35.666  22.411   0.873  0.00  0.00    +0.046 C 
ATOM      6  C   UNL     1     -35.587  21.399  -0.002  0.00  0.00    +0.188 C 
ATOM      7  C   UNL     1     -35.446  20.005   0.508  0.00  0.00    +0.286 C 
ATOM      8  H   UNL     1     -35.316  18.977   2.265  0.00  0.00    +0.158 HD
ENDROOT
BRANCH   3  13
ATOM      9  O   UNL     1     -38.091  23.284   3.244  0.00  0.00    -0.270 OA
ATOM     10  O   UNL     1     -33.659  25.680   4.966  0.00  0.00    -0.282 OA
ATOM     11  O   UNL     1     -36.048  26.576   5.753  0.00  0.00    -0.266 OA
ATOM     12  N   UNL     1     -37.081  24.919   4.493  0.00  0.00    -0.246 N 
ATOM     13  C   UNL     1     -35.712  23.347   3.212  0.00  0.00    +0.061 C 
ATOM     14  C   UNL     1     -37.061  23.829   3.637  0.00  0.00    +0.252 C 
ATOM     15  C   UNL     1     -34.604  23.957   3.651  0.00  0.00    +0.051 C 
ATOM     16  C   UNL     1     -34.662  25.112   4.558  0.00  0.00    +0.249 C 
ATOM     17  C   UNL     1     -36.001  25.614   4.998  0.00  0.00    +0.291 C 
ATOM     18  H   UNL     1     -37.970  25.237   4.771  0.00  0.00    +0.158 HD
ENDBRANCH   3  13
BRANCH   4  19
ATOM     19  O   UNL     1     -35.432  20.550   4.077  0.00  0.00    -0.495 OA
ATOM     20  H   UNL     1     -35.948  20.992   4.722  0.00  0.00    +0.293 HD
ENDBRANCH   4  19
BRANCH   6  21
ATOM     21  O   UNL     1     -35.632  21.612  -1.360  0.00  0.00    -0.502 OA
ATOM     22  H   UNL     1     -36.000  20.961  -1.925  0.00  0.00    +0.292 HD
ENDBRANCH   6  21
TORSDOF 3
ENDMDL
MODEL 8
REMARK VINA RESULT:      -5.7      2.666      6.030
REMARK  Name = 192767
REMARK  3 active torsions:
REMARK  status: ('A' for Active; 'I' for Inactive)
REMARK    1  A    between atoms: C_3  and  C_13
REMARK    2  A    between atoms: C_4  and  O_19
REMARK    3  A    between atoms: C_6  and  O_21
REMARK                            x       y       z     vdW  Elec       q    Type
REMARK                         _______ _______ _______ _____ _____    ______ ____
ROOT
ATOM      1  O   UNL     1     -33.579  29.295   3.876  0.00  0.00    -0.266 OA
ATOM      2  N   UNL     1     -35.245  27.724   3.611  0.00  0.00    -0.250 N 
ATOM      3  C   UNL     1     -34.742  25.422   3.299  0.00  0.00    +0.056 C 
ATOM      4  C   UNL     1     -35.642  26.421   3.418  0.00  0.00    +0.193 C 
ATOM      5  C   UNL     1     -33.331  25.781   3.385  0.00  0.00    +0.046 C 
ATOM      6  C   UNL     1     -32.916  27.041   3.573  0.00  0.00    +0.188 C 
ATOM      7  C   UNL     1     -33.926  28.130   3.702  0.00  0.00    +0.286 C 
ATOM      8  H   UNL     1     -35.946  28.411   3.691  0.00  0.00    +0.158 HD
ENDROOT
BRANCH   3  13
ATOM      9  O   UNL     1     -36.104  23.864   5.259  0.00  0.00    -0.270 OA
ATOM     10  O   UNL     1     -34.977  21.438   0.655  0.00  0.00    -0.282 OA
ATOM     11  O   UNL     1     -36.252  20.106   2.584  0.00  0.00    -0.266 OA
ATOM     12  N   UNL     1     -36.182  21.996   3.934  0.00  0.00    -0.246 N 
ATOM     13  C   UNL     1     -35.128  24.038   3.095  0.00  0.00    +0.061 C 
ATOM     14  C   UNL     1     -35.840  23.314   4.191  0.00  0.00    +0.252 C 
ATOM     15  C   UNL     1     -34.849  23.419   1.941  0.00  0.00    +0.051 C 
ATOM     16  C   UNL     1     -35.225  22.018   1.702  0.00  0.00    +0.249 C 
ATOM     17  C   UNL     1     -35.940  21.271   2.784  0.00  0.00    +0.291 C 
ATOM     18  H   UNL     1     -36.650  21.520   4.657  0.00  0.00    +0.158 HD
ENDBRANCH   3  13
BRANCH   4  19
ATOM     19  O   UNL     1     -37.010  26.283   3.364  0.00  0.00    -0.495 OA
ATOM     20  H   UNL     1     -37.431  25.599   3.846  0.00  0.00    +0.293 HD
ENDBRANCH   4  19
BRANCH   6  21
ATOM     21  O   UNL     1     -31.579  27.358   3.651  0.00  0.00    -0.502 OA
ATOM     22  H   UNL     1     -31.089  27.518   2.869  0.00  0.00    +0.292 HD
ENDBRANCH   6  21
TORSDOF 3
ENDMDL
MODEL 9
REMARK VINA RESULT:      -5.6      2.598      5.468
REMARK  Name = 192767
REMARK  3 active torsions:
REMARK  status: ('A' for Active; 'I' for Inactive)
REMARK    1  A    between atoms: C_3  and  C_13
REMARK    2  A    between atoms: C_4  and  O_19
REMARK    3  A    between atoms: C_6  and  O_21
REMARK                            x       y       z     vdW  Elec       q    Type
REMARK                         _______ _______ _______ _____ _____    ______ ____
ROOT
ATOM      1  O   UNL     1     -34.661  29.509   3.375  0.00  0.00    -0.266 OA
ATOM      2  N   UNL     1     -34.043  27.363   3.945  0.00  0.00    -0.250 N 
ATOM      3  C   UNL     1     -35.159  25.468   3.042  0.00  0.00    +0.056 C 
ATOM      4  C   UNL     1     -34.207  26.001   3.835  0.00  0.00    +0.193 C 
ATOM      5  C   UNL     1     -36.009  26.397   2.305  0.00  0.00    +0.046 C 
ATOM      6  C   UNL     1     -35.873  27.727   2.391  0.00  0.00    +0.188 C 
ATOM      7  C   UNL     1     -34.813  28.295   3.274  0.00  0.00    +0.286 C 
ATOM      8  H   UNL     1     -33.331  27.694   4.539  0.00  0.00    +0.158 HD
ENDROOT
BRANCH   3  13
ATOM      9  O   UNL     1     -36.688  23.912   4.875  0.00  0.00    -0.270 OA
ATOM     10  O   UNL     1     -34.501  21.300   0.783  0.00  0.00    -0.282 OA
ATOM     11  O   UNL     1     -35.963  19.973   2.580  0.00  0.00    -0.266 OA
ATOM     12  N   UNL     1     -36.332  21.954   3.738  0.00  0.00    -0.246 N 
ATOM     13  C   UNL     1     -35.357  24.038   2.905  0.00  0.00    +0.061 C 
ATOM     14  C   UNL     1     -36.179  23.318   3.925  0.00  0.00    +0.252 C 
ATOM     15  C   UNL     1     -34.813  23.371   1.880  0.00  0.00    +0.051 C 
ATOM     16  C   UNL     1     -34.993  21.922   1.712  0.00  0.00    +0.249 C 
ATOM     17  C   UNL     1     -35.813  21.179   2.720  0.00  0.00    +0.291 C 
ATOM     18  H   UNL     1     -36.873  21.481   4.411  0.00  0.00    +0.158 HD
ENDBRANCH   3  13
BRANCH   4  19
ATOM     19  O   UNL     1     -33.312  25.294   4.606  0.00  0.00    -0.495 OA
ATOM     20  H   UNL     1     -33.523  25.082   5.493  0.00  0.00    +0.293 HD
ENDBRANCH   4  19
BRANCH   6  21
ATOM     21  O   UNL     1     -36.686  28.585   1.686  0.00  0.00    -0.502 OA
ATOM     22  H   UNL     1     -37.119  29.289   2.127  0.00  0.00    +0.292 HD
ENDBRANCH   6  21
TORSDOF 3
ENDMDL
