MODEL 1
REMARK VINA RESULT:      -6.4      0.000      0.000
REMARK  Name = 57331970
REMARK  13 active torsions:
REMARK  status: ('A' for Active; 'I' for Inactive)
REMARK    1  A    between atoms: C_1  and  C_19
REMARK    2  A    between atoms: C_2  and  C_5
REMARK    3  A    between atoms: N_4  and  CA_7
REMARK    4  A    between atoms: CA_7  and  C_9
REMARK    5  A    between atoms: CA_7  and  CB_12
REMARK    6  A    between atoms: C_9  and  O_10
REMARK    7  A    between atoms: CB_12  and  CG_13
REMARK    8  A    between atoms: CG_13  and  CD_15
REMARK    9  A    between atoms: CD_15  and  OE1_16
REMARK   10  A    between atoms: C_18  and  C_21
REMARK   11  A    between atoms: C_21  and  C_24
REMARK   12  A    between atoms: C_24  and  C_25
REMARK   13  A    between atoms: C_26  and  N_31
REMARK                            x       y       z     vdW  Elec       q    Type
REMARK                         _______ _______ _______ _____ _____    ______ ____
ROOT
ATOM      1  C   UNK A   0     -39.718  25.297   2.369  0.00  0.00    +0.000 C 
ATOM      2  C   UNK A   0     -39.055  24.618   3.317  0.00  0.00    +0.057 C 
ENDROOT
BRANCH   2   5
ATOM      3  O   UNK A   0     -37.274  23.936   1.880  0.00  0.00    -0.270 OA
ATOM      4  N   GLU A   1     -37.059  23.639   4.175  0.00  0.00    -0.293 N 
ATOM      5  C   UNK A   0     -37.714  24.036   3.021  0.00  0.00    +0.246 C 
ATOM      6  H   GLU A   1     -37.511  23.768   5.040  0.00  0.00    +0.150 HD
BRANCH   4   7
ATOM      7  CA  GLU A   1     -35.743  23.040   4.164  0.00  0.00    +0.172 C 
BRANCH   7   9
ATOM      8  OXT GLU A   1     -36.008  22.235   6.447  0.00  0.00    -0.248 OA
ATOM      9  C   GLU A   1     -35.693  22.022   5.284  0.00  0.00    +0.332 C 
BRANCH   9  10
ATOM     10  O   GLU A   1     -35.287  20.802   4.841  0.00  0.00    -0.479 OA
ATOM     11  H   GLU A   1     -34.647  20.318   5.324  0.00  0.00    +0.295 HD
ENDBRANCH   9  10
ENDBRANCH   7   9
BRANCH   7  12
ATOM     12  CB  GLU A   1     -34.619  24.082   4.224  0.00  0.00    +0.043 C 
BRANCH  12  13
ATOM     13  CG  GLU A   1     -34.713  25.101   5.366  0.00  0.00    +0.112 C 
BRANCH  13  15
ATOM     14  OE2 GLU A   1     -34.638  27.324   4.371  0.00  0.00    -0.250 OA
ATOM     15  CD  GLU A   1     -35.268  26.444   4.941  0.00  0.00    +0.314 C 
BRANCH  15  16
ATOM     16  OE1 GLU A   1     -36.568  26.586   5.308  0.00  0.00    -0.480 OA
ATOM     17  HE1 GLU A   1     -36.816  27.270   5.898  0.00  0.00    +0.295 HD
ENDBRANCH  15  16
ENDBRANCH  13  15
ENDBRANCH  12  13
ENDBRANCH   7  12
ENDBRANCH   4   7
ENDBRANCH   2   5
BRANCH   1  19
ATOM     18  C   UNK A   0     -41.882  25.898   1.459  0.00  0.00    -0.023 C 
ATOM     19  C   UNK A   0     -41.037  25.921   2.511  0.00  0.00    -0.026 C 
ATOM     20  C   UNK A   0     -41.366  26.571   3.830  0.00  0.00    +0.031 C 
BRANCH  18  21
ATOM     21  C   UNK A   0     -43.286  26.455   1.396  0.00  0.00    +0.084 C 
ATOM     22  C   UNK A   0     -43.560  27.107   0.042  0.00  0.00    +0.013 C 
BRANCH  21  24
ATOM     23  O   UNK A   0     -44.298  24.328   0.852  0.00  0.00    -0.291 OA
ATOM     24  C   UNK A   0     -44.257  25.296   1.611  0.00  0.00    +0.177 C 
BRANCH  24  25
ATOM     25  C   UNK A   0     -45.187  25.328   2.773  0.00  0.00    +0.035 C 
ATOM     26  C   UNK A   0     -46.932  25.390   4.949  0.00  0.00    +0.048 C 
ATOM     27  C   UNK A   0     -45.047  26.312   3.752  0.00  0.00    +0.004 C 
ATOM     28  C   UNK A   0     -46.200  24.375   2.882  0.00  0.00    +0.004 C 
ATOM     29  C   UNK A   0     -45.919  26.343   4.839  0.00  0.00    +0.015 C 
ATOM     30  C   UNK A   0     -47.073  24.407   3.970  0.00  0.00    +0.015 C 
BRANCH  26  31
ATOM     31  N   UNK A   0     -47.813  25.422   6.049  0.00  0.00    -0.304 N 
ATOM     32  C   UNK A   0     -48.794  24.371   6.235  0.00  0.00    +0.112 C 
ATOM     33  C   UNK A   0     -47.745  26.502   7.013  0.00  0.00    +0.112 C 
ENDBRANCH  26  31
ENDBRANCH  24  25
ENDBRANCH  21  24
ENDBRANCH  18  21
ENDBRANCH   1  19
TORSDOF 13
ENDMDL
MODEL 2
REMARK VINA RESULT:      -6.4      6.198     10.049
REMARK  Name = 57331970
REMARK  13 active torsions:
REMARK  status: ('A' for Active; 'I' for Inactive)
REMARK    1  A    between atoms: C_1  and  C_19
REMARK    2  A    between atoms: C_2  and  C_5
REMARK    3  A    between atoms: N_4  and  CA_7
REMARK    4  A    between atoms: CA_7  and  C_9
REMARK    5  A    between atoms: CA_7  and  CB_12
REMARK    6  A    between atoms: C_9  and  O_10
REMARK    7  A    between atoms: CB_12  and  CG_13
REMARK    8  A    between atoms: CG_13  and  CD_15
REMARK    9  A    between atoms: CD_15  and  OE1_16
REMARK   10  A    between atoms: C_18  and  C_21
REMARK   11  A    between atoms: C_21  and  C_24
REMARK   12  A    between atoms: C_24  and  C_25
REMARK   13  A    between atoms: C_26  and  N_31
REMARK                            x       y       z     vdW  Elec       q    Type
REMARK                         _______ _______ _______ _____ _____    ______ ____
ROOT
ATOM      1  C   UNK A   0     -34.227  24.942   4.781  0.00  0.00    +0.000 C 
ATOM      2  C   UNK A   0     -34.316  25.895   5.723  0.00  0.00    +0.057 C 
ENDROOT
BRANCH   2   5
ATOM      3  O   UNK A   0     -32.555  26.940   6.951  0.00  0.00    -0.270 OA
ATOM      4  N   GLU A   1     -33.003  27.647   4.784  0.00  0.00    -0.293 N 
ATOM      5  C   UNK A   0     -33.200  26.867   5.910  0.00  0.00    +0.246 C 
ATOM      6  H   GLU A   1     -33.583  27.501   4.002  0.00  0.00    +0.150 HD
BRANCH   4   7
ATOM      7  CA  GLU A   1     -31.984  28.670   4.706  0.00  0.00    +0.172 C 
BRANCH   7   9
ATOM      8  OXT GLU A   1     -32.436  30.092   2.780  0.00  0.00    -0.248 OA
ATOM      9  C   GLU A   1     -32.578  29.855   3.973  0.00  0.00    +0.332 C 
BRANCH   9  10
ATOM     10  O   GLU A   1     -33.338  30.629   4.793  0.00  0.00    -0.479 OA
ATOM     11  H   GLU A   1     -33.495  31.526   4.576  0.00  0.00    +0.295 HD
ENDBRANCH   9  10
ENDBRANCH   7   9
BRANCH   7  12
ATOM     12  CB  GLU A   1     -30.675  28.156   4.094  0.00  0.00    +0.043 C 
BRANCH  12  13
ATOM     13  CG  GLU A   1     -29.394  28.520   4.855  0.00  0.00    +0.112 C 
BRANCH  13  15
ATOM     14  OE2 GLU A   1     -29.620  29.510   7.069  0.00  0.00    -0.250 OA
ATOM     15  CD  GLU A   1     -29.555  28.515   6.360  0.00  0.00    +0.314 C 
BRANCH  15  16
ATOM     16  OE1 GLU A   1     -29.580  27.252   6.857  0.00  0.00    -0.480 OA
ATOM     17  HE1 GLU A   1     -30.271  26.666   6.614  0.00  0.00    +0.295 HD
ENDBRANCH  15  16
ENDBRANCH  13  15
ENDBRANCH  12  13
ENDBRANCH   7  12
ENDBRANCH   4   7
ENDBRANCH   2   5
BRANCH   1  19
ATOM     18  C   UNK A   0     -36.115  24.152   3.485  0.00  0.00    -0.023 C 
ATOM     19  C   UNK A   0     -35.237  23.923   4.484  0.00  0.00    -0.026 C 
ATOM     20  C   UNK A   0     -35.245  22.676   5.330  0.00  0.00    +0.031 C 
BRANCH  18  21
ATOM     21  C   UNK A   0     -37.213  23.234   2.998  0.00  0.00    +0.084 C 
ATOM     22  C   UNK A   0     -38.564  23.947   2.987  0.00  0.00    +0.013 C 
BRANCH  21  24
ATOM     23  O   UNK A   0     -37.509  23.153   0.600  0.00  0.00    -0.291 OA
ATOM     24  C   UNK A   0     -36.857  22.792   1.580  0.00  0.00    +0.177 C 
BRANCH  24  25
ATOM     25  C   UNK A   0     -35.686  21.899   1.366  0.00  0.00    +0.035 C 
ATOM     26  C   UNK A   0     -33.492  20.224   0.961  0.00  0.00    +0.048 C 
ATOM     27  C   UNK A   0     -35.590  20.694   2.062  0.00  0.00    +0.004 C 
ATOM     28  C   UNK A   0     -34.684  22.266   0.466  0.00  0.00    +0.004 C 
ATOM     29  C   UNK A   0     -34.494  19.857   1.861  0.00  0.00    +0.015 C 
ATOM     30  C   UNK A   0     -33.588  21.428   0.264  0.00  0.00    +0.015 C 
BRANCH  26  31
ATOM     31  N   UNK A   0     -32.383  19.377   0.758  0.00  0.00    -0.304 N 
ATOM     32  C   UNK A   0     -31.252  19.825  -0.030  0.00  0.00    +0.112 C 
ATOM     33  C   UNK A   0     -32.357  18.050   1.339  0.00  0.00    +0.112 C 
ENDBRANCH  26  31
ENDBRANCH  24  25
ENDBRANCH  21  24
ENDBRANCH  18  21
ENDBRANCH   1  19
TORSDOF 13
ENDMDL
MODEL 3
REMARK VINA RESULT:      -6.4      6.726     10.658
REMARK  Name = 57331970
REMARK  13 active torsions:
REMARK  status: ('A' for Active; 'I' for Inactive)
REMARK    1  A    between atoms: C_1  and  C_19
REMARK    2  A    between atoms: C_2  and  C_5
REMARK    3  A    between atoms: N_4  and  CA_7
REMARK    4  A    between atoms: CA_7  and  C_9
REMARK    5  A    between atoms: CA_7  and  CB_12
REMARK    6  A    between atoms: C_9  and  O_10
REMARK    7  A    between atoms: CB_12  and  CG_13
REMARK    8  A    between atoms: CG_13  and  CD_15
REMARK    9  A    between atoms: CD_15  and  OE1_16
REMARK   10  A    between atoms: C_18  and  C_21
REMARK   11  A    between atoms: C_21  and  C_24
REMARK   12  A    between atoms: C_24  and  C_25
REMARK   13  A    between atoms: C_26  and  N_31
REMARK                            x       y       z     vdW  Elec       q    Type
REMARK                         _______ _______ _______ _____ _____    ______ ____
ROOT
ATOM      1  C   UNK A   0     -34.549  19.948   1.424  0.00  0.00    +0.000 C 
ATOM      2  C   UNK A   0     -33.307  19.508   1.169  0.00  0.00    +0.057 C 
ENDROOT
BRANCH   2   5
ATOM      3  O   UNK A   0     -32.093  17.512   1.662  0.00  0.00    -0.270 OA
ATOM      4  N   GLU A   1     -33.962  17.394   0.286  0.00  0.00    -0.293 N 
ATOM      5  C   UNK A   0     -33.035  18.044   1.083  0.00  0.00    +0.246 C 
ATOM      6  H   GLU A   1     -34.679  17.924  -0.130  0.00  0.00    +0.150 HD
BRANCH   4   7
ATOM      7  CA  GLU A   1     -33.921  15.970   0.037  0.00  0.00    +0.172 C 
BRANCH   7   9
ATOM      8  OXT GLU A   1     -32.104  16.058  -1.582  0.00  0.00    -0.248 OA
ATOM      9  C   GLU A   1     -32.553  15.641  -0.522  0.00  0.00    +0.332 C 
BRANCH   9  10
ATOM     10  O   GLU A   1     -31.841  14.841   0.316  0.00  0.00    -0.479 OA
ATOM     11  H   GLU A   1     -32.217  14.559   1.126  0.00  0.00    +0.295 HD
ENDBRANCH   9  10
ENDBRANCH   7   9
BRANCH   7  12
ATOM     12  CB  GLU A   1     -35.082  15.490  -0.842  0.00  0.00    +0.043 C 
BRANCH  12  13
ATOM     13  CG  GLU A   1     -36.179  16.524  -1.123  0.00  0.00    +0.112 C 
BRANCH  13  15
ATOM     14  OE2 GLU A   1     -38.099  15.713   0.139  0.00  0.00    -0.250 OA
ATOM     15  CD  GLU A   1     -37.255  16.577  -0.060  0.00  0.00    +0.314 C 
BRANCH  15  16
ATOM     16  OE1 GLU A   1     -37.208  17.737   0.643  0.00  0.00    -0.480 OA
ATOM     17  HE1 GLU A   1     -37.598  17.787   1.493  0.00  0.00    +0.295 HD
ENDBRANCH  15  16
ENDBRANCH  13  15
ENDBRANCH  12  13
ENDBRANCH   7  12
ENDBRANCH   4   7
ENDBRANCH   2   5
BRANCH   1  19
ATOM     18  C   UNK A   0     -35.887  21.676   2.468  0.00  0.00    -0.023 C 
ATOM     19  C   UNK A   0     -34.966  21.348   1.538  0.00  0.00    -0.026 C 
ATOM     20  C   UNK A   0     -34.348  22.343   0.590  0.00  0.00    +0.031 C 
BRANCH  18  21
ATOM     21  C   UNK A   0     -36.437  23.052   2.771  0.00  0.00    +0.084 C 
ATOM     22  C   UNK A   0     -37.963  23.060   2.713  0.00  0.00    +0.013 C 
BRANCH  21  24
ATOM     23  O   UNK A   0     -36.343  22.824   5.176  0.00  0.00    -0.291 OA
ATOM     24  C   UNK A   0     -35.977  23.440   4.175  0.00  0.00    +0.177 C 
BRANCH  24  25
ATOM     25  C   UNK A   0     -35.056  24.596   4.348  0.00  0.00    +0.035 C 
ATOM     26  C   UNK A   0     -33.328  26.762   4.671  0.00  0.00    +0.048 C 
ATOM     27  C   UNK A   0     -34.806  25.106   5.622  0.00  0.00    +0.004 C 
ATOM     28  C   UNK A   0     -34.441  25.170   3.235  0.00  0.00    +0.004 C 
ATOM     29  C   UNK A   0     -33.943  26.188   5.784  0.00  0.00    +0.015 C 
ATOM     30  C   UNK A   0     -33.577  26.253   3.397  0.00  0.00    +0.015 C 
BRANCH  26  31
ATOM     31  N   UNK A   0     -32.455  27.857   4.835  0.00  0.00    -0.304 N 
ATOM     32  C   UNK A   0     -32.078  28.303   6.162  0.00  0.00    +0.112 C 
ATOM     33  C   UNK A   0     -31.917  28.548   3.680  0.00  0.00    +0.112 C 
ENDBRANCH  26  31
ENDBRANCH  24  25
ENDBRANCH  21  24
ENDBRANCH  18  21
ENDBRANCH   1  19
TORSDOF 13
ENDMDL
MODEL 4
REMARK VINA RESULT:      -6.2      6.122      9.830
REMARK  Name = 57331970
REMARK  13 active torsions:
REMARK  status: ('A' for Active; 'I' for Inactive)
REMARK    1  A    between atoms: C_1  and  C_19
REMARK    2  A    between atoms: C_2  and  C_5
REMARK    3  A    between atoms: N_4  and  CA_7
REMARK    4  A    between atoms: CA_7  and  C_9
REMARK    5  A    between atoms: CA_7  and  CB_12
REMARK    6  A    between atoms: C_9  and  O_10
REMARK    7  A    between atoms: CB_12  and  CG_13
REMARK    8  A    between atoms: CG_13  and  CD_15
REMARK    9  A    between atoms: CD_15  and  OE1_16
REMARK   10  A    between atoms: C_18  and  C_21
REMARK   11  A    between atoms: C_21  and  C_24
REMARK   12  A    between atoms: C_24  and  C_25
REMARK   13  A    between atoms: C_26  and  N_31
REMARK                            x       y       z     vdW  Elec       q    Type
REMARK                         _______ _______ _______ _____ _____    ______ ____
ROOT
ATOM      1  C   UNK A   0     -34.288  24.876   4.917  0.00  0.00    +0.000 C 
ATOM      2  C   UNK A   0     -34.384  25.942   5.726  0.00  0.00    +0.057 C 
ENDROOT
BRANCH   2   5
ATOM      3  O   UNK A   0     -32.594  26.853   7.018  0.00  0.00    -0.270 OA
ATOM      4  N   GLU A   1     -32.888  27.564   4.826  0.00  0.00    -0.293 N 
ATOM      5  C   UNK A   0     -33.198  26.819   5.951  0.00  0.00    +0.246 C 
ATOM      6  H   GLU A   1     -33.445  27.455   4.021  0.00  0.00    +0.150 HD
BRANCH   4   7
ATOM      7  CA  GLU A   1     -31.784  28.496   4.781  0.00  0.00    +0.172 C 
BRANCH   7   9
ATOM      8  OXT GLU A   1     -31.907  30.421   6.268  0.00  0.00    -0.248 OA
ATOM      9  C   GLU A   1     -32.295  29.837   5.264  0.00  0.00    +0.332 C 
BRANCH   9  10
ATOM     10  O   GLU A   1     -33.226  30.358   4.421  0.00  0.00    -0.479 OA
ATOM     11  H   GLU A   1     -33.009  31.089   3.878  0.00  0.00    +0.295 HD
ENDBRANCH   9  10
ENDBRANCH   7   9
BRANCH   7  12
ATOM     12  CB  GLU A   1     -31.109  28.549   3.405  0.00  0.00    +0.043 C 
BRANCH  12  13
ATOM     13  CG  GLU A   1     -31.711  27.635   2.330  0.00  0.00    +0.112 C 
BRANCH  13  15
ATOM     14  OE2 GLU A   1     -30.850  25.915   0.834  0.00  0.00    -0.250 OA
ATOM     15  CD  GLU A   1     -30.793  26.510   1.902  0.00  0.00    +0.314 C 
BRANCH  15  16
ATOM     16  OE1 GLU A   1     -29.900  26.195   2.875  0.00  0.00    -0.480 OA
ATOM     17  HE1 GLU A   1     -29.866  26.701   3.662  0.00  0.00    +0.295 HD
ENDBRANCH  15  16
ENDBRANCH  13  15
ENDBRANCH  12  13
ENDBRANCH   7  12
ENDBRANCH   4   7
ENDBRANCH   2   5
BRANCH   1  19
ATOM     18  C   UNK A   0     -36.201  24.214   3.585  0.00  0.00    -0.023 C 
ATOM     19  C   UNK A   0     -35.361  23.928   4.603  0.00  0.00    -0.026 C 
ATOM     20  C   UNK A   0     -35.474  22.689   5.453  0.00  0.00    +0.031 C 
BRANCH  18  21
ATOM     21  C   UNK A   0     -37.350  23.372   3.080  0.00  0.00    +0.084 C 
ATOM     22  C   UNK A   0     -38.653  24.170   3.065  0.00  0.00    +0.013 C 
BRANCH  21  24
ATOM     23  O   UNK A   0     -37.668  23.287   0.685  0.00  0.00    -0.291 OA
ATOM     24  C   UNK A   0     -37.011  22.923   1.660  0.00  0.00    +0.177 C 
BRANCH  24  25
ATOM     25  C   UNK A   0     -35.849  22.020   1.438  0.00  0.00    +0.035 C 
ATOM     26  C   UNK A   0     -33.671  20.326   1.025  0.00  0.00    +0.048 C 
ATOM     27  C   UNK A   0     -34.826  22.398   0.569  0.00  0.00    +0.004 C 
ATOM     28  C   UNK A   0     -35.783  20.793   2.101  0.00  0.00    +0.004 C 
ATOM     29  C   UNK A   0     -33.737  21.552   0.362  0.00  0.00    +0.015 C 
ATOM     30  C   UNK A   0     -34.693  19.947   1.895  0.00  0.00    +0.015 C 
BRANCH  26  31
ATOM     31  N   UNK A   0     -32.570  19.471   0.815  0.00  0.00    -0.304 N 
ATOM     32  C   UNK A   0     -32.555  18.140   1.389  0.00  0.00    +0.112 C 
ATOM     33  C   UNK A   0     -31.441  19.909   0.018  0.00  0.00    +0.112 C 
ENDBRANCH  26  31
ENDBRANCH  24  25
ENDBRANCH  21  24
ENDBRANCH  18  21
ENDBRANCH   1  19
TORSDOF 13
ENDMDL
MODEL 5
REMARK VINA RESULT:      -6.2      7.620     11.207
REMARK  Name = 57331970
REMARK  13 active torsions:
REMARK  status: ('A' for Active; 'I' for Inactive)
REMARK    1  A    between atoms: C_1  and  C_19
REMARK    2  A    between atoms: C_2  and  C_5
REMARK    3  A    between atoms: N_4  and  CA_7
REMARK    4  A    between atoms: CA_7  and  C_9
REMARK    5  A    between atoms: CA_7  and  CB_12
REMARK    6  A    between atoms: C_9  and  O_10
REMARK    7  A    between atoms: CB_12  and  CG_13
REMARK    8  A    between atoms: CG_13  and  CD_15
REMARK    9  A    between atoms: CD_15  and  OE1_16
REMARK   10  A    between atoms: C_18  and  C_21
REMARK   11  A    between atoms: C_21  and  C_24
REMARK   12  A    between atoms: C_24  and  C_25
REMARK   13  A    between atoms: C_26  and  N_31
REMARK                            x       y       z     vdW  Elec       q    Type
REMARK                         _______ _______ _______ _____ _____    ______ ____
ROOT
ATOM      1  C   UNK A   0     -34.587  24.355   4.829  0.00  0.00    +0.000 C 
ATOM      2  C   UNK A   0     -34.039  25.301   4.051  0.00  0.00    +0.057 C 
ENDROOT
BRANCH   2   5
ATOM      3  O   UNK A   0     -33.739  26.863   5.832  0.00  0.00    -0.270 OA
ATOM      4  N   GLU A   1     -33.265  27.519   3.654  0.00  0.00    -0.293 N 
ATOM      5  C   UNK A   0     -33.673  26.626   4.630  0.00  0.00    +0.246 C 
ATOM      6  H   GLU A   1     -33.252  27.218   2.717  0.00  0.00    +0.150 HD
BRANCH   4   7
ATOM      7  CA  GLU A   1     -32.859  28.874   3.950  0.00  0.00    +0.172 C 
BRANCH   7   9
ATOM      8  OXT GLU A   1     -33.416  30.738   2.485  0.00  0.00    -0.248 OA
ATOM      9  C   GLU A   1     -33.779  29.806   3.191  0.00  0.00    +0.332 C 
BRANCH   9  10
ATOM     10  O   GLU A   1     -35.086  29.466   3.348  0.00  0.00    -0.479 OA
ATOM     11  H   GLU A   1     -35.693  30.087   3.700  0.00  0.00    +0.295 HD
ENDBRANCH   9  10
ENDBRANCH   7   9
BRANCH   7  12
ATOM     12  CB  GLU A   1     -31.369  29.119   3.679  0.00  0.00    +0.043 C 
BRANCH  12  13
ATOM     13  CG  GLU A   1     -30.391  28.317   4.547  0.00  0.00    +0.112 C 
BRANCH  13  15
ATOM     14  OE2 GLU A   1     -30.230  29.636   6.589  0.00  0.00    -0.250 OA
ATOM     15  CD  GLU A   1     -30.527  28.588   6.029  0.00  0.00    +0.314 C 
BRANCH  15  16
ATOM     16  OE1 GLU A   1     -30.988  27.500   6.698  0.00  0.00    -0.480 OA
ATOM     17  HE1 GLU A   1     -31.777  27.079   6.419  0.00  0.00    +0.295 HD
ENDBRANCH  15  16
ENDBRANCH  13  15
ENDBRANCH  12  13
ENDBRANCH   7  12
ENDBRANCH   4   7
ENDBRANCH   2   5
BRANCH   1  19
ATOM     18  C   UNK A   0     -35.154  22.772   3.085  0.00  0.00    -0.023 C 
ATOM     19  C   UNK A   0     -34.997  23.014   4.404  0.00  0.00    -0.026 C 
ATOM     20  C   UNK A   0     -35.240  21.982   5.475  0.00  0.00    +0.031 C 
BRANCH  18  21
ATOM     21  C   UNK A   0     -35.543  21.465   2.431  0.00  0.00    +0.084 C 
ATOM     22  C   UNK A   0     -37.053  21.388   2.213  0.00  0.00    +0.013 C 
BRANCH  21  24
ATOM     23  O   UNK A   0     -35.149  22.096   0.131  0.00  0.00    -0.291 OA
ATOM     24  C   UNK A   0     -34.828  21.386   1.084  0.00  0.00    +0.177 C 
BRANCH  24  25
ATOM     25  C   UNK A   0     -33.706  20.425   0.909  0.00  0.00    +0.035 C 
ATOM     26  C   UNK A   0     -31.601  18.622   0.585  0.00  0.00    +0.048 C 
ATOM     27  C   UNK A   0     -32.604  20.772   0.127  0.00  0.00    +0.004 C 
ATOM     28  C   UNK A   0     -33.755  19.175   1.529  0.00  0.00    +0.004 C 
ATOM     29  C   UNK A   0     -31.552  19.872  -0.035  0.00  0.00    +0.015 C 
ATOM     30  C   UNK A   0     -32.702  18.275   1.366  0.00  0.00    +0.015 C 
BRANCH  26  31
ATOM     31  N   UNK A   0     -30.537  17.712   0.420  0.00  0.00    -0.304 N 
ATOM     32  C   UNK A   0     -29.177  18.110   0.725  0.00  0.00    +0.112 C 
ATOM     33  C   UNK A   0     -30.789  16.365  -0.052  0.00  0.00    +0.112 C 
ENDBRANCH  26  31
ENDBRANCH  24  25
ENDBRANCH  21  24
ENDBRANCH  18  21
ENDBRANCH   1  19
TORSDOF 13
ENDMDL
MODEL 6
REMARK VINA RESULT:      -6.1      6.184     11.439
REMARK  Name = 57331970
REMARK  13 active torsions:
REMARK  status: ('A' for Active; 'I' for Inactive)
REMARK    1  A    between atoms: C_1  and  C_19
REMARK    2  A    between atoms: C_2  and  C_5
REMARK    3  A    between atoms: N_4  and  CA_7
REMARK    4  A    between atoms: CA_7  and  C_9
REMARK    5  A    between atoms: CA_7  and  CB_12
REMARK    6  A    between atoms: C_9  and  O_10
REMARK    7  A    between atoms: CB_12  and  CG_13
REMARK    8  A    between atoms: CG_13  and  CD_15
REMARK    9  A    between atoms: CD_15  and  OE1_16
REMARK   10  A    between atoms: C_18  and  C_21
REMARK   11  A    between atoms: C_21  and  C_24
REMARK   12  A    between atoms: C_24  and  C_25
REMARK   13  A    between atoms: C_26  and  N_31
REMARK                            x       y       z     vdW  Elec       q    Type
REMARK                         _______ _______ _______ _____ _____    ______ ____
ROOT
ATOM      1  C   UNK A   0     -35.260  21.723   1.879  0.00  0.00    +0.000 C 
ATOM      2  C   UNK A   0     -35.515  21.439   3.165  0.00  0.00    +0.057 C 
ENDROOT
BRANCH   2   5
ATOM      3  O   UNK A   0     -35.889  22.460   5.291  0.00  0.00    -0.270 OA
ATOM      4  N   GLU A   1     -36.711  23.489   3.376  0.00  0.00    -0.293 N 
ATOM      5  C   UNK A   0     -36.044  22.496   4.074  0.00  0.00    +0.246 C 
ATOM      6  H   GLU A   1     -36.774  23.414   2.397  0.00  0.00    +0.150 HD
BRANCH   4   7
ATOM      7  CA  GLU A   1     -37.320  24.629   4.023  0.00  0.00    +0.172 C 
BRANCH   7   9
ATOM      8  OXT GLU A   1     -39.261  24.221   2.609  0.00  0.00    -0.248 OA
ATOM      9  C   GLU A   1     -38.551  25.005   3.226  0.00  0.00    +0.332 C 
BRANCH   9  10
ATOM     10  O   GLU A   1     -38.816  26.337   3.299  0.00  0.00    -0.479 OA
ATOM     11  H   GLU A   1     -38.291  26.889   3.844  0.00  0.00    +0.295 HD
ENDBRANCH   9  10
ENDBRANCH   7   9
BRANCH   7  12
ATOM     12  CB  GLU A   1     -36.338  25.788   4.229  0.00  0.00    +0.043 C 
BRANCH  12  13
ATOM     13  CG  GLU A   1     -35.742  25.917   5.637  0.00  0.00    +0.112 C 
BRANCH  13  15
ATOM     14  OE2 GLU A   1     -33.534  26.804   6.157  0.00  0.00    -0.250 OA
ATOM     15  CD  GLU A   1     -34.229  25.929   5.660  0.00  0.00    +0.314 C 
BRANCH  15  16
ATOM     16  OE1 GLU A   1     -33.710  24.852   5.016  0.00  0.00    -0.480 OA
ATOM     17  HE1 GLU A   1     -34.218  24.402   4.370  0.00  0.00    +0.295 HD
ENDBRANCH  15  16
ENDBRANCH  13  15
ENDBRANCH  12  13
ENDBRANCH   7  12
ENDBRANCH   4   7
ENDBRANCH   2   5
BRANCH   1  19
ATOM     18  C   UNK A   0     -33.466  20.362   0.985  0.00  0.00    -0.023 C 
ATOM     19  C   UNK A   0     -34.740  20.793   0.872  0.00  0.00    -0.026 C 
ATOM     20  C   UNK A   0     -35.661  20.384  -0.248  0.00  0.00    +0.031 C 
BRANCH  18  21
ATOM     21  C   UNK A   0     -32.741  19.390   0.081  0.00  0.00    +0.084 C 
ATOM     22  C   UNK A   0     -31.313  19.856  -0.196  0.00  0.00    +0.013 C 
BRANCH  21  24
ATOM     23  O   UNK A   0     -32.163  17.876   1.874  0.00  0.00    -0.291 OA
ATOM     24  C   UNK A   0     -32.709  18.034   0.783  0.00  0.00    +0.177 C 
BRANCH  24  25
ATOM     25  C   UNK A   0     -33.357  16.862   0.135  0.00  0.00    +0.035 C 
ATOM     26  C   UNK A   0     -34.571  14.665  -1.083  0.00  0.00    +0.048 C 
ATOM     27  C   UNK A   0     -34.747  16.800   0.033  0.00  0.00    +0.004 C 
ATOM     28  C   UNK A   0     -32.574  15.824  -0.373  0.00  0.00    +0.004 C 
ATOM     29  C   UNK A   0     -35.354  15.702  -0.576  0.00  0.00    +0.015 C 
ATOM     30  C   UNK A   0     -33.182  14.726  -0.982  0.00  0.00    +0.015 C 
BRANCH  26  31
ATOM     31  N   UNK A   0     -35.186  13.554  -1.698  0.00  0.00    -0.304 N 
ATOM     32  C   UNK A   0     -36.534  13.658  -2.220  0.00  0.00    +0.112 C 
ATOM     33  C   UNK A   0     -34.476  12.297  -1.822  0.00  0.00    +0.112 C 
ENDBRANCH  26  31
ENDBRANCH  24  25
ENDBRANCH  21  24
ENDBRANCH  18  21
ENDBRANCH   1  19
TORSDOF 13
ENDMDL
MODEL 7
REMARK VINA RESULT:      -6.0      6.192      9.764
REMARK  Name = 57331970
REMARK  13 active torsions:
REMARK  status: ('A' for Active; 'I' for Inactive)
REMARK    1  A    between atoms: C_1  and  C_19
REMARK    2  A    between atoms: C_2  and  C_5
REMARK    3  A    between atoms: N_4  and  CA_7
REMARK    4  A    between atoms: CA_7  and  C_9
REMARK    5  A    between atoms: CA_7  and  CB_12
REMARK    6  A    between atoms: C_9  and  O_10
REMARK    7  A    between atoms: CB_12  and  CG_13
REMARK    8  A    between atoms: CG_13  and  CD_15
REMARK    9  A    between atoms: CD_15  and  OE1_16
REMARK   10  A    between atoms: C_18  and  C_21
REMARK   11  A    between atoms: C_21  and  C_24
REMARK   12  A    between atoms: C_24  and  C_25
REMARK   13  A    between atoms: C_26  and  N_31
REMARK                            x       y       z     vdW  Elec       q    Type
REMARK                         _______ _______ _______ _____ _____    ______ ____
ROOT
ATOM      1  C   UNK A   0     -34.027  25.247   4.428  0.00  0.00    +0.000 C 
ATOM      2  C   UNK A   0     -33.758  26.207   3.530  0.00  0.00    +0.057 C 
ENDROOT
BRANCH   2   5
ATOM      3  O   UNK A   0     -31.551  27.024   3.126  0.00  0.00    -0.270 OA
ATOM      4  N   GLU A   1     -32.883  28.085   4.707  0.00  0.00    -0.293 N 
ATOM      5  C   UNK A   0     -32.606  27.129   3.745  0.00  0.00    +0.246 C 
ATOM      6  H   GLU A   1     -33.768  28.073   5.140  0.00  0.00    +0.150 HD
BRANCH   4   7
ATOM      7  CA  GLU A   1     -31.932  29.098   5.105  0.00  0.00    +0.172 C 
BRANCH   7   9
ATOM      8  OXT GLU A   1     -31.704  29.655   7.465  0.00  0.00    -0.248 OA
ATOM      9  C   GLU A   1     -31.573  28.847   6.554  0.00  0.00    +0.332 C 
BRANCH   9  10
ATOM     10  O   GLU A   1     -31.113  27.583   6.751  0.00  0.00    -0.479 OA
ATOM     11  H   GLU A   1     -31.221  26.936   6.083  0.00  0.00    +0.295 HD
ENDBRANCH   9  10
ENDBRANCH   7   9
BRANCH   7  12
ATOM     12  CB  GLU A   1     -32.433  30.521   4.828  0.00  0.00    +0.043 C 
BRANCH  12  13
ATOM     13  CG  GLU A   1     -32.637  30.883   3.352  0.00  0.00    +0.112 C 
BRANCH  13  15
ATOM     14  OE2 GLU A   1     -34.959  30.161   3.504  0.00  0.00    -0.250 OA
ATOM     15  CD  GLU A   1     -34.058  30.693   2.868  0.00  0.00    +0.314 C 
BRANCH  15  16
ATOM     16  OE1 GLU A   1     -34.222  31.152   1.601  0.00  0.00    -0.480 OA
ATOM     17  HE1 GLU A   1     -34.022  32.044   1.396  0.00  0.00    +0.295 HD
ENDBRANCH  15  16
ENDBRANCH  13  15
ENDBRANCH  12  13
ENDBRANCH   7  12
ENDBRANCH   4   7
ENDBRANCH   2   5
BRANCH   1  19
ATOM     18  C   UNK A   0     -36.036  24.401   3.369  0.00  0.00    -0.023 C 
ATOM     19  C   UNK A   0     -35.120  24.273   4.353  0.00  0.00    -0.026 C 
ATOM     20  C   UNK A   0     -35.167  23.189   5.399  0.00  0.00    +0.031 C 
BRANCH  18  21
ATOM     21  C   UNK A   0     -37.220  23.502   3.095  0.00  0.00    +0.084 C 
ATOM     22  C   UNK A   0     -38.528  24.292   3.114  0.00  0.00    +0.013 C 
BRANCH  21  24
ATOM     23  O   UNK A   0     -37.797  23.091   0.784  0.00  0.00    -0.291 OA
ATOM     24  C   UNK A   0     -37.022  22.877   1.715  0.00  0.00    +0.177 C 
BRANCH  24  25
ATOM     25  C   UNK A   0     -35.856  21.982   1.480  0.00  0.00    +0.035 C 
ATOM     26  C   UNK A   0     -33.672  20.305   1.035  0.00  0.00    +0.048 C 
ATOM     27  C   UNK A   0     -35.713  20.811   2.224  0.00  0.00    +0.004 C 
ATOM     28  C   UNK A   0     -34.906  22.315   0.513  0.00  0.00    +0.004 C 
ATOM     29  C   UNK A   0     -34.622  19.972   2.002  0.00  0.00    +0.015 C 
ATOM     30  C   UNK A   0     -33.814  21.475   0.291  0.00  0.00    +0.015 C 
BRANCH  26  31
ATOM     31  N   UNK A   0     -32.568  19.456   0.812  0.00  0.00    -0.304 N 
ATOM     32  C   UNK A   0     -32.538  18.125   1.384  0.00  0.00    +0.112 C 
ATOM     33  C   UNK A   0     -31.451  19.901   0.003  0.00  0.00    +0.112 C 
ENDBRANCH  26  31
ENDBRANCH  24  25
ENDBRANCH  21  24
ENDBRANCH  18  21
ENDBRANCH   1  19
TORSDOF 13
ENDMDL
MODEL 8
REMARK VINA RESULT:      -6.0      5.611      9.811
REMARK  Name = 57331970
REMARK  13 active torsions:
REMARK  status: ('A' for Active; 'I' for Inactive)
REMARK    1  A    between atoms: C_1  and  C_19
REMARK    2  A    between atoms: C_2  and  C_5
REMARK    3  A    between atoms: N_4  and  CA_7
REMARK    4  A    between atoms: CA_7  and  C_9
REMARK    5  A    between atoms: CA_7  and  CB_12
REMARK    6  A    between atoms: C_9  and  O_10
REMARK    7  A    between atoms: CB_12  and  CG_13
REMARK    8  A    between atoms: CG_13  and  CD_15
REMARK    9  A    between atoms: CD_15  and  OE1_16
REMARK   10  A    between atoms: C_18  and  C_21
REMARK   11  A    between atoms: C_21  and  C_24
REMARK   12  A    between atoms: C_24  and  C_25
REMARK   13  A    between atoms: C_26  and  N_31
REMARK                            x       y       z     vdW  Elec       q    Type
REMARK                         _______ _______ _______ _____ _____    ______ ____
ROOT
ATOM      1  C   UNK A   0     -34.385  25.884   5.114  0.00  0.00    +0.000 C 
ATOM      2  C   UNK A   0     -34.175  24.599   4.792  0.00  0.00    +0.057 C 
ENDROOT
BRANCH   2   5
ATOM      3  O   UNK A   0     -35.972  23.333   5.724  0.00  0.00    -0.270 OA
ATOM      4  N   GLU A   1     -35.538  23.181   3.446  0.00  0.00    -0.293 N 
ATOM      5  C   UNK A   0     -35.321  23.646   4.732  0.00  0.00    +0.246 C 
ATOM      6  H   GLU A   1     -34.950  23.502   2.725  0.00  0.00    +0.150 HD
BRANCH   4   7
ATOM      7  CA  GLU A   1     -36.587  22.243   3.118  0.00  0.00    +0.172 C 
BRANCH   7   9
ATOM      8  OXT GLU A   1     -34.859  21.007   1.926  0.00  0.00    -0.248 OA
ATOM      9  C   GLU A   1     -35.935  21.018   2.511  0.00  0.00    +0.332 C 
BRANCH   9  10
ATOM     10  O   GLU A   1     -36.671  19.894   2.723  0.00  0.00    -0.479 OA
ATOM     11  H   GLU A   1     -37.207  19.823   3.487  0.00  0.00    +0.295 HD
ENDBRANCH   9  10
ENDBRANCH   7   9
BRANCH   7  12
ATOM     12  CB  GLU A   1     -37.680  22.862   2.238  0.00  0.00    +0.043 C 
BRANCH  12  13
ATOM     13  CG  GLU A   1     -37.716  24.394   2.196  0.00  0.00    +0.112 C 
BRANCH  13  15
ATOM     14  OE2 GLU A   1     -39.625  24.579   3.698  0.00  0.00    -0.250 OA
ATOM     15  CD  GLU A   1     -38.557  25.016   3.290  0.00  0.00    +0.314 C 
BRANCH  15  16
ATOM     16  OE1 GLU A   1     -38.004  26.165   3.755  0.00  0.00    -0.480 OA
ATOM     17  HE1 GLU A   1     -37.547  26.167   4.573  0.00  0.00    +0.295 HD
ENDBRANCH  15  16
ENDBRANCH  13  15
ENDBRANCH  12  13
ENDBRANCH   7  12
ENDBRANCH   4   7
ENDBRANCH   2   5
BRANCH   1  19
ATOM     18  C   UNK A   0     -33.048  27.636   4.106  0.00  0.00    -0.023 C 
ATOM     19  C   UNK A   0     -33.363  26.930   5.214  0.00  0.00    -0.026 C 
ATOM     20  C   UNK A   0     -32.707  27.145   6.553  0.00  0.00    +0.031 C 
BRANCH  18  21
ATOM     21  C   UNK A   0     -32.051  28.766   3.990  0.00  0.00    +0.084 C 
ATOM     22  C   UNK A   0     -31.558  28.921   2.552  0.00  0.00    +0.013 C 
BRANCH  21  24
ATOM     23  O   UNK A   0     -32.619  30.507   5.568  0.00  0.00    -0.291 OA
ATOM     24  C   UNK A   0     -32.747  30.051   4.432  0.00  0.00    +0.177 C 
BRANCH  24  25
ATOM     25  C   UNK A   0     -33.609  30.784   3.465  0.00  0.00    +0.035 C 
ATOM     26  C   UNK A   0     -35.225  32.154   1.650  0.00  0.00    +0.048 C 
ATOM     27  C   UNK A   0     -33.116  31.907   2.801  0.00  0.00    +0.004 C 
ATOM     28  C   UNK A   0     -34.911  30.346   3.221  0.00  0.00    +0.004 C 
ATOM     29  C   UNK A   0     -33.923  32.592   1.894  0.00  0.00    +0.015 C 
ATOM     30  C   UNK A   0     -35.719  31.031   2.313  0.00  0.00    +0.015 C 
BRANCH  26  31
ATOM     31  N   UNK A   0     -36.041  32.848   0.733  0.00  0.00    -0.304 N 
ATOM     32  C   UNK A   0     -35.639  34.146   0.229  0.00  0.00    +0.112 C 
ATOM     33  C   UNK A   0     -37.290  32.270   0.277  0.00  0.00    +0.112 C 
ENDBRANCH  26  31
ENDBRANCH  24  25
ENDBRANCH  21  24
ENDBRANCH  18  21
ENDBRANCH   1  19
TORSDOF 13
ENDMDL
MODEL 9
REMARK VINA RESULT:      -6.0      6.752     11.889
REMARK  Name = 57331970
REMARK  13 active torsions:
REMARK  status: ('A' for Active; 'I' for Inactive)
REMARK    1  A    between atoms: C_1  and  C_19
REMARK    2  A    between atoms: C_2  and  C_5
REMARK    3  A    between atoms: N_4  and  CA_7
REMARK    4  A    between atoms: CA_7  and  C_9
REMARK    5  A    between atoms: CA_7  and  CB_12
REMARK    6  A    between atoms: C_9  and  O_10
REMARK    7  A    between atoms: CB_12  and  CG_13
REMARK    8  A    between atoms: CG_13  and  CD_15
REMARK    9  A    between atoms: CD_15  and  OE1_16
REMARK   10  A    between atoms: C_18  and  C_21
REMARK   11  A    between atoms: C_21  and  C_24
REMARK   12  A    between atoms: C_24  and  C_25
REMARK   13  A    between atoms: C_26  and  N_31
REMARK                            x       y       z     vdW  Elec       q    Type
REMARK                         _______ _______ _______ _____ _____    ______ ____
ROOT
ATOM      1  C   UNK A   0     -35.465  21.004   1.781  0.00  0.00    +0.000 C 
ATOM      2  C   UNK A   0     -36.213  22.083   1.503  0.00  0.00    +0.057 C 
ENDROOT
BRANCH   2   5
ATOM      3  O   UNK A   0     -38.006  22.621   2.985  0.00  0.00    -0.270 OA
ATOM      4  N   GLU A   1     -36.020  23.820   3.122  0.00  0.00    -0.293 N 
ATOM      5  C   UNK A   0     -36.861  22.849   2.606  0.00  0.00    +0.246 C 
ATOM      6  H   GLU A   1     -35.118  23.914   2.738  0.00  0.00    +0.150 HD
BRANCH   4   7
ATOM      7  CA  GLU A   1     -36.408  24.703   4.199  0.00  0.00    +0.172 C 
BRANCH   7   9
ATOM      8  OXT GLU A   1     -36.338  26.512   2.570  0.00  0.00    -0.248 OA
ATOM      9  C   GLU A   1     -36.201  26.126   3.723  0.00  0.00    +0.332 C 
BRANCH   9  10
ATOM     10  O   GLU A   1     -35.876  26.960   4.746  0.00  0.00    -0.479 OA
ATOM     11  H   GLU A   1     -36.543  27.460   5.173  0.00  0.00    +0.295 HD
ENDBRANCH   9  10
ENDBRANCH   7   9
BRANCH   7  12
ATOM     12  CB  GLU A   1     -35.692  24.380   5.516  0.00  0.00    +0.043 C 
BRANCH  12  13
ATOM     13  CG  GLU A   1     -34.683  23.227   5.463  0.00  0.00    +0.112 C 
BRANCH  13  15
ATOM     14  OE2 GLU A   1     -34.965  20.817   5.246  0.00  0.00    -0.250 OA
ATOM     15  CD  GLU A   1     -35.285  21.873   5.773  0.00  0.00    +0.314 C 
BRANCH  15  16
ATOM     16  OE1 GLU A   1     -36.277  21.966   6.696  0.00  0.00    -0.480 OA
ATOM     17  HE1 GLU A   1     -36.112  22.381   7.520  0.00  0.00    +0.295 HD
ENDBRANCH  15  16
ENDBRANCH  13  15
ENDBRANCH  12  13
ENDBRANCH   7  12
ENDBRANCH   4   7
ENDBRANCH   2   5
BRANCH   1  19
ATOM     18  C   UNK A   0     -33.436  19.996   0.923  0.00  0.00    -0.023 C 
ATOM     19  C   UNK A   0     -34.772  20.156   0.808  0.00  0.00    -0.026 C 
ATOM     20  C   UNK A   0     -35.595  19.522  -0.283  0.00  0.00    +0.031 C 
BRANCH  18  21
ATOM     21  C   UNK A   0     -32.534  19.153   0.051  0.00  0.00    +0.084 C 
ATOM     22  C   UNK A   0     -31.142  19.774  -0.063  0.00  0.00    +0.013 C 
BRANCH  21  24
ATOM     23  O   UNK A   0     -31.893  17.597   1.786  0.00  0.00    -0.291 OA
ATOM     24  C   UNK A   0     -32.425  17.770   0.690  0.00  0.00    +0.177 C 
BRANCH  24  25
ATOM     25  C   UNK A   0     -32.978  16.590  -0.027  0.00  0.00    +0.035 C 
ATOM     26  C   UNK A   0     -34.015  14.378  -1.375  0.00  0.00    +0.048 C 
ATOM     27  C   UNK A   0     -34.336  16.285   0.073  0.00  0.00    +0.004 C 
ATOM     28  C   UNK A   0     -32.139  15.788  -0.801  0.00  0.00    +0.004 C 
ATOM     29  C   UNK A   0     -34.855  15.180  -0.601  0.00  0.00    +0.015 C 
ATOM     30  C   UNK A   0     -32.658  14.682  -1.476  0.00  0.00    +0.015 C 
BRANCH  26  31
ATOM     31  N   UNK A   0     -34.540  13.260  -2.055  0.00  0.00    -0.304 N 
ATOM     32  C   UNK A   0     -35.959  13.173  -2.339  0.00  0.00    +0.112 C 
ATOM     33  C   UNK A   0     -33.668  12.185  -2.485  0.00  0.00    +0.112 C 
ENDBRANCH  26  31
ENDBRANCH  24  25
ENDBRANCH  21  24
ENDBRANCH  18  21
ENDBRANCH   1  19
TORSDOF 13
ENDMDL
