MODEL 1
REMARK VINA RESULT:      -6.0      0.000      0.000
REMARK  Name = 5218261
REMARK  11 active torsions:
REMARK  status: ('A' for Active; 'I' for Inactive)
REMARK    1  A    between atoms: C_6  and  O_12
REMARK    2  A    between atoms: C_9  and  O_16
REMARK    3  A    between atoms: C_10  and  C_23
REMARK    4  A    between atoms: O_12  and  C_14
REMARK    5  A    between atoms: O_16  and  C_18
REMARK    6  A    between atoms: C_18  and  C_19
REMARK    7  A    between atoms: C_19  and  C_20
REMARK    8  A    between atoms: C_23  and  O_24
REMARK    9  A    between atoms: O_24  and  C_26
REMARK   10  A    between atoms: C_26  and  C_27
REMARK   11  A    between atoms: C_27  and  C_28
REMARK                            x       y       z     vdW  Elec       q    Type
REMARK                         _______ _______ _______ _____ _____    ______ ____
ROOT
ATOM      1  O   UNL     1     -34.173  22.206   5.711  0.00  0.00    -0.350 OA
ATOM      2  O   UNL     1     -36.081  25.907   5.677  0.00  0.00    -0.440 OA
ATOM      3  C   UNL     1     -35.079  23.065   4.999  0.00  0.00    +0.164 C 
ATOM      4  C   UNL     1     -34.463  24.389   4.589  0.00  0.00    +0.119 C 
ATOM      5  C   UNL     1     -35.093  24.672   3.197  0.00  0.00    +0.038 C 
ATOM      6  C   UNL     1     -35.782  22.435   3.827  0.00  0.00    +0.196 C 
ATOM      7  C   UNL     1     -35.343  22.620   6.422  0.00  0.00    +0.173 C 
ATOM      8  C   UNL     1     -35.280  23.253   2.635  0.00  0.00    +0.051 C 
ATOM      9  C   UNL     1     -34.701  25.547   5.558  0.00  0.00    +0.345 C 
ATOM     10  C   UNL     1     -36.378  25.464   3.316  0.00  0.00    +0.036 C 
ATOM     11  C   UNL     1     -36.765  25.975   4.494  0.00  0.00    +0.171 C 
ENDROOT
BRANCH   6  12
ATOM     12  O   UNL     1     -35.446  21.069   3.644  0.00  0.00    -0.450 OA
BRANCH  12  14
ATOM     13  O   UNL     1     -36.960  20.504   1.993  0.00  0.00    -0.250 OA
ATOM     14  C   UNL     1     -35.826  20.520   2.452  0.00  0.00    +0.318 C 
ATOM     15  C   UNL     1     -34.633  19.927   1.763  0.00  0.00    +0.121 C 
ENDBRANCH  12  14
ENDBRANCH   6  12
BRANCH   9  16
ATOM     16  O   UNL     1     -33.915  26.663   5.129  0.00  0.00    -0.414 OA
BRANCH  16  18
ATOM     17  O   UNL     1     -32.787  26.653   7.141  0.00  0.00    -0.250 OA
ATOM     18  C   UNL     1     -32.955  27.082   6.008  0.00  0.00    +0.319 C 
BRANCH  18  19
ATOM     19  C   UNL     1     -32.150  28.195   5.371  0.00  0.00    +0.110 C 
BRANCH  19  20
ATOM     20  C   UNL     1     -31.713  29.276   6.373  0.00  0.00    +0.011 C 
ATOM     21  C   UNL     1     -30.208  29.215   6.642  0.00  0.00    +0.001 C 
ATOM     22  C   UNL     1     -32.089  30.662   5.844  0.00  0.00    +0.001 C 
ENDBRANCH  19  20
ENDBRANCH  18  19
ENDBRANCH  16  18
ENDBRANCH   9  16
BRANCH  10  23
ATOM     23  C   UNL     1     -37.193  25.677   2.074  0.00  0.00    +0.234 C 
BRANCH  23  24
ATOM     24  O   UNL     1     -37.421  27.061   1.882  0.00  0.00    -0.444 OA
BRANCH  24  26
ATOM     25  O   UNL     1     -36.320  27.207  -0.139  0.00  0.00    -0.250 OA
ATOM     26  C   UNL     1     -36.629  27.679   0.947  0.00  0.00    +0.317 C 
BRANCH  26  27
ATOM     27  C   UNL     1     -36.163  29.017   1.481  0.00  0.00    +0.110 C 
BRANCH  27  28
ATOM     28  C   UNL     1     -35.058  28.893   2.540  0.00  0.00    +0.011 C 
ATOM     29  C   UNL     1     -33.854  28.113   2.004  0.00  0.00    +0.001 C 
ATOM     30  C   UNL     1     -34.611  30.282   2.998  0.00  0.00    +0.001 C 
ENDBRANCH  27  28
ENDBRANCH  26  27
ENDBRANCH  24  26
ENDBRANCH  23  24
ENDBRANCH  10  23
TORSDOF 11
ENDMDL
MODEL 2
REMARK VINA RESULT:      -6.0      1.734      2.886
REMARK  Name = 5218261
REMARK  11 active torsions:
REMARK  status: ('A' for Active; 'I' for Inactive)
REMARK    1  A    between atoms: C_6  and  O_12
REMARK    2  A    between atoms: C_9  and  O_16
REMARK    3  A    between atoms: C_10  and  C_23
REMARK    4  A    between atoms: O_12  and  C_14
REMARK    5  A    between atoms: O_16  and  C_18
REMARK    6  A    between atoms: C_18  and  C_19
REMARK    7  A    between atoms: C_19  and  C_20
REMARK    8  A    between atoms: C_23  and  O_24
REMARK    9  A    between atoms: O_24  and  C_26
REMARK   10  A    between atoms: C_26  and  C_27
REMARK   11  A    between atoms: C_27  and  C_28
REMARK                            x       y       z     vdW  Elec       q    Type
REMARK                         _______ _______ _______ _____ _____    ______ ____
ROOT
ATOM      1  O   UNL     1     -34.318  21.958   5.745  0.00  0.00    -0.350 OA
ATOM      2  O   UNL     1     -35.607  25.914   5.595  0.00  0.00    -0.440 OA
ATOM      3  C   UNL     1     -35.049  22.938   4.989  0.00  0.00    +0.164 C 
ATOM      4  C   UNL     1     -34.215  24.139   4.587  0.00  0.00    +0.119 C 
ATOM      5  C   UNL     1     -34.742  24.494   3.169  0.00  0.00    +0.038 C 
ATOM      6  C   UNL     1     -35.801  22.407   3.799  0.00  0.00    +0.196 C 
ATOM      7  C   UNL     1     -35.432  22.566   6.406  0.00  0.00    +0.173 C 
ATOM      8  C   UNL     1     -35.132  23.114   2.617  0.00  0.00    +0.051 C 
ATOM      9  C   UNL     1     -34.299  25.337   5.532  0.00  0.00    +0.345 C 
ATOM     10  C   UNL     1     -35.887  25.483   3.229  0.00  0.00    +0.036 C 
ATOM     11  C   UNL     1     -36.229  26.070   4.386  0.00  0.00    +0.171 C 
ENDROOT
BRANCH   6  12
ATOM     12  O   UNL     1     -35.681  21.002   3.644  0.00  0.00    -0.450 OA
BRANCH  12  14
ATOM     13  O   UNL     1     -37.040  20.553   1.831  0.00  0.00    -0.250 OA
ATOM     14  C   UNL     1     -35.956  20.517   2.397  0.00  0.00    +0.318 C 
ATOM     15  C   UNL     1     -34.716  19.921   1.799  0.00  0.00    +0.121 C 
ENDBRANCH  12  14
ENDBRANCH   6  12
BRANCH   9  16
ATOM     16  O   UNL     1     -33.329  26.305   5.121  0.00  0.00    -0.414 OA
BRANCH  16  18
ATOM     17  O   UNL     1     -32.999  26.942   7.313  0.00  0.00    -0.250 OA
ATOM     18  C   UNL     1     -32.840  27.111   6.112  0.00  0.00    +0.319 C 
BRANCH  18  19
ATOM     19  C   UNL     1     -32.099  28.274   5.487  0.00  0.00    +0.110 C 
BRANCH  19  20
ATOM     20  C   UNL     1     -31.677  29.341   6.509  0.00  0.00    +0.011 C 
ATOM     21  C   UNL     1     -30.175  29.276   6.799  0.00  0.00    +0.001 C 
ATOM     22  C   UNL     1     -32.044  30.734   5.991  0.00  0.00    +0.001 C 
ENDBRANCH  19  20
ENDBRANCH  18  19
ENDBRANCH  16  18
ENDBRANCH   9  16
BRANCH  10  23
ATOM     23  C   UNL     1     -36.612  25.801   1.955  0.00  0.00    +0.234 C 
BRANCH  23  24
ATOM     24  O   UNL     1     -37.990  25.986   2.221  0.00  0.00    -0.444 OA
BRANCH  24  26
ATOM     25  O   UNL     1     -38.541  23.845   1.568  0.00  0.00    -0.250 OA
ATOM     26  C   UNL     1     -38.762  24.852   2.226  0.00  0.00    +0.317 C 
BRANCH  26  27
ATOM     27  C   UNL     1     -39.952  25.052   3.141  0.00  0.00    +0.110 C 
BRANCH  27  28
ATOM     28  C   UNL     1     -40.958  26.083   2.607  0.00  0.00    +0.011 C 
ATOM     29  C   UNL     1     -41.920  25.454   1.596  0.00  0.00    +0.001 C 
ATOM     30  C   UNL     1     -41.750  26.692   3.765  0.00  0.00    +0.001 C 
ENDBRANCH  27  28
ENDBRANCH  26  27
ENDBRANCH  24  26
ENDBRANCH  23  24
ENDBRANCH  10  23
TORSDOF 11
ENDMDL
MODEL 3
REMARK VINA RESULT:      -6.0      1.485      2.834
REMARK  Name = 5218261
REMARK  11 active torsions:
REMARK  status: ('A' for Active; 'I' for Inactive)
REMARK    1  A    between atoms: C_6  and  O_12
REMARK    2  A    between atoms: C_9  and  O_16
REMARK    3  A    between atoms: C_10  and  C_23
REMARK    4  A    between atoms: O_12  and  C_14
REMARK    5  A    between atoms: O_16  and  C_18
REMARK    6  A    between atoms: C_18  and  C_19
REMARK    7  A    between atoms: C_19  and  C_20
REMARK    8  A    between atoms: C_23  and  O_24
REMARK    9  A    between atoms: O_24  and  C_26
REMARK   10  A    between atoms: C_26  and  C_27
REMARK   11  A    between atoms: C_27  and  C_28
REMARK                            x       y       z     vdW  Elec       q    Type
REMARK                         _______ _______ _______ _____ _____    ______ ____
ROOT
ATOM      1  O   UNL     1     -34.422  21.990   5.691  0.00  0.00    -0.350 OA
ATOM      2  O   UNL     1     -35.684  25.955   5.548  0.00  0.00    -0.440 OA
ATOM      3  C   UNL     1     -35.146  22.976   4.936  0.00  0.00    +0.164 C 
ATOM      4  C   UNL     1     -34.303  24.172   4.537  0.00  0.00    +0.119 C 
ATOM      5  C   UNL     1     -34.827  24.533   3.119  0.00  0.00    +0.038 C 
ATOM      6  C   UNL     1     -35.901  22.452   3.745  0.00  0.00    +0.196 C 
ATOM      7  C   UNL     1     -35.532  22.604   6.352  0.00  0.00    +0.173 C 
ATOM      8  C   UNL     1     -35.227  23.156   2.565  0.00  0.00    +0.051 C 
ATOM      9  C   UNL     1     -34.380  25.369   5.485  0.00  0.00    +0.345 C 
ATOM     10  C   UNL     1     -35.965  25.529   3.181  0.00  0.00    +0.036 C 
ATOM     11  C   UNL     1     -36.304  26.116   4.339  0.00  0.00    +0.171 C 
ENDROOT
BRANCH   6  12
ATOM     12  O   UNL     1     -35.791  21.047   3.588  0.00  0.00    -0.450 OA
BRANCH  12  14
ATOM     13  O   UNL     1     -37.032  20.663   1.678  0.00  0.00    -0.250 OA
ATOM     14  C   UNL     1     -35.996  20.573   2.323  0.00  0.00    +0.318 C 
ATOM     15  C   UNL     1     -34.747  19.914   1.817  0.00  0.00    +0.121 C 
ENDBRANCH  12  14
ENDBRANCH   6  12
BRANCH   9  16
ATOM     16  O   UNL     1     -33.404  26.331   5.076  0.00  0.00    -0.414 OA
BRANCH  16  18
ATOM     17  O   UNL     1     -33.006  26.895   7.277  0.00  0.00    -0.250 OA
ATOM     18  C   UNL     1     -32.867  27.092   6.078  0.00  0.00    +0.319 C 
BRANCH  18  19
ATOM     19  C   UNL     1     -32.100  28.246   5.468  0.00  0.00    +0.110 C 
BRANCH  19  20
ATOM     20  C   UNL     1     -31.666  29.297   6.503  0.00  0.00    +0.011 C 
ATOM     21  C   UNL     1     -30.165  29.211   6.792  0.00  0.00    +0.001 C 
ATOM     22  C   UNL     1     -32.017  30.700   6.003  0.00  0.00    +0.001 C 
ENDBRANCH  19  20
ENDBRANCH  18  19
ENDBRANCH  16  18
ENDBRANCH   9  16
BRANCH  10  23
ATOM     23  C   UNL     1     -36.688  25.855   1.907  0.00  0.00    +0.234 C 
BRANCH  23  24
ATOM     24  O   UNL     1     -37.809  26.673   2.187  0.00  0.00    -0.444 OA
BRANCH  24  26
ATOM     25  O   UNL     1     -40.108  26.695   2.009  0.00  0.00    -0.250 OA
ATOM     26  C   UNL     1     -39.017  26.224   1.717  0.00  0.00    +0.317 C 
BRANCH  26  27
ATOM     27  C   UNL     1     -38.797  25.030   0.811  0.00  0.00    +0.110 C 
BRANCH  27  28
ATOM     28  C   UNL     1     -39.723  23.848   1.134  0.00  0.00    +0.011 C 
ATOM     29  C   UNL     1     -39.647  22.766   0.054  0.00  0.00    +0.001 C 
ATOM     30  C   UNL     1     -39.354  23.249   2.493  0.00  0.00    +0.001 C 
ENDBRANCH  27  28
ENDBRANCH  26  27
ENDBRANCH  24  26
ENDBRANCH  23  24
ENDBRANCH  10  23
TORSDOF 11
ENDMDL
MODEL 4
REMARK VINA RESULT:      -5.9      4.341      7.824
REMARK  Name = 5218261
REMARK  11 active torsions:
REMARK  status: ('A' for Active; 'I' for Inactive)
REMARK    1  A    between atoms: C_6  and  O_12
REMARK    2  A    between atoms: C_9  and  O_16
REMARK    3  A    between atoms: C_10  and  C_23
REMARK    4  A    between atoms: O_12  and  C_14
REMARK    5  A    between atoms: O_16  and  C_18
REMARK    6  A    between atoms: C_18  and  C_19
REMARK    7  A    between atoms: C_19  and  C_20
REMARK    8  A    between atoms: C_23  and  O_24
REMARK    9  A    between atoms: O_24  and  C_26
REMARK   10  A    between atoms: C_26  and  C_27
REMARK   11  A    between atoms: C_27  and  C_28
REMARK                            x       y       z     vdW  Elec       q    Type
REMARK                         _______ _______ _______ _____ _____    ______ ____
ROOT
ATOM      1  O   UNL     1     -42.422  23.954   0.607  0.00  0.00    -0.350 OA
ATOM      2  O   UNL     1     -39.784  26.988   1.691  0.00  0.00    -0.440 OA
ATOM      3  C   UNL     1     -41.081  24.267   1.018  0.00  0.00    +0.164 C 
ATOM      4  C   UNL     1     -41.005  24.950   2.370  0.00  0.00    +0.119 C 
ATOM      5  C   UNL     1     -39.718  24.359   3.009  0.00  0.00    +0.038 C 
ATOM      6  C   UNL     1     -40.104  23.124   0.959  0.00  0.00    +0.196 C 
ATOM      7  C   UNL     1     -41.696  24.857  -0.233  0.00  0.00    +0.173 C 
ATOM      8  C   UNL     1     -39.691  22.939   2.421  0.00  0.00    +0.051 C 
ATOM      9  C   UNL     1     -40.960  26.477   2.328  0.00  0.00    +0.345 C 
ATOM     10  C   UNL     1     -38.497  25.189   2.674  0.00  0.00    +0.036 C 
ATOM     11  C   UNL     1     -38.617  26.371   2.051  0.00  0.00    +0.171 C 
ENDROOT
BRANCH   6  12
ATOM     12  O   UNL     1     -40.678  21.923   0.469  0.00  0.00    -0.450 OA
BRANCH  12  14
ATOM     13  O   UNL     1     -39.972  19.993  -0.585  0.00  0.00    -0.250 OA
ATOM     14  C   UNL     1     -39.897  21.198  -0.386  0.00  0.00    +0.318 C 
ATOM     15  C   UNL     1     -38.913  22.102  -1.066  0.00  0.00    +0.121 C 
ENDBRANCH  12  14
ENDBRANCH   6  12
BRANCH   9  16
ATOM     16  O   UNL     1     -41.074  26.969   3.666  0.00  0.00    -0.414 OA
BRANCH  16  18
ATOM     17  O   UNL     1     -42.001  28.845   4.637  0.00  0.00    -0.250 OA
ATOM     18  C   UNL     1     -42.064  27.890   3.875  0.00  0.00    +0.319 C 
BRANCH  18  19
ATOM     19  C   UNL     1     -43.272  27.518   3.042  0.00  0.00    +0.110 C 
BRANCH  19  20
ATOM     20  C   UNL     1     -44.260  26.604   3.784  0.00  0.00    +0.011 C 
ATOM     21  C   UNL     1     -45.272  27.416   4.597  0.00  0.00    +0.001 C 
ATOM     22  C   UNL     1     -44.998  25.711   2.784  0.00  0.00    +0.001 C 
ENDBRANCH  19  20
ENDBRANCH  18  19
ENDBRANCH  16  18
ENDBRANCH   9  16
BRANCH  10  23
ATOM     23  C   UNL     1     -37.151  24.661   3.080  0.00  0.00    +0.234 C 
BRANCH  23  24
ATOM     24  O   UNL     1     -37.122  24.450   4.479  0.00  0.00    -0.444 OA
BRANCH  24  26
ATOM     25  O   UNL     1     -35.809  25.594   5.992  0.00  0.00    -0.250 OA
ATOM     26  C   UNL     1     -35.942  24.755   5.111  0.00  0.00    +0.317 C 
BRANCH  26  27
ATOM     27  C   UNL     1     -34.822  23.923   4.523  0.00  0.00    +0.110 C 
BRANCH  27  28
ATOM     28  C   UNL     1     -34.810  22.476   5.039  0.00  0.00    +0.011 C 
ATOM     29  C   UNL     1     -35.546  22.353   6.376  0.00  0.00    +0.001 C 
ATOM     30  C   UNL     1     -35.451  21.546   4.008  0.00  0.00    +0.001 C 
ENDBRANCH  27  28
ENDBRANCH  26  27
ENDBRANCH  24  26
ENDBRANCH  23  24
ENDBRANCH  10  23
TORSDOF 11
ENDMDL
MODEL 5
REMARK VINA RESULT:      -5.9      1.678      5.221
REMARK  Name = 5218261
REMARK  11 active torsions:
REMARK  status: ('A' for Active; 'I' for Inactive)
REMARK    1  A    between atoms: C_6  and  O_12
REMARK    2  A    between atoms: C_9  and  O_16
REMARK    3  A    between atoms: C_10  and  C_23
REMARK    4  A    between atoms: O_12  and  C_14
REMARK    5  A    between atoms: O_16  and  C_18
REMARK    6  A    between atoms: C_18  and  C_19
REMARK    7  A    between atoms: C_19  and  C_20
REMARK    8  A    between atoms: C_23  and  O_24
REMARK    9  A    between atoms: O_24  and  C_26
REMARK   10  A    between atoms: C_26  and  C_27
REMARK   11  A    between atoms: C_27  and  C_28
REMARK                            x       y       z     vdW  Elec       q    Type
REMARK                         _______ _______ _______ _____ _____    ______ ____
ROOT
ATOM      1  O   UNL     1     -36.037  27.801   1.722  0.00  0.00    -0.350 OA
ATOM      2  O   UNL     1     -33.115  25.737   3.852  0.00  0.00    -0.440 OA
ATOM      3  C   UNL     1     -35.758  26.655   2.543  0.00  0.00    +0.164 C 
ATOM      4  C   UNL     1     -35.231  27.011   3.921  0.00  0.00    +0.119 C 
ATOM      5  C   UNL     1     -35.875  25.942   4.847  0.00  0.00    +0.038 C 
ATOM      6  C   UNL     1     -36.875  25.654   2.658  0.00  0.00    +0.196 C 
ATOM      7  C   UNL     1     -35.037  26.902   1.235  0.00  0.00    +0.173 C 
ATOM      8  C   UNL     1     -37.220  25.681   4.149  0.00  0.00    +0.051 C 
ATOM      9  C   UNL     1     -33.708  27.023   4.054  0.00  0.00    +0.345 C 
ATOM     10  C   UNL     1     -34.998  24.716   4.979  0.00  0.00    +0.036 C 
ATOM     11  C   UNL     1     -33.755  24.700   4.475  0.00  0.00    +0.171 C 
ENDROOT
BRANCH   6  12
ATOM     12  O   UNL     1     -38.019  26.004   1.897  0.00  0.00    -0.450 OA
BRANCH  12  14
ATOM     13  O   UNL     1     -39.961  24.823   1.485  0.00  0.00    -0.250 OA
ATOM     14  C   UNL     1     -38.748  24.959   1.405  0.00  0.00    +0.318 C 
ATOM     15  C   UNL     1     -37.836  23.975   0.733  0.00  0.00    +0.121 C 
ENDBRANCH  12  14
ENDBRANCH   6  12
BRANCH   9  16
ATOM     16  O   UNL     1     -33.373  27.548   5.341  0.00  0.00    -0.414 OA
BRANCH  16  18
ATOM     17  O   UNL     1     -31.300  27.676   6.346  0.00  0.00    -0.250 OA
ATOM     18  C   UNL     1     -32.093  28.010   5.476  0.00  0.00    +0.319 C 
BRANCH  18  19
ATOM     19  C   UNL     1     -31.819  29.037   4.397  0.00  0.00    +0.110 C 
BRANCH  19  20
ATOM     20  C   UNL     1     -32.351  30.436   4.746  0.00  0.00    +0.011 C 
ATOM     21  C   UNL     1     -31.213  31.452   4.871  0.00  0.00    +0.001 C 
ATOM     22  C   UNL     1     -33.343  30.899   3.676  0.00  0.00    +0.001 C 
ENDBRANCH  19  20
ENDBRANCH  18  19
ENDBRANCH  16  18
ENDBRANCH   9  16
BRANCH  10  23
ATOM     23  C   UNL     1     -35.553  23.527   5.708  0.00  0.00    +0.234 C 
BRANCH  23  24
ATOM     24  O   UNL     1     -36.248  22.691   4.802  0.00  0.00    -0.444 OA
BRANCH  24  26
ATOM     25  O   UNL     1     -35.039  20.742   5.037  0.00  0.00    -0.250 OA
ATOM     26  C   UNL     1     -35.559  21.600   4.336  0.00  0.00    +0.317 C 
BRANCH  26  27
ATOM     27  C   UNL     1     -35.505  21.640   2.823  0.00  0.00    +0.110 C 
BRANCH  27  28
ATOM     28  C   UNL     1     -35.648  20.254   2.177  0.00  0.00    +0.011 C 
ATOM     29  C   UNL     1     -36.708  20.259   1.072  0.00  0.00    +0.001 C 
ATOM     30  C   UNL     1     -34.305  19.800   1.604  0.00  0.00    +0.001 C 
ENDBRANCH  27  28
ENDBRANCH  26  27
ENDBRANCH  24  26
ENDBRANCH  23  24
ENDBRANCH  10  23
TORSDOF 11
ENDMDL
MODEL 6
REMARK VINA RESULT:      -5.7      1.648      5.017
REMARK  Name = 5218261
REMARK  11 active torsions:
REMARK  status: ('A' for Active; 'I' for Inactive)
REMARK    1  A    between atoms: C_6  and  O_12
REMARK    2  A    between atoms: C_9  and  O_16
REMARK    3  A    between atoms: C_10  and  C_23
REMARK    4  A    between atoms: O_12  and  C_14
REMARK    5  A    between atoms: O_16  and  C_18
REMARK    6  A    between atoms: C_18  and  C_19
REMARK    7  A    between atoms: C_19  and  C_20
REMARK    8  A    between atoms: C_23  and  O_24
REMARK    9  A    between atoms: O_24  and  C_26
REMARK   10  A    between atoms: C_26  and  C_27
REMARK   11  A    between atoms: C_27  and  C_28
REMARK                            x       y       z     vdW  Elec       q    Type
REMARK                         _______ _______ _______ _____ _____    ______ ____
ROOT
ATOM      1  O   UNL     1     -37.901  24.014   3.196  0.00  0.00    -0.350 OA
ATOM      2  O   UNL     1     -35.316  26.482   1.060  0.00  0.00    -0.440 OA
ATOM      3  C   UNL     1     -36.599  24.622   3.165  0.00  0.00    +0.164 C 
ATOM      4  C   UNL     1     -36.638  26.137   3.118  0.00  0.00    +0.119 C 
ATOM      5  C   UNL     1     -35.430  26.563   3.998  0.00  0.00    +0.038 C 
ATOM      6  C   UNL     1     -35.644  24.160   4.233  0.00  0.00    +0.196 C 
ATOM      7  C   UNL     1     -37.080  23.694   2.070  0.00  0.00    +0.173 C 
ATOM      8  C   UNL     1     -35.377  25.434   5.039  0.00  0.00    +0.051 C 
ATOM      9  C   UNL     1     -36.557  26.749   1.720  0.00  0.00    +0.345 C 
ATOM     10  C   UNL     1     -34.165  26.708   3.178  0.00  0.00    +0.036 C 
ATOM     11  C   UNL     1     -34.201  26.636   1.839  0.00  0.00    +0.171 C 
ENDROOT
BRANCH   6  12
ATOM     12  O   UNL     1     -36.194  23.165   5.081  0.00  0.00    -0.450 OA
BRANCH  12  14
ATOM     13  O   UNL     1     -35.523  21.137   4.203  0.00  0.00    -0.250 OA
ATOM     14  C   UNL     1     -35.533  21.970   5.099  0.00  0.00    +0.318 C 
ATOM     15  C   UNL     1     -34.801  21.814   6.399  0.00  0.00    +0.121 C 
ENDBRANCH  12  14
ENDBRANCH   6  12
BRANCH   9  16
ATOM     16  O   UNL     1     -36.788  28.156   1.829  0.00  0.00    -0.414 OA
BRANCH  16  18
ATOM     17  O   UNL     1     -37.440  28.615  -0.335  0.00  0.00    -0.250 OA
ATOM     18  C   UNL     1     -36.760  28.853   0.653  0.00  0.00    +0.319 C 
BRANCH  18  19
ATOM     19  C   UNL     1     -35.721  29.950   0.750  0.00  0.00    +0.110 C 
BRANCH  19  20
ATOM     20  C   UNL     1     -35.263  30.223   2.191  0.00  0.00    +0.011 C 
ATOM     21  C   UNL     1     -33.741  30.361   2.279  0.00  0.00    +0.001 C 
ATOM     22  C   UNL     1     -35.929  31.497   2.719  0.00  0.00    +0.001 C 
ENDBRANCH  19  20
ENDBRANCH  18  19
ENDBRANCH  16  18
ENDBRANCH   9  16
BRANCH  10  23
ATOM     23  C   UNL     1     -32.876  26.955   3.906  0.00  0.00    +0.234 C 
BRANCH  23  24
ATOM     24  O   UNL     1     -33.040  28.024   4.819  0.00  0.00    -0.444 OA
BRANCH  24  26
ATOM     25  O   UNL     1     -32.581  26.801   6.720  0.00  0.00    -0.250 OA
ATOM     26  C   UNL     1     -32.508  27.836   6.070  0.00  0.00    +0.317 C 
BRANCH  26  27
ATOM     27  C   UNL     1     -31.851  29.116   6.541  0.00  0.00    +0.110 C 
BRANCH  27  28
ATOM     28  C   UNL     1     -30.999  29.791   5.456  0.00  0.00    +0.011 C 
ATOM     29  C   UNL     1     -31.499  31.206   5.152  0.00  0.00    +0.001 C 
ATOM     30  C   UNL     1     -29.534  29.844   5.896  0.00  0.00    +0.001 C 
ENDBRANCH  27  28
ENDBRANCH  26  27
ENDBRANCH  24  26
ENDBRANCH  23  24
ENDBRANCH  10  23
TORSDOF 11
ENDMDL
MODEL 7
REMARK VINA RESULT:      -5.7      2.763      7.202
REMARK  Name = 5218261
REMARK  11 active torsions:
REMARK  status: ('A' for Active; 'I' for Inactive)
REMARK    1  A    between atoms: C_6  and  O_12
REMARK    2  A    between atoms: C_9  and  O_16
REMARK    3  A    between atoms: C_10  and  C_23
REMARK    4  A    between atoms: O_12  and  C_14
REMARK    5  A    between atoms: O_16  and  C_18
REMARK    6  A    between atoms: C_18  and  C_19
REMARK    7  A    between atoms: C_19  and  C_20
REMARK    8  A    between atoms: C_23  and  O_24
REMARK    9  A    between atoms: O_24  and  C_26
REMARK   10  A    between atoms: C_26  and  C_27
REMARK   11  A    between atoms: C_27  and  C_28
REMARK                            x       y       z     vdW  Elec       q    Type
REMARK                         _______ _______ _______ _____ _____    ______ ____
ROOT
ATOM      1  O   UNL     1     -35.216  27.153   2.261  0.00  0.00    -0.350 OA
ATOM      2  O   UNL     1     -36.500  24.351   5.061  0.00  0.00    -0.440 OA
ATOM      3  C   UNL     1     -35.119  25.788   2.701  0.00  0.00    +0.164 C 
ATOM      4  C   UNL     1     -36.446  25.053   2.692  0.00  0.00    +0.119 C 
ATOM      5  C   UNL     1     -36.066  23.614   2.246  0.00  0.00    +0.038 C 
ATOM      6  C   UNL     1     -34.064  24.961   2.017  0.00  0.00    +0.196 C 
ATOM      7  C   UNL     1     -34.762  26.950   3.602  0.00  0.00    +0.173 C 
ATOM      8  C   UNL     1     -34.875  23.872   1.310  0.00  0.00    +0.051 C 
ATOM      9  C   UNL     1     -37.197  25.048   4.023  0.00  0.00    +0.345 C 
ATOM     10  C   UNL     1     -35.741  22.730   3.431  0.00  0.00    +0.036 C 
ATOM     11  C   UNL     1     -35.951  23.155   4.686  0.00  0.00    +0.171 C 
ENDROOT
BRANCH   6  12
ATOM     12  O   UNL     1     -33.313  25.693   1.062  0.00  0.00    -0.450 OA
BRANCH  12  14
ATOM     13  O   UNL     1     -31.447  25.849   2.415  0.00  0.00    -0.250 OA
ATOM     14  C   UNL     1     -31.974  25.794   1.312  0.00  0.00    +0.318 C 
ATOM     15  C   UNL     1     -31.217  25.825   0.018  0.00  0.00    +0.121 C 
ENDBRANCH  12  14
ENDBRANCH   6  12
BRANCH   9  16
ATOM     16  O   UNL     1     -38.494  24.483   3.807  0.00  0.00    -0.414 OA
BRANCH  16  18
ATOM     17  O   UNL     1     -39.389  26.445   2.989  0.00  0.00    -0.250 OA
ATOM     18  C   UNL     1     -39.339  25.224   3.028  0.00  0.00    +0.319 C 
BRANCH  18  19
ATOM     19  C   UNL     1     -40.238  24.291   2.244  0.00  0.00    +0.110 C 
BRANCH  19  20
ATOM     20  C   UNL     1     -39.460  23.304   1.359  0.00  0.00    +0.011 C 
ATOM     21  C   UNL     1     -39.541  21.877   1.907  0.00  0.00    +0.001 C 
ATOM     22  C   UNL     1     -40.005  23.341  -0.070  0.00  0.00    +0.001 C 
ENDBRANCH  19  20
ENDBRANCH  18  19
ENDBRANCH  16  18
ENDBRANCH   9  16
BRANCH  10  23
ATOM     23  C   UNL     1     -35.198  21.357   3.159  0.00  0.00    +0.234 C 
BRANCH  23  24
ATOM     24  O   UNL     1     -36.099  20.639   2.337  0.00  0.00    -0.444 OA
BRANCH  24  26
ATOM     25  O   UNL     1     -36.116  19.626   0.266  0.00  0.00    -0.250 OA
ATOM     26  C   UNL     1     -35.541  19.936   1.300  0.00  0.00    +0.317 C 
BRANCH  26  27
ATOM     27  C   UNL     1     -34.114  19.566   1.648  0.00  0.00    +0.110 C 
BRANCH  27  28
ATOM     28  C   UNL     1     -33.169  19.604   0.438  0.00  0.00    +0.011 C 
ATOM     29  C   UNL     1     -32.826  21.042   0.040  0.00  0.00    +0.001 C 
ATOM     30  C   UNL     1     -31.884  18.834   0.751  0.00  0.00    +0.001 C 
ENDBRANCH  27  28
ENDBRANCH  26  27
ENDBRANCH  24  26
ENDBRANCH  23  24
ENDBRANCH  10  23
TORSDOF 11
ENDMDL
MODEL 8
REMARK VINA RESULT:      -5.5      3.012      6.759
REMARK  Name = 5218261
REMARK  11 active torsions:
REMARK  status: ('A' for Active; 'I' for Inactive)
REMARK    1  A    between atoms: C_6  and  O_12
REMARK    2  A    between atoms: C_9  and  O_16
REMARK    3  A    between atoms: C_10  and  C_23
REMARK    4  A    between atoms: O_12  and  C_14
REMARK    5  A    between atoms: O_16  and  C_18
REMARK    6  A    between atoms: C_18  and  C_19
REMARK    7  A    between atoms: C_19  and  C_20
REMARK    8  A    between atoms: C_23  and  O_24
REMARK    9  A    between atoms: O_24  and  C_26
REMARK   10  A    between atoms: C_26  and  C_27
REMARK   11  A    between atoms: C_27  and  C_28
REMARK                            x       y       z     vdW  Elec       q    Type
REMARK                         _______ _______ _______ _____ _____    ______ ____
ROOT
ATOM      1  O   UNL     1     -39.269  25.214   3.031  0.00  0.00    -0.350 OA
ATOM      2  O   UNL     1     -35.897  23.452   1.337  0.00  0.00    -0.440 OA
ATOM      3  C   UNL     1     -38.786  24.202   2.130  0.00  0.00    +0.164 C 
ATOM      4  C   UNL     1     -37.876  23.186   2.793  0.00  0.00    +0.119 C 
ATOM      5  C   UNL     1     -38.245  21.850   2.091  0.00  0.00    +0.038 C 
ATOM      6  C   UNL     1     -39.842  23.502   1.319  0.00  0.00    +0.196 C 
ATOM      7  C   UNL     1     -38.471  25.670   1.934  0.00  0.00    +0.173 C 
ATOM      8  C   UNL     1     -39.739  22.049   1.789  0.00  0.00    +0.051 C 
ATOM      9  C   UNL     1     -36.380  23.482   2.684  0.00  0.00    +0.345 C 
ATOM     10  C   UNL     1     -37.393  21.609   0.864  0.00  0.00    +0.036 C 
ATOM     11  C   UNL     1     -36.350  22.404   0.583  0.00  0.00    +0.171 C 
ENDROOT
BRANCH   6  12
ATOM     12  O   UNL     1     -41.151  23.991   1.564  0.00  0.00    -0.450 OA
BRANCH  12  14
ATOM     13  O   UNL     1     -42.745  23.428  -0.009  0.00  0.00    -0.250 OA
ATOM     14  C   UNL     1     -41.922  24.204   0.457  0.00  0.00    +0.318 C 
ATOM     15  C   UNL     1     -41.617  25.553  -0.123  0.00  0.00    +0.121 C 
ENDBRANCH  12  14
ENDBRANCH   6  12
BRANCH   9  16
ATOM     16  O   UNL     1     -35.675  22.545   3.503  0.00  0.00    -0.414 OA
BRANCH  16  18
ATOM     17  O   UNL     1     -35.937  22.438   5.792  0.00  0.00    -0.250 OA
ATOM     18  C   UNL     1     -35.445  22.941   4.792  0.00  0.00    +0.319 C 
BRANCH  18  19
ATOM     19  C   UNL     1     -34.511  24.133   4.786  0.00  0.00    +0.110 C 
BRANCH  19  20
ATOM     20  C   UNL     1     -34.919  25.225   5.787  0.00  0.00    +0.011 C 
ATOM     21  C   UNL     1     -33.798  26.249   5.986  0.00  0.00    +0.001 C 
ATOM     22  C   UNL     1     -36.186  25.933   5.302  0.00  0.00    +0.001 C 
ENDBRANCH  19  20
ENDBRANCH  18  19
ENDBRANCH  16  18
ENDBRANCH   9  16
BRANCH  10  23
ATOM     23  C   UNL     1     -37.736  20.443  -0.017  0.00  0.00    +0.234 C 
BRANCH  23  24
ATOM     24  O   UNL     1     -36.888  19.350   0.283  0.00  0.00    -0.444 OA
BRANCH  24  26
ATOM     25  O   UNL     1     -35.683  19.675  -1.656  0.00  0.00    -0.250 OA
ATOM     26  C   UNL     1     -35.804  19.184  -0.542  0.00  0.00    +0.317 C 
BRANCH  26  27
ATOM     27  C   UNL     1     -34.797  18.267   0.121  0.00  0.00    +0.110 C 
BRANCH  27  28
ATOM     28  C   UNL     1     -33.664  19.026   0.828  0.00  0.00    +0.011 C 
ATOM     29  C   UNL     1     -34.186  19.817   2.031  0.00  0.00    +0.001 C 
ATOM     30  C   UNL     1     -32.580  18.047   1.283  0.00  0.00    +0.001 C 
ENDBRANCH  27  28
ENDBRANCH  26  27
ENDBRANCH  24  26
ENDBRANCH  23  24
ENDBRANCH  10  23
TORSDOF 11
ENDMDL
MODEL 9
REMARK VINA RESULT:      -5.5      3.589      6.952
REMARK  Name = 5218261
REMARK  11 active torsions:
REMARK  status: ('A' for Active; 'I' for Inactive)
REMARK    1  A    between atoms: C_6  and  O_12
REMARK    2  A    between atoms: C_9  and  O_16
REMARK    3  A    between atoms: C_10  and  C_23
REMARK    4  A    between atoms: O_12  and  C_14
REMARK    5  A    between atoms: O_16  and  C_18
REMARK    6  A    between atoms: C_18  and  C_19
REMARK    7  A    between atoms: C_19  and  C_20
REMARK    8  A    between atoms: C_23  and  O_24
REMARK    9  A    between atoms: O_24  and  C_26
REMARK   10  A    between atoms: C_26  and  C_27
REMARK   11  A    between atoms: C_27  and  C_28
REMARK                            x       y       z     vdW  Elec       q    Type
REMARK                         _______ _______ _______ _____ _____    ______ ____
ROOT
ATOM      1  O   UNL     1     -41.309  25.544   2.602  0.00  0.00    -0.350 OA
ATOM      2  O   UNL     1     -37.157  25.414   2.319  0.00  0.00    -0.440 OA
ATOM      3  C   UNL     1     -40.185  24.916   1.965  0.00  0.00    +0.164 C 
ATOM      4  C   UNL     1     -39.240  24.235   2.937  0.00  0.00    +0.119 C 
ATOM      5  C   UNL     1     -38.779  22.964   2.172  0.00  0.00    +0.038 C 
ATOM      6  C   UNL     1     -40.521  23.985   0.831  0.00  0.00    +0.196 C 
ATOM      7  C   UNL     1     -40.431  26.407   1.874  0.00  0.00    +0.173 C 
ATOM      8  C   UNL     1     -40.021  22.627   1.331  0.00  0.00    +0.051 C 
ATOM      9  C   UNL     1     -38.049  25.081   3.388  0.00  0.00    +0.345 C 
ATOM     10  C   UNL     1     -37.531  23.225   1.355  0.00  0.00    +0.036 C 
ATOM     11  C   UNL     1     -36.863  24.382   1.469  0.00  0.00    +0.171 C 
ENDROOT
BRANCH   6  12
ATOM     12  O   UNL     1     -41.911  23.912   0.562  0.00  0.00    -0.450 OA
BRANCH  12  14
ATOM     13  O   UNL     1     -41.624  24.980  -1.466  0.00  0.00    -0.250 OA
ATOM     14  C   UNL     1     -42.298  24.327  -0.681  0.00  0.00    +0.318 C 
ATOM     15  C   UNL     1     -43.695  23.858  -0.961  0.00  0.00    +0.121 C 
ENDBRANCH  12  14
ENDBRANCH   6  12
BRANCH   9  16
ATOM     16  O   UNL     1     -37.364  24.376   4.428  0.00  0.00    -0.414 OA
BRANCH  16  18
ATOM     17  O   UNL     1     -36.177  26.201   5.191  0.00  0.00    -0.250 OA
ATOM     18  C   UNL     1     -36.265  25.006   4.945  0.00  0.00    +0.319 C 
BRANCH  18  19
ATOM     19  C   UNL     1     -35.154  23.995   5.130  0.00  0.00    +0.110 C 
BRANCH  19  20
ATOM     20  C   UNL     1     -35.663  22.548   5.230  0.00  0.00    +0.011 C 
ATOM     21  C   UNL     1     -35.250  21.723   4.009  0.00  0.00    +0.001 C 
ATOM     22  C   UNL     1     -35.126  21.892   6.504  0.00  0.00    +0.001 C 
ENDBRANCH  19  20
ENDBRANCH  18  19
ENDBRANCH  16  18
ENDBRANCH   9  16
BRANCH  10  23
ATOM     23  C   UNL     1     -37.053  22.143   0.431  0.00  0.00    +0.234 C 
BRANCH  23  24
ATOM     24  O   UNL     1     -36.805  20.959   1.168  0.00  0.00    -0.444 OA
BRANCH  24  26
ATOM     25  O   UNL     1     -36.859  18.788   0.393  0.00  0.00    -0.250 OA
ATOM     26  C   UNL     1     -36.331  19.890   0.450  0.00  0.00    +0.317 C 
BRANCH  26  27
ATOM     27  C   UNL     1     -35.032  20.271  -0.229  0.00  0.00    +0.110 C 
BRANCH  27  28
ATOM     28  C   UNL     1     -33.848  20.369   0.745  0.00  0.00    +0.011 C 
ATOM     29  C   UNL     1     -33.554  19.020   1.406  0.00  0.00    +0.001 C 
ATOM     30  C   UNL     1     -32.602  20.866   0.008  0.00  0.00    +0.001 C 
ENDBRANCH  27  28
ENDBRANCH  26  27
ENDBRANCH  24  26
ENDBRANCH  23  24
ENDBRANCH  10  23
TORSDOF 11
ENDMDL
