MODEL 1
REMARK VINA RESULT:      -6.6      0.000      0.000
REMARK  Name = 52948006
REMARK  9 active torsions:
REMARK  status: ('A' for Active; 'I' for Inactive)
REMARK    1  A    between atoms: C_4  and  O_17
REMARK    2  A    between atoms: C_11  and  C_28
REMARK    3  A    between atoms: O_17  and  C_19
REMARK    4  A    between atoms: C_19  and  C_20
REMARK    5  A    between atoms: C_20  and  C_22
REMARK    6  A    between atoms: C_22  and  O_23
REMARK    7  A    between atoms: C_22  and  C_25
REMARK    8  A    between atoms: C_25  and  O_26
REMARK    9  A    between atoms: C_28  and  O_29
REMARK                            x       y       z     vdW  Elec       q    Type
REMARK                         _______ _______ _______ _____ _____    ______ ____
ROOT
ATOM      1  O   UNL     1     -39.104  20.227   0.149  0.00  0.00    -0.449 OA
ATOM      2  O   UNL     1     -41.165  21.147   0.577  0.00  0.00    -0.245 OA
ATOM      3  C   UNL     1     -37.814  21.231   1.870  0.00  0.00    +0.109 C 
ATOM      4  C   UNL     1     -36.620  22.127   2.315  0.00  0.00    +0.177 C 
ATOM      5  C   UNL     1     -37.747  20.585   0.470  0.00  0.00    +0.177 C 
ATOM      6  C   UNL     1     -35.285  21.429   2.695  0.00  0.00    +0.044 C 
ATOM      7  C   UNL     1     -39.153  21.905   1.692  0.00  0.00    +0.060 C 
ATOM      8  C   UNL     1     -36.924  19.336   0.394  0.00  0.00    +0.047 C 
ATOM      9  C   UNL     1     -34.456  20.843   1.577  0.00  0.00    +0.004 C 
ATOM     10  C   UNL     1     -39.963  21.088   0.760  0.00  0.00    +0.337 C 
ATOM     11  C   UNL     1     -36.035  19.018  -0.572  0.00  0.00    +0.033 C 
ATOM     12  C   UNL     1     -34.948  18.002  -0.255  0.00  0.00    +0.003 C 
ATOM     13  C   UNL     1     -33.727  18.692   0.405  0.00  0.00    +0.000 C 
ATOM     14  C   UNL     1     -34.179  19.521   1.583  0.00  0.00    +0.000 C 
ATOM     15  C   UNL     1     -39.661  23.052   2.151  0.00  0.00    +0.002 C 
ATOM     16  C   UNL     1     -34.056  21.805   0.492  0.00  0.00    +0.000 C 
ENDROOT
BRANCH   4  17
ATOM     17  O   UNL     1     -36.995  22.814   3.522  0.00  0.00    -0.449 OA
BRANCH  17  19
ATOM     18  O   UNL     1     -36.252  24.892   2.879  0.00  0.00    -0.245 OA
ATOM     19  C   UNL     1     -36.395  24.015   3.721  0.00  0.00    +0.339 C 
BRANCH  19  20
ATOM     20  C   UNL     1     -35.886  24.137   5.120  0.00  0.00    +0.082 C 
ATOM     21  C   UNL     1     -35.566  23.043   5.830  0.00  0.00    +0.005 C 
BRANCH  20  22
ATOM     22  C   UNL     1     -35.758  25.518   5.720  0.00  0.00    +0.168 C 
BRANCH  22  23
ATOM     23  O   UNL     1     -36.789  26.355   5.195  0.00  0.00    -0.377 OA
ATOM     24  H   UNL     1     -37.650  25.923   5.314  0.00  0.00    +0.211 HD
ENDBRANCH  22  23
BRANCH  22  25
ATOM     25  C   UNL     1     -34.395  26.153   5.448  0.00  0.00    +0.171 C 
BRANCH  25  26
ATOM     26  O   UNL     1     -34.535  27.101   4.393  0.00  0.00    -0.379 OA
ATOM     27  H   UNL     1     -33.831  26.965   3.740  0.00  0.00    +0.211 HD
ENDBRANCH  25  26
ENDBRANCH  22  25
ENDBRANCH  20  22
ENDBRANCH  19  20
ENDBRANCH  17  19
ENDBRANCH   4  17
BRANCH  11  28
ATOM     28  C   UNL     1     -35.912  19.708  -1.900  0.00  0.00    +0.137 C 
BRANCH  28  29
ATOM     29  O   UNL     1     -36.952  19.278  -2.757  0.00  0.00    -0.382 OA
ATOM     30  H   UNL     1     -36.738  19.520  -3.672  0.00  0.00    +0.210 HD
ENDBRANCH  28  29
ENDBRANCH  11  28
TORSDOF 9
ENDMDL
MODEL 2
REMARK VINA RESULT:      -5.8      1.600      1.974
REMARK  Name = 52948006
REMARK  9 active torsions:
REMARK  status: ('A' for Active; 'I' for Inactive)
REMARK    1  A    between atoms: C_4  and  O_17
REMARK    2  A    between atoms: C_11  and  C_28
REMARK    3  A    between atoms: O_17  and  C_19
REMARK    4  A    between atoms: C_19  and  C_20
REMARK    5  A    between atoms: C_20  and  C_22
REMARK    6  A    between atoms: C_22  and  O_23
REMARK    7  A    between atoms: C_22  and  C_25
REMARK    8  A    between atoms: C_25  and  O_26
REMARK    9  A    between atoms: C_28  and  O_29
REMARK                            x       y       z     vdW  Elec       q    Type
REMARK                         _______ _______ _______ _____ _____    ______ ____
ROOT
ATOM      1  O   UNL     1     -39.643  22.553   0.774  0.00  0.00    -0.449 OA
ATOM      2  O   UNL     1     -41.248  24.032   1.491  0.00  0.00    -0.245 OA
ATOM      3  C   UNL     1     -38.086  22.702   2.560  0.00  0.00    +0.109 C 
ATOM      4  C   UNL     1     -36.655  23.026   3.080  0.00  0.00    +0.177 C 
ATOM      5  C   UNL     1     -38.248  22.351   1.066  0.00  0.00    +0.177 C 
ATOM      6  C   UNL     1     -35.653  21.851   3.243  0.00  0.00    +0.044 C 
ATOM      7  C   UNL     1     -39.102  23.819   2.592  0.00  0.00    +0.060 C 
ATOM      8  C   UNL     1     -37.917  20.933   0.716  0.00  0.00    +0.047 C 
ATOM      9  C   UNL     1     -35.081  21.237   1.988  0.00  0.00    +0.004 C 
ATOM     10  C   UNL     1     -40.145  23.527   1.583  0.00  0.00    +0.337 C 
ATOM     11  C   UNL     1     -37.195  20.515  -0.347  0.00  0.00    +0.033 C 
ATOM     12  C   UNL     1     -36.537  19.145  -0.286  0.00  0.00    +0.003 C 
ATOM     13  C   UNL     1     -35.153  19.231   0.406  0.00  0.00    +0.000 C 
ATOM     14  C   UNL     1     -35.288  19.926   1.740  0.00  0.00    +0.000 C 
ATOM     15  C   UNL     1     -39.174  24.962   3.279  0.00  0.00    +0.002 C 
ATOM     16  C   UNL     1     -34.364  22.187   1.069  0.00  0.00    +0.000 C 
ENDROOT
BRANCH   4  17
ATOM     17  O   UNL     1     -36.768  23.559   4.412  0.00  0.00    -0.449 OA
BRANCH  17  19
ATOM     18  O   UNL     1     -35.140  23.184   5.991  0.00  0.00    -0.245 OA
ATOM     19  C   UNL     1     -35.592  23.811   5.042  0.00  0.00    +0.339 C 
BRANCH  19  20
ATOM     20  C   UNL     1     -34.906  24.997   4.446  0.00  0.00    +0.082 C 
ATOM     21  C   UNL     1     -33.738  24.858   3.797  0.00  0.00    +0.005 C 
BRANCH  20  22
ATOM     22  C   UNL     1     -35.550  26.354   4.606  0.00  0.00    +0.168 C 
BRANCH  22  23
ATOM     23  O   UNL     1     -36.753  26.217   5.362  0.00  0.00    -0.377 OA
ATOM     24  H   UNL     1     -37.068  25.300   5.306  0.00  0.00    +0.211 HD
ENDBRANCH  22  23
BRANCH  22  25
ATOM     25  C   UNL     1     -35.859  27.020   3.266  0.00  0.00    +0.171 C 
BRANCH  25  26
ATOM     26  O   UNL     1     -35.305  28.333   3.269  0.00  0.00    -0.379 OA
ATOM     27  H   UNL     1     -34.354  28.283   3.086  0.00  0.00    +0.211 HD
ENDBRANCH  25  26
ENDBRANCH  22  25
ENDBRANCH  20  22
ENDBRANCH  19  20
ENDBRANCH  17  19
ENDBRANCH   4  17
BRANCH  11  28
ATOM     28  C   UNL     1     -36.833  21.358  -1.535  0.00  0.00    +0.137 C 
BRANCH  28  29
ATOM     29  O   UNL     1     -36.521  20.523  -2.634  0.00  0.00    -0.382 OA
ATOM     30  H   UNL     1     -36.511  21.049  -3.448  0.00  0.00    +0.210 HD
ENDBRANCH  28  29
ENDBRANCH  11  28
TORSDOF 9
ENDMDL
MODEL 3
REMARK VINA RESULT:      -5.8      1.415      1.721
REMARK  Name = 52948006
REMARK  9 active torsions:
REMARK  status: ('A' for Active; 'I' for Inactive)
REMARK    1  A    between atoms: C_4  and  O_17
REMARK    2  A    between atoms: C_11  and  C_28
REMARK    3  A    between atoms: O_17  and  C_19
REMARK    4  A    between atoms: C_19  and  C_20
REMARK    5  A    between atoms: C_20  and  C_22
REMARK    6  A    between atoms: C_22  and  O_23
REMARK    7  A    between atoms: C_22  and  C_25
REMARK    8  A    between atoms: C_25  and  O_26
REMARK    9  A    between atoms: C_28  and  O_29
REMARK                            x       y       z     vdW  Elec       q    Type
REMARK                         _______ _______ _______ _____ _____    ______ ____
ROOT
ATOM      1  O   UNL     1     -37.961  19.110  -0.784  0.00  0.00    -0.449 OA
ATOM      2  O   UNL     1     -40.053  20.047  -0.639  0.00  0.00    -0.245 OA
ATOM      3  C   UNL     1     -36.918  20.079   1.115  0.00  0.00    +0.109 C 
ATOM      4  C   UNL     1     -35.791  20.956   1.736  0.00  0.00    +0.177 C 
ATOM      5  C   UNL     1     -36.660  19.449  -0.270  0.00  0.00    +0.177 C 
ATOM      6  C   UNL     1     -34.530  20.240   2.292  0.00  0.00    +0.044 C 
ATOM      7  C   UNL     1     -38.213  20.769   0.759  0.00  0.00    +0.060 C 
ATOM      8  C   UNL     1     -35.845  18.192  -0.245  0.00  0.00    +0.047 C 
ATOM      9  C   UNL     1     -33.557  19.658   1.295  0.00  0.00    +0.004 C 
ATOM     10  C   UNL     1     -38.890  19.973  -0.289  0.00  0.00    +0.337 C 
ATOM     11  C   UNL     1     -34.832  17.876  -1.080  0.00  0.00    +0.033 C 
ATOM     12  C   UNL     1     -33.810  16.844  -0.626  0.00  0.00    +0.003 C 
ATOM     13  C   UNL     1     -32.689  17.513   0.209  0.00  0.00    +0.000 C 
ATOM     14  C   UNL     1     -33.295  18.333   1.322  0.00  0.00    +0.000 C 
ATOM     15  C   UNL     1     -38.770  21.917   1.156  0.00  0.00    +0.002 C 
ATOM     16  C   UNL     1     -32.998  20.628   0.290  0.00  0.00    +0.000 C 
ENDROOT
BRANCH   4  17
ATOM     17  O   UNL     1     -36.327  21.634   2.887  0.00  0.00    -0.449 OA
BRANCH  17  19
ATOM     18  O   UNL     1     -35.412  23.664   2.320  0.00  0.00    -0.245 OA
ATOM     19  C   UNL     1     -35.787  22.850   3.153  0.00  0.00    +0.339 C 
BRANCH  19  20
ATOM     20  C   UNL     1     -35.671  23.076   4.626  0.00  0.00    +0.082 C 
ATOM     21  C   UNL     1     -35.129  22.140   5.421  0.00  0.00    +0.005 C 
BRANCH  20  22
ATOM     22  C   UNL     1     -36.193  24.374   5.196  0.00  0.00    +0.168 C 
BRANCH  22  23
ATOM     23  O   UNL     1     -37.357  24.772   4.469  0.00  0.00    -0.377 OA
ATOM     24  H   UNL     1     -37.965  24.019   4.395  0.00  0.00    +0.211 HD
ENDBRANCH  22  23
BRANCH  22  25
ATOM     25  C   UNL     1     -35.155  25.495   5.153  0.00  0.00    +0.171 C 
BRANCH  25  26
ATOM     26  O   UNL     1     -35.834  26.743   5.052  0.00  0.00    -0.379 OA
ATOM     27  H   UNL     1     -35.204  27.467   5.189  0.00  0.00    +0.211 HD
ENDBRANCH  25  26
ENDBRANCH  22  25
ENDBRANCH  20  22
ENDBRANCH  19  20
ENDBRANCH  17  19
ENDBRANCH   4  17
BRANCH  11  28
ATOM     28  C   UNL     1     -34.516  18.580  -2.367  0.00  0.00    +0.137 C 
BRANCH  28  29
ATOM     29  O   UNL     1     -33.680  17.762  -3.164  0.00  0.00    -0.382 OA
ATOM     30  H   UNL     1     -33.204  18.313  -3.805  0.00  0.00    +0.210 HD
ENDBRANCH  28  29
ENDBRANCH  11  28
TORSDOF 9
ENDMDL
MODEL 4
REMARK VINA RESULT:      -5.7      2.761      4.513
REMARK  Name = 52948006
REMARK  9 active torsions:
REMARK  status: ('A' for Active; 'I' for Inactive)
REMARK    1  A    between atoms: C_4  and  O_17
REMARK    2  A    between atoms: C_11  and  C_28
REMARK    3  A    between atoms: O_17  and  C_19
REMARK    4  A    between atoms: C_19  and  C_20
REMARK    5  A    between atoms: C_20  and  C_22
REMARK    6  A    between atoms: C_22  and  O_23
REMARK    7  A    between atoms: C_22  and  C_25
REMARK    8  A    between atoms: C_25  and  O_26
REMARK    9  A    between atoms: C_28  and  O_29
REMARK                            x       y       z     vdW  Elec       q    Type
REMARK                         _______ _______ _______ _____ _____    ______ ____
ROOT
ATOM      1  O   UNL     1     -35.398  21.737   4.312  0.00  0.00    -0.449 OA
ATOM      2  O   UNL     1     -35.613  22.509   6.465  0.00  0.00    -0.245 OA
ATOM      3  C   UNL     1     -35.328  23.788   3.120  0.00  0.00    +0.109 C 
ATOM      4  C   UNL     1     -35.920  24.747   2.046  0.00  0.00    +0.177 C 
ATOM      5  C   UNL     1     -35.660  22.286   3.007  0.00  0.00    +0.177 C 
ATOM      6  C   UNL     1     -35.308  24.713   0.619  0.00  0.00    +0.044 C 
ATOM      7  C   UNL     1     -35.799  23.970   4.543  0.00  0.00    +0.060 C 
ATOM      8  C   UNL     1     -34.819  21.529   2.025  0.00  0.00    +0.047 C 
ATOM      9  C   UNL     1     -35.615  23.517  -0.249  0.00  0.00    +0.004 C 
ATOM     10  C   UNL     1     -35.608  22.690   5.262  0.00  0.00    +0.337 C 
ATOM     11  C   UNL     1     -35.256  20.617   1.130  0.00  0.00    +0.033 C 
ATOM     12  C   UNL     1     -34.398  20.329  -0.092  0.00  0.00    +0.003 C 
ATOM     13  C   UNL     1     -34.703  21.339  -1.228  0.00  0.00    +0.000 C 
ATOM     14  C   UNL     1     -34.599  22.751  -0.702  0.00  0.00    +0.000 C 
ATOM     15  C   UNL     1     -36.371  24.991   5.187  0.00  0.00    +0.002 C 
ATOM     16  C   UNL     1     -37.075  23.243  -0.484  0.00  0.00    +0.000 C 
ENDROOT
BRANCH   4  17
ATOM     17  O   UNL     1     -35.697  26.102   2.475  0.00  0.00    -0.449 OA
BRANCH  17  19
ATOM     18  O   UNL     1     -37.875  26.781   2.191  0.00  0.00    -0.245 OA
ATOM     19  C   UNL     1     -36.669  26.988   2.142  0.00  0.00    +0.339 C 
BRANCH  19  20
ATOM     20  C   UNL     1     -36.082  28.277   1.664  0.00  0.00    +0.082 C 
ATOM     21  C   UNL     1     -36.568  28.888   0.573  0.00  0.00    +0.005 C 
BRANCH  20  22
ATOM     22  C   UNL     1     -34.918  28.862   2.430  0.00  0.00    +0.168 C 
BRANCH  22  23
ATOM     23  O   UNL     1     -34.926  28.348   3.762  0.00  0.00    -0.377 OA
ATOM     24  H   UNL     1     -34.020  28.126   4.030  0.00  0.00    +0.211 HD
ENDBRANCH  22  23
BRANCH  22  25
ATOM     25  C   UNL     1     -34.949  30.389   2.471  0.00  0.00    +0.171 C 
BRANCH  25  26
ATOM     26  O   UNL     1     -35.629  30.801   3.653  0.00  0.00    -0.379 OA
ATOM     27  H   UNL     1     -36.201  30.083   3.965  0.00  0.00    +0.211 HD
ENDBRANCH  25  26
ENDBRANCH  22  25
ENDBRANCH  20  22
ENDBRANCH  19  20
ENDBRANCH  17  19
ENDBRANCH   4  17
BRANCH  11  28
ATOM     28  C   UNL     1     -36.610  19.970   1.140  0.00  0.00    +0.137 C 
BRANCH  28  29
ATOM     29  O   UNL     1     -36.940  19.575   2.458  0.00  0.00    -0.382 OA
ATOM     30  H   UNL     1     -36.440  20.112   3.091  0.00  0.00    +0.210 HD
ENDBRANCH  28  29
ENDBRANCH  11  28
TORSDOF 9
ENDMDL
MODEL 5
REMARK VINA RESULT:      -5.7      1.470      2.049
REMARK  Name = 52948006
REMARK  9 active torsions:
REMARK  status: ('A' for Active; 'I' for Inactive)
REMARK    1  A    between atoms: C_4  and  O_17
REMARK    2  A    between atoms: C_11  and  C_28
REMARK    3  A    between atoms: O_17  and  C_19
REMARK    4  A    between atoms: C_19  and  C_20
REMARK    5  A    between atoms: C_20  and  C_22
REMARK    6  A    between atoms: C_22  and  O_23
REMARK    7  A    between atoms: C_22  and  C_25
REMARK    8  A    between atoms: C_25  and  O_26
REMARK    9  A    between atoms: C_28  and  O_29
REMARK                            x       y       z     vdW  Elec       q    Type
REMARK                         _______ _______ _______ _____ _____    ______ ____
ROOT
ATOM      1  O   UNL     1     -40.590  22.703   0.522  0.00  0.00    -0.449 OA
ATOM      2  O   UNL     1     -41.845  24.423   1.386  0.00  0.00    -0.245 OA
ATOM      3  C   UNL     1     -38.800  22.646   2.079  0.00  0.00    +0.109 C 
ATOM      4  C   UNL     1     -37.279  22.757   2.392  0.00  0.00    +0.177 C 
ATOM      5  C   UNL     1     -39.214  22.296   0.634  0.00  0.00    +0.177 C 
ATOM      6  C   UNL     1     -36.450  21.445   2.467  0.00  0.00    +0.044 C 
ATOM      7  C   UNL     1     -39.624  23.905   2.201  0.00  0.00    +0.060 C 
ATOM      8  C   UNL     1     -39.149  20.837   0.299  0.00  0.00    +0.047 C 
ATOM      9  C   UNL     1     -36.152  20.728   1.172  0.00  0.00    +0.004 C 
ATOM     10  C   UNL     1     -40.827  23.757   1.351  0.00  0.00    +0.337 C 
ATOM     11  C   UNL     1     -38.649  20.295  -0.833  0.00  0.00    +0.033 C 
ATOM     12  C   UNL     1     -38.201  18.842  -0.807  0.00  0.00    +0.003 C 
ATOM     13  C   UNL     1     -36.738  18.728  -0.307  0.00  0.00    +0.000 C 
ATOM     14  C   UNL     1     -36.584  19.460   1.005  0.00  0.00    +0.000 C 
ATOM     15  C   UNL     1     -39.430  25.058   2.847  0.00  0.00    +0.002 C 
ATOM     16  C   UNL     1     -35.435  21.541   0.130  0.00  0.00    +0.000 C 
ENDROOT
BRANCH   4  17
ATOM     17  O   UNL     1     -37.128  23.325   3.705  0.00  0.00    -0.449 OA
BRANCH  17  19
ATOM     18  O   UNL     1     -35.687  24.942   2.935  0.00  0.00    -0.245 OA
ATOM     19  C   UNL     1     -36.137  24.244   3.834  0.00  0.00    +0.339 C 
BRANCH  19  20
ATOM     20  C   UNL     1     -35.620  24.285   5.236  0.00  0.00    +0.082 C 
ATOM     21  C   UNL     1     -35.286  23.153   5.876  0.00  0.00    +0.005 C 
BRANCH  20  22
ATOM     22  C   UNL     1     -35.500  25.629   5.917  0.00  0.00    +0.168 C 
BRANCH  22  23
ATOM     23  O   UNL     1     -36.344  26.569   5.251  0.00  0.00    -0.377 OA
ATOM     24  H   UNL     1     -35.892  27.426   5.193  0.00  0.00    +0.211 HD
ENDBRANCH  22  23
BRANCH  22  25
ATOM     25  C   UNL     1     -34.065  26.152   5.937  0.00  0.00    +0.171 C 
BRANCH  25  26
ATOM     26  O   UNL     1     -33.467  25.894   4.669  0.00  0.00    -0.379 OA
ATOM     27  H   UNL     1     -32.505  25.986   4.740  0.00  0.00    +0.211 HD
ENDBRANCH  25  26
ENDBRANCH  22  25
ENDBRANCH  20  22
ENDBRANCH  19  20
ENDBRANCH  17  19
ENDBRANCH   4  17
BRANCH  11  28
ATOM     28  C   UNL     1     -38.331  21.051  -2.091  0.00  0.00    +0.137 C 
BRANCH  28  29
ATOM     29  O   UNL     1     -38.897  20.383  -3.203  0.00  0.00    -0.382 OA
ATOM     30  H   UNL     1     -38.455  20.676  -4.015  0.00  0.00    +0.210 HD
ENDBRANCH  28  29
ENDBRANCH  11  28
TORSDOF 9
ENDMDL
MODEL 6
REMARK VINA RESULT:      -5.7      2.652      7.352
REMARK  Name = 52948006
REMARK  9 active torsions:
REMARK  status: ('A' for Active; 'I' for Inactive)
REMARK    1  A    between atoms: C_4  and  O_17
REMARK    2  A    between atoms: C_11  and  C_28
REMARK    3  A    between atoms: O_17  and  C_19
REMARK    4  A    between atoms: C_19  and  C_20
REMARK    5  A    between atoms: C_20  and  C_22
REMARK    6  A    between atoms: C_22  and  O_23
REMARK    7  A    between atoms: C_22  and  C_25
REMARK    8  A    between atoms: C_25  and  O_26
REMARK    9  A    between atoms: C_28  and  O_29
REMARK                            x       y       z     vdW  Elec       q    Type
REMARK                         _______ _______ _______ _____ _____    ______ ____
ROOT
ATOM      1  O   UNL     1     -35.454  24.237   5.441  0.00  0.00    -0.449 OA
ATOM      2  O   UNL     1     -35.950  22.312   6.594  0.00  0.00    -0.245 OA
ATOM      3  C   UNL     1     -35.426  23.415   3.215  0.00  0.00    +0.109 C 
ATOM      4  C   UNL     1     -34.671  23.169   1.876  0.00  0.00    +0.177 C 
ATOM      5  C   UNL     1     -34.899  24.528   4.145  0.00  0.00    +0.177 C 
ATOM      6  C   UNL     1     -34.846  24.210   0.737  0.00  0.00    +0.044 C 
ATOM      7  C   UNL     1     -35.401  22.302   4.236  0.00  0.00    +0.060 C 
ATOM      8  C   UNL     1     -35.332  25.913   3.773  0.00  0.00    +0.047 C 
ATOM      9  C   UNL     1     -34.166  25.549   0.899  0.00  0.00    +0.004 C 
ATOM     10  C   UNL     1     -35.636  22.894   5.572  0.00  0.00    +0.337 C 
ATOM     11  C   UNL     1     -34.556  27.017   3.750  0.00  0.00    +0.033 C 
ATOM     12  C   UNL     1     -34.992  28.196   2.893  0.00  0.00    +0.003 C 
ATOM     13  C   UNL     1     -34.500  28.025   1.433  0.00  0.00    +0.000 C 
ATOM     14  C   UNL     1     -34.914  26.673   0.905  0.00  0.00    +0.000 C 
ATOM     15  C   UNL     1     -35.161  20.991   4.145  0.00  0.00    +0.002 C 
ATOM     16  C   UNL     1     -32.677  25.500   1.108  0.00  0.00    +0.000 C 
ENDROOT
BRANCH   4  17
ATOM     17  O   UNL     1     -35.165  21.949   1.295  0.00  0.00    -0.449 OA
BRANCH  17  19
ATOM     18  O   UNL     1     -33.194  21.538   0.187  0.00  0.00    -0.245 OA
ATOM     19  C   UNL     1     -34.228  21.155   0.718  0.00  0.00    +0.339 C 
BRANCH  19  20
ATOM     20  C   UNL     1     -34.630  19.717   0.779  0.00  0.00    +0.082 C 
ATOM     21  C   UNL     1     -33.728  18.766   1.071  0.00  0.00    +0.005 C 
BRANCH  20  22
ATOM     22  C   UNL     1     -36.069  19.361   0.487  0.00  0.00    +0.168 C 
BRANCH  22  23
ATOM     23  O   UNL     1     -36.816  19.393   1.704  0.00  0.00    -0.377 OA
ATOM     24  H   UNL     1     -36.342  19.927   2.361  0.00  0.00    +0.211 HD
ENDBRANCH  22  23
BRANCH  22  25
ATOM     25  C   UNL     1     -36.214  17.987  -0.167  0.00  0.00    +0.171 C 
BRANCH  25  26
ATOM     26  O   UNL     1     -37.249  17.270   0.501  0.00  0.00    -0.379 OA
ATOM     27  H   UNL     1     -37.642  17.832   1.186  0.00  0.00    +0.211 HD
ENDBRANCH  25  26
ENDBRANCH  22  25
ENDBRANCH  20  22
ENDBRANCH  19  20
ENDBRANCH  17  19
ENDBRANCH   4  17
BRANCH  11  28
ATOM     28  C   UNL     1     -33.193  27.134   4.368  0.00  0.00    +0.137 C 
BRANCH  28  29
ATOM     29  O   UNL     1     -33.315  27.258   5.772  0.00  0.00    -0.382 OA
ATOM     30  H   UNL     1     -34.229  27.064   6.035  0.00  0.00    +0.210 HD
ENDBRANCH  28  29
ENDBRANCH  11  28
TORSDOF 9
ENDMDL
MODEL 7
REMARK VINA RESULT:      -5.6      3.686      7.030
REMARK  Name = 52948006
REMARK  9 active torsions:
REMARK  status: ('A' for Active; 'I' for Inactive)
REMARK    1  A    between atoms: C_4  and  O_17
REMARK    2  A    between atoms: C_11  and  C_28
REMARK    3  A    between atoms: O_17  and  C_19
REMARK    4  A    between atoms: C_19  and  C_20
REMARK    5  A    between atoms: C_20  and  C_22
REMARK    6  A    between atoms: C_22  and  O_23
REMARK    7  A    between atoms: C_22  and  C_25
REMARK    8  A    between atoms: C_25  and  O_26
REMARK    9  A    between atoms: C_28  and  O_29
REMARK                            x       y       z     vdW  Elec       q    Type
REMARK                         _______ _______ _______ _____ _____    ______ ____
ROOT
ATOM      1  O   UNL     1     -32.953  25.199   0.828  0.00  0.00    -0.449 OA
ATOM      2  O   UNL     1     -30.965  26.126   0.142  0.00  0.00    -0.245 OA
ATOM      3  C   UNL     1     -33.378  26.479   2.781  0.00  0.00    +0.109 C 
ATOM      4  C   UNL     1     -33.612  26.560   4.318  0.00  0.00    +0.177 C 
ATOM      5  C   UNL     1     -33.664  25.136   2.077  0.00  0.00    +0.177 C 
ATOM      6  C   UNL     1     -35.077  26.597   4.832  0.00  0.00    +0.044 C 
ATOM      7  C   UNL     1     -31.959  26.640   2.289  0.00  0.00    +0.060 C 
ATOM      8  C   UNL     1     -35.107  24.889   1.760  0.00  0.00    +0.047 C 
ATOM      9  C   UNL     1     -35.881  25.321   4.755  0.00  0.00    +0.004 C 
ATOM     10  C   UNL     1     -31.849  25.985   0.966  0.00  0.00    +0.337 C 
ATOM     11  C   UNL     1     -35.783  23.734   1.942  0.00  0.00    +0.033 C 
ATOM     12  C   UNL     1     -37.299  23.788   2.052  0.00  0.00    +0.003 C 
ATOM     13  C   UNL     1     -37.734  24.075   3.512  0.00  0.00    +0.000 C 
ATOM     14  C   UNL     1     -37.020  25.301   4.029  0.00  0.00    +0.000 C 
ATOM     15  C   UNL     1     -30.864  27.175   2.836  0.00  0.00    +0.002 C 
ATOM     16  C   UNL     1     -35.287  24.135   5.464  0.00  0.00    +0.000 C 
ENDROOT
BRANCH   4  17
ATOM     17  O   UNL     1     -33.056  27.797   4.796  0.00  0.00    -0.449 OA
BRANCH  17  19
ATOM     18  O   UNL     1     -32.591  26.885   6.854  0.00  0.00    -0.245 OA
ATOM     19  C   UNL     1     -32.402  27.724   5.983  0.00  0.00    +0.339 C 
BRANCH  19  20
ATOM     20  C   UNL     1     -31.417  28.838   6.124  0.00  0.00    +0.082 C 
ATOM     21  C   UNL     1     -31.828  30.116   6.159  0.00  0.00    +0.005 C 
BRANCH  20  22
ATOM     22  C   UNL     1     -29.948  28.491   6.209  0.00  0.00    +0.168 C 
BRANCH  22  23
ATOM     23  O   UNL     1     -29.797  27.265   6.925  0.00  0.00    -0.377 OA
ATOM     24  H   UNL     1     -29.253  26.651   6.406  0.00  0.00    +0.211 HD
ENDBRANCH  22  23
BRANCH  22  25
ATOM     25  C   UNL     1     -29.124  29.585   6.885  0.00  0.00    +0.171 C 
BRANCH  25  26
ATOM     26  O   UNL     1     -29.001  29.274   8.270  0.00  0.00    -0.379 OA
ATOM     27  H   UNL     1     -29.542  29.889   8.789  0.00  0.00    +0.211 HD
ENDBRANCH  25  26
ENDBRANCH  22  25
ENDBRANCH  20  22
ENDBRANCH  19  20
ENDBRANCH  17  19
ENDBRANCH   4  17
BRANCH  11  28
ATOM     28  C   UNL     1     -35.158  22.397   2.220  0.00  0.00    +0.137 C 
BRANCH  28  29
ATOM     29  O   UNL     1     -34.588  21.882   1.032  0.00  0.00    -0.382 OA
ATOM     30  H   UNL     1     -35.263  21.850   0.337  0.00  0.00    +0.210 HD
ENDBRANCH  28  29
ENDBRANCH  11  28
TORSDOF 9
ENDMDL
MODEL 8
REMARK VINA RESULT:      -5.6      2.477      4.243
REMARK  Name = 52948006
REMARK  9 active torsions:
REMARK  status: ('A' for Active; 'I' for Inactive)
REMARK    1  A    between atoms: C_4  and  O_17
REMARK    2  A    between atoms: C_11  and  C_28
REMARK    3  A    between atoms: O_17  and  C_19
REMARK    4  A    between atoms: C_19  and  C_20
REMARK    5  A    between atoms: C_20  and  C_22
REMARK    6  A    between atoms: C_22  and  O_23
REMARK    7  A    between atoms: C_22  and  C_25
REMARK    8  A    between atoms: C_25  and  O_26
REMARK    9  A    between atoms: C_28  and  O_29
REMARK                            x       y       z     vdW  Elec       q    Type
REMARK                         _______ _______ _______ _____ _____    ______ ____
ROOT
ATOM      1  O   UNL     1     -32.687  23.782  -0.243  0.00  0.00    -0.449 OA
ATOM      2  O   UNL     1     -31.876  25.929  -0.130  0.00  0.00    -0.245 OA
ATOM      3  C   UNL     1     -34.672  23.999   1.041  0.00  0.00    +0.109 C 
ATOM      4  C   UNL     1     -35.538  23.589   2.268  0.00  0.00    +0.177 C 
ATOM      5  C   UNL     1     -33.603  23.001   0.547  0.00  0.00    +0.177 C 
ATOM      6  C   UNL     1     -36.635  22.510   2.059  0.00  0.00    +0.044 C 
ATOM      7  C   UNL     1     -33.747  25.181   1.213  0.00  0.00    +0.060 C 
ATOM      8  C   UNL     1     -34.127  21.904  -0.328  0.00  0.00    +0.047 C 
ATOM      9  C   UNL     1     -36.187  21.080   1.870  0.00  0.00    +0.004 C 
ATOM     10  C   UNL     1     -32.652  25.061   0.224  0.00  0.00    +0.337 C 
ATOM     11  C   UNL     1     -33.803  20.596  -0.255  0.00  0.00    +0.033 C 
ATOM     12  C   UNL     1     -34.763  19.574  -0.845  0.00  0.00    +0.003 C 
ATOM     13  C   UNL     1     -35.854  19.187   0.187  0.00  0.00    +0.000 C 
ATOM     14  C   UNL     1     -36.512  20.432   0.731  0.00  0.00    +0.000 C 
ATOM     15  C   UNL     1     -33.723  26.197   2.080  0.00  0.00    +0.002 C 
ATOM     16  C   UNL     1     -35.340  20.514   2.976  0.00  0.00    +0.000 C 
ENDROOT
BRANCH   4  17
ATOM     17  O   UNL     1     -36.279  24.742   2.705  0.00  0.00    -0.449 OA
BRANCH  17  19
ATOM     18  O   UNL     1     -38.149  24.517   4.022  0.00  0.00    -0.245 OA
ATOM     19  C   UNL     1     -36.936  24.602   3.885  0.00  0.00    +0.339 C 
BRANCH  19  20
ATOM     20  C   UNL     1     -35.981  24.594   5.034  0.00  0.00    +0.082 C 
ATOM     21  C   UNL     1     -35.559  23.435   5.566  0.00  0.00    +0.005 C 
BRANCH  20  22
ATOM     22  C   UNL     1     -35.519  25.920   5.592  0.00  0.00    +0.168 C 
BRANCH  22  23
ATOM     23  O   UNL     1     -35.975  26.972   4.741  0.00  0.00    -0.377 OA
ATOM     24  H   UNL     1     -35.457  27.775   4.911  0.00  0.00    +0.211 HD
ENDBRANCH  22  23
BRANCH  22  25
ATOM     25  C   UNL     1     -34.000  26.000   5.736  0.00  0.00    +0.171 C 
BRANCH  25  26
ATOM     26  O   UNL     1     -33.576  27.316   5.390  0.00  0.00    -0.379 OA
ATOM     27  H   UNL     1     -32.920  27.624   6.033  0.00  0.00    +0.211 HD
ENDBRANCH  25  26
ENDBRANCH  22  25
ENDBRANCH  20  22
ENDBRANCH  19  20
ENDBRANCH  17  19
ENDBRANCH   4  17
BRANCH  11  28
ATOM     28  C   UNL     1     -32.645  20.030   0.514  0.00  0.00    +0.137 C 
BRANCH  28  29
ATOM     29  O   UNL     1     -31.432  20.374  -0.129  0.00  0.00    -0.382 OA
ATOM     30  H   UNL     1     -31.315  19.820  -0.916  0.00  0.00    +0.210 HD
ENDBRANCH  28  29
ENDBRANCH  11  28
TORSDOF 9
ENDMDL
MODEL 9
REMARK VINA RESULT:      -5.4      2.377      7.297
REMARK  Name = 52948006
REMARK  9 active torsions:
REMARK  status: ('A' for Active; 'I' for Inactive)
REMARK    1  A    between atoms: C_4  and  O_17
REMARK    2  A    between atoms: C_11  and  C_28
REMARK    3  A    between atoms: O_17  and  C_19
REMARK    4  A    between atoms: C_19  and  C_20
REMARK    5  A    between atoms: C_20  and  C_22
REMARK    6  A    between atoms: C_22  and  O_23
REMARK    7  A    between atoms: C_22  and  C_25
REMARK    8  A    between atoms: C_25  and  O_26
REMARK    9  A    between atoms: C_28  and  O_29
REMARK                            x       y       z     vdW  Elec       q    Type
REMARK                         _______ _______ _______ _____ _____    ______ ____
ROOT
ATOM      1  O   UNL     1     -33.238  24.969   0.674  0.00  0.00    -0.449 OA
ATOM      2  O   UNL     1     -32.538  24.109  -1.338  0.00  0.00    -0.245 OA
ATOM      3  C   UNL     1     -34.659  23.222   1.423  0.00  0.00    +0.109 C 
ATOM      4  C   UNL     1     -36.065  22.721   1.866  0.00  0.00    +0.177 C 
ATOM      5  C   UNL     1     -34.361  24.731   1.543  0.00  0.00    +0.177 C 
ATOM      6  C   UNL     1     -36.375  22.666   3.387  0.00  0.00    +0.044 C 
ATOM      7  C   UNL     1     -34.307  23.086  -0.039  0.00  0.00    +0.060 C 
ATOM      8  C   UNL     1     -33.969  25.185   2.916  0.00  0.00    +0.047 C 
ATOM      9  C   UNL     1     -36.591  23.975   4.107  0.00  0.00    +0.004 C 
ATOM     10  C   UNL     1     -33.260  24.083  -0.359  0.00  0.00    +0.337 C 
ATOM     11  C   UNL     1     -34.410  26.293   3.550  0.00  0.00    +0.033 C 
ATOM     12  C   UNL     1     -34.325  26.344   5.068  0.00  0.00    +0.003 C 
ATOM     13  C   UNL     1     -35.574  25.686   5.710  0.00  0.00    +0.000 C 
ATOM     14  C   UNL     1     -35.780  24.305   5.135  0.00  0.00    +0.000 C 
ATOM     15  C   UNL     1     -34.789  22.321  -1.023  0.00  0.00    +0.002 C 
ATOM     16  C   UNL     1     -37.684  24.848   3.555  0.00  0.00    +0.000 C 
ENDROOT
BRANCH   4  17
ATOM     17  O   UNL     1     -36.213  21.354   1.443  0.00  0.00    -0.449 OA
BRANCH  17  19
ATOM     18  O   UNL     1     -35.316  20.377   3.320  0.00  0.00    -0.245 OA
ATOM     19  C   UNL     1     -35.446  20.451   2.105  0.00  0.00    +0.339 C 
BRANCH  19  20
ATOM     20  C   UNL     1     -34.731  19.549   1.151  0.00  0.00    +0.082 C 
ATOM     21  C   UNL     1     -33.393  19.440   1.184  0.00  0.00    +0.005 C 
BRANCH  20  22
ATOM     22  C   UNL     1     -35.550  18.780   0.141  0.00  0.00    +0.168 C 
BRANCH  22  23
ATOM     23  O   UNL     1     -36.812  18.443   0.718  0.00  0.00    -0.377 OA
ATOM     24  H   UNL     1     -37.063  19.120   1.366  0.00  0.00    +0.211 HD
ENDBRANCH  22  23
BRANCH  22  25
ATOM     25  C   UNL     1     -34.850  17.509  -0.337  0.00  0.00    +0.171 C 
BRANCH  25  26
ATOM     26  O   UNL     1     -35.400  16.394   0.360  0.00  0.00    -0.379 OA
ATOM     27  H   UNL     1     -34.762  16.075   1.016  0.00  0.00    +0.211 HD
ENDBRANCH  25  26
ENDBRANCH  22  25
ENDBRANCH  20  22
ENDBRANCH  19  20
ENDBRANCH  17  19
ENDBRANCH   4  17
BRANCH  11  28
ATOM     28  C   UNL     1     -35.143  27.431   2.902  0.00  0.00    +0.137 C 
BRANCH  28  29
ATOM     29  O   UNL     1     -34.870  28.632   3.600  0.00  0.00    -0.382 OA
ATOM     30  H   UNL     1     -34.730  28.436   4.539  0.00  0.00    +0.210 HD
ENDBRANCH  28  29
ENDBRANCH  11  28
TORSDOF 9
ENDMDL
