MODEL 1
REMARK VINA RESULT:      -6.5      0.000      0.000
REMARK  Name = 196929
REMARK  10 active torsions:
REMARK  status: ('A' for Active; 'I' for Inactive)
REMARK    1  A    between atoms: CA_1  and  N_3
REMARK    2  A    between atoms: CA_1  and  C_16
REMARK    3  A    between atoms: CA_1  and  C_28
REMARK    4  A    between atoms: C_4  and  C_9
REMARK    5  A    between atoms: C_7  and  C_13
REMARK    6  A    between atoms: C_13  and  C_14
REMARK    7  A    between atoms: C_16  and  C_17
REMARK    8  A    between atoms: C_16  and  O_26
REMARK    9  A    between atoms: C_22  and  N_25
REMARK   10  A    between atoms: C_28  and  O_29
REMARK                            x       y       z     vdW  Elec       q    Type
REMARK                         _______ _______ _______ _____ _____    ______ ____
ROOT
ATOM      1  CA  UNL     1     -35.858  22.096   3.029  0.00  0.00    +0.132 C 
ENDROOT
BRANCH   1   3
ATOM      2  O   UNL     1     -37.243  24.244   1.650  0.00  0.00    -0.277 OA
ATOM      3  N   UNL     1     -37.283  22.332   2.979  0.00  0.00    -0.303 N 
ATOM      4  C   UNL     1     -37.851  23.391   2.291  0.00  0.00    +0.203 C 
ATOM      5  H   UNL     1     -37.877  21.712   3.458  0.00  0.00    +0.149 HD
BRANCH   4   9
ATOM      6  N   UNL     1     -39.856  23.343   1.007  0.00  0.00    +0.392 N 
ATOM      7  C   UNL     1     -40.616  25.369   1.831  0.00  0.00    -0.022 C 
ATOM      8  C   UNL     1     -39.869  24.695   2.980  0.00  0.00    -0.014 C 
ATOM      9  C   UNL     1     -39.344  23.388   2.381  0.00  0.00    +0.020 C 
ATOM     10  C   UNL     1     -41.054  24.184   0.980  0.00  0.00    -0.077 C 
ATOM     11  C   UNL     1     -40.123  21.990   0.539  0.00  0.00    -0.100 C 
ATOM     12  H   UNL     1     -39.150  23.695   0.360  0.00  0.00    -0.079 HD
BRANCH   7  13
ATOM     13  C   UNL     1     -41.771  26.243   2.288  0.00  0.00    -0.002 C 
BRANCH  13  14
ATOM     14  C   UNL     1     -41.613  26.662   3.748  0.00  0.00    -0.000 C 
ATOM     15  C   UNL     1     -42.399  27.927   4.053  0.00  0.00    -0.000 C 
ENDBRANCH  13  14
ENDBRANCH   7  13
ENDBRANCH   4   9
ENDBRANCH   1   3
BRANCH   1  16
ATOM     16  C   UNL     1     -35.314  22.499   4.417  0.00  0.00    +0.153 C 
BRANCH  16  17
ATOM     17  C   UNL     1     -34.781  23.912   4.481  0.00  0.00    +0.006 C 
ATOM     18  C   UNL     1     -34.857  24.632   5.673  0.00  0.00    -0.000 C 
ATOM     19  C   UNL     1     -34.211  24.495   3.350  0.00  0.00    -0.000 C 
ATOM     20  C   UNL     1     -34.364  25.935   5.733  0.00  0.00    +0.024 C 
ATOM     21  C   UNL     1     -33.718  25.798   3.409  0.00  0.00    +0.024 C 
ATOM     22  C   UNL     1     -33.794  26.518   4.601  0.00  0.00    +0.143 C 
BRANCH  22  25
ATOM     23  O   UNL     1     -33.590  28.650   3.748  0.00  0.00    -0.126 OA
ATOM     24  O   UNL     1     -32.562  28.175   5.629  0.00  0.00    -0.126 OA
ATOM     25  N   UNL     1     -33.291  27.845   4.662  0.00  0.00    +0.058 N 
ENDBRANCH  22  25
ENDBRANCH  16  17
BRANCH  16  26
ATOM     26  O   UNL     1     -36.366  22.404   5.385  0.00  0.00    -0.378 OA
ATOM     27  H   UNL     1     -35.988  22.448   6.278  0.00  0.00    +0.211 HD
ENDBRANCH  16  26
ENDBRANCH   1  16
BRANCH   1  28
ATOM     28  C   UNL     1     -35.571  20.641   2.640  0.00  0.00    +0.159 C 
BRANCH  28  29
ATOM     29  O   UNL     1     -36.745  19.842   2.698  0.00  0.00    -0.380 OA
ATOM     30  H   UNL     1     -37.217  20.021   3.525  0.00  0.00    +0.211 HD
ENDBRANCH  28  29
ENDBRANCH   1  28
TORSDOF 10
ENDMDL
MODEL 2
REMARK VINA RESULT:      -6.0      2.691      6.177
REMARK  Name = 196929
REMARK  10 active torsions:
REMARK  status: ('A' for Active; 'I' for Inactive)
REMARK    1  A    between atoms: CA_1  and  N_3
REMARK    2  A    between atoms: CA_1  and  C_16
REMARK    3  A    between atoms: CA_1  and  C_28
REMARK    4  A    between atoms: C_4  and  C_9
REMARK    5  A    between atoms: C_7  and  C_13
REMARK    6  A    between atoms: C_13  and  C_14
REMARK    7  A    between atoms: C_16  and  C_17
REMARK    8  A    between atoms: C_16  and  O_26
REMARK    9  A    between atoms: C_22  and  N_25
REMARK   10  A    between atoms: C_28  and  O_29
REMARK                            x       y       z     vdW  Elec       q    Type
REMARK                         _______ _______ _______ _____ _____    ______ ____
ROOT
ATOM      1  CA  UNL     1     -36.692  22.857   3.485  0.00  0.00    +0.132 C 
ENDROOT
BRANCH   1   3
ATOM      2  O   UNL     1     -35.393  20.265   3.332  0.00  0.00    -0.277 OA
ATOM      3  N   UNL     1     -36.203  22.188   2.301  0.00  0.00    -0.303 N 
ATOM      4  C   UNL     1     -35.594  20.945   2.330  0.00  0.00    +0.203 C 
ATOM      5  H   UNL     1     -36.308  22.638   1.432  0.00  0.00    +0.149 HD
BRANCH   4   9
ATOM      6  N   UNL     1     -35.800  19.144   0.787  0.00  0.00    +0.392 N 
ATOM      7  C   UNL     1     -33.519  18.765   0.685  0.00  0.00    -0.022 C 
ATOM      8  C   UNL     1     -33.693  20.273   0.854  0.00  0.00    -0.014 C 
ATOM      9  C   UNL     1     -35.206  20.474   0.965  0.00  0.00    +0.020 C 
ATOM     10  C   UNL     1     -34.830  18.351   0.030  0.00  0.00    -0.077 C 
ATOM     11  C   UNL     1     -37.104  19.182   0.139  0.00  0.00    -0.100 C 
ATOM     12  H   UNL     1     -35.987  18.721   1.696  0.00  0.00    -0.079 HD
BRANCH   7  13
ATOM     13  C   UNL     1     -32.293  18.381  -0.125  0.00  0.00    -0.002 C 
BRANCH  13  14
ATOM     14  C   UNL     1     -31.093  19.259   0.226  0.00  0.00    -0.000 C 
ATOM     15  C   UNL     1     -29.826  18.433   0.389  0.00  0.00    -0.000 C 
ENDBRANCH  13  14
ENDBRANCH   7  13
ENDBRANCH   4   9
ENDBRANCH   1   3
BRANCH   1  16
ATOM     16  C   UNL     1     -35.564  22.945   4.534  0.00  0.00    +0.153 C 
BRANCH  16  17
ATOM     17  C   UNL     1     -34.807  24.254   4.513  0.00  0.00    +0.006 C 
ATOM     18  C   UNL     1     -34.813  25.080   5.636  0.00  0.00    -0.000 C 
ATOM     19  C   UNL     1     -34.101  24.634   3.372  0.00  0.00    -0.000 C 
ATOM     20  C   UNL     1     -34.114  26.287   5.618  0.00  0.00    +0.024 C 
ATOM     21  C   UNL     1     -33.402  25.841   3.353  0.00  0.00    +0.024 C 
ATOM     22  C   UNL     1     -33.408  26.667   4.476  0.00  0.00    +0.143 C 
BRANCH  22  25
ATOM     23  O   UNL     1     -33.329  28.962   4.265  0.00  0.00    -0.126 OA
ATOM     24  O   UNL     1     -31.453  27.881   4.634  0.00  0.00    -0.126 OA
ATOM     25  N   UNL     1     -32.696  27.895   4.457  0.00  0.00    +0.058 N 
ENDBRANCH  22  25
ENDBRANCH  16  17
BRANCH  16  26
ATOM     26  O   UNL     1     -36.122  22.806   5.845  0.00  0.00    -0.378 OA
ATOM     27  H   UNL     1     -36.969  23.278   5.888  0.00  0.00    +0.211 HD
ENDBRANCH  16  26
ENDBRANCH   1  16
BRANCH   1  28
ATOM     28  C   UNL     1     -37.291  24.213   3.091  0.00  0.00    +0.159 C 
BRANCH  28  29
ATOM     29  O   UNL     1     -38.113  24.742   4.123  0.00  0.00    -0.380 OA
ATOM     30  H   UNL     1     -37.698  24.578   4.983  0.00  0.00    +0.211 HD
ENDBRANCH  28  29
ENDBRANCH   1  28
TORSDOF 10
ENDMDL
MODEL 3
REMARK VINA RESULT:      -5.9      1.880      2.658
REMARK  Name = 196929
REMARK  10 active torsions:
REMARK  status: ('A' for Active; 'I' for Inactive)
REMARK    1  A    between atoms: CA_1  and  N_3
REMARK    2  A    between atoms: CA_1  and  C_16
REMARK    3  A    between atoms: CA_1  and  C_28
REMARK    4  A    between atoms: C_4  and  C_9
REMARK    5  A    between atoms: C_7  and  C_13
REMARK    6  A    between atoms: C_13  and  C_14
REMARK    7  A    between atoms: C_16  and  C_17
REMARK    8  A    between atoms: C_16  and  O_26
REMARK    9  A    between atoms: C_22  and  N_25
REMARK   10  A    between atoms: C_28  and  O_29
REMARK                            x       y       z     vdW  Elec       q    Type
REMARK                         _______ _______ _______ _____ _____    ______ ____
ROOT
ATOM      1  CA  UNL     1     -35.602  22.954   4.955  0.00  0.00    +0.132 C 
ENDROOT
BRANCH   1   3
ATOM      2  O   UNL     1     -35.631  22.587   2.075  0.00  0.00    -0.277 OA
ATOM      3  N   UNL     1     -36.698  22.481   4.141  0.00  0.00    -0.303 N 
ATOM      4  C   UNL     1     -36.615  22.339   2.766  0.00  0.00    +0.203 C 
ATOM      5  H   UNL     1     -37.545  22.249   4.586  0.00  0.00    +0.149 HD
BRANCH   4   9
ATOM      6  N   UNL     1     -37.611  21.532   0.760  0.00  0.00    +0.392 N 
ATOM      7  C   UNL     1     -39.231  23.185   0.716  0.00  0.00    -0.022 C 
ATOM      8  C   UNL     1     -38.989  22.866   2.190  0.00  0.00    -0.014 C 
ATOM      9  C   UNL     1     -37.882  21.809   2.175  0.00  0.00    +0.020 C 
ATOM     10  C   UNL     1     -38.825  21.890   0.025  0.00  0.00    -0.077 C 
ATOM     11  C   UNL     1     -37.205  20.155   0.513  0.00  0.00    -0.100 C 
ATOM     12  H   UNL     1     -36.816  22.087   0.442  0.00  0.00    -0.079 HD
BRANCH   7  13
ATOM     13  C   UNL     1     -40.658  23.609   0.413  0.00  0.00    -0.002 C 
BRANCH  13  14
ATOM     14  C   UNL     1     -41.164  24.635   1.424  0.00  0.00    -0.000 C 
ATOM     15  C   UNL     1     -42.537  25.165   1.042  0.00  0.00    -0.000 C 
ENDBRANCH  13  14
ENDBRANCH   7  13
ENDBRANCH   4   9
ENDBRANCH   1   3
BRANCH   1  16
ATOM     16  C   UNL     1     -35.870  24.411   5.390  0.00  0.00    +0.153 C 
BRANCH  16  17
ATOM     17  C   UNL     1     -34.785  25.382   4.981  0.00  0.00    +0.006 C 
ATOM     18  C   UNL     1     -34.433  25.507   3.638  0.00  0.00    -0.000 C 
ATOM     19  C   UNL     1     -34.140  26.154   5.946  0.00  0.00    -0.000 C 
ATOM     20  C   UNL     1     -33.434  26.404   3.259  0.00  0.00    +0.024 C 
ATOM     21  C   UNL     1     -33.141  27.051   5.569  0.00  0.00    +0.024 C 
ATOM     22  C   UNL     1     -32.788  27.177   4.225  0.00  0.00    +0.143 C 
BRANCH  22  25
ATOM     23  O   UNL     1     -32.103  29.200   3.357  0.00  0.00    -0.126 OA
ATOM     24  O   UNL     1     -30.570  27.764   3.996  0.00  0.00    -0.126 OA
ATOM     25  N   UNL     1     -31.771  28.091   3.841  0.00  0.00    +0.058 N 
ENDBRANCH  22  25
ENDBRANCH  16  17
BRANCH  16  26
ATOM     26  O   UNL     1     -37.088  24.869   4.792  0.00  0.00    -0.378 OA
ATOM     27  H   UNL     1     -37.358  25.703   5.209  0.00  0.00    +0.211 HD
ENDBRANCH  16  26
ENDBRANCH   1  16
BRANCH   1  28
ATOM     28  C   UNL     1     -35.378  21.982   6.120  0.00  0.00    +0.159 C 
BRANCH  28  29
ATOM     29  O   UNL     1     -35.314  20.635   5.673  0.00  0.00    -0.380 OA
ATOM     30  H   UNL     1     -34.676  20.145   6.213  0.00  0.00    +0.211 HD
ENDBRANCH  28  29
ENDBRANCH   1  28
TORSDOF 10
ENDMDL
MODEL 4
REMARK VINA RESULT:      -5.8      2.650      6.341
REMARK  Name = 196929
REMARK  10 active torsions:
REMARK  status: ('A' for Active; 'I' for Inactive)
REMARK    1  A    between atoms: CA_1  and  N_3
REMARK    2  A    between atoms: CA_1  and  C_16
REMARK    3  A    between atoms: CA_1  and  C_28
REMARK    4  A    between atoms: C_4  and  C_9
REMARK    5  A    between atoms: C_7  and  C_13
REMARK    6  A    between atoms: C_13  and  C_14
REMARK    7  A    between atoms: C_16  and  C_17
REMARK    8  A    between atoms: C_16  and  O_26
REMARK    9  A    between atoms: C_22  and  N_25
REMARK   10  A    between atoms: C_28  and  O_29
REMARK                            x       y       z     vdW  Elec       q    Type
REMARK                         _______ _______ _______ _____ _____    ______ ____
ROOT
ATOM      1  CA  UNL     1     -39.338  25.383   1.763  0.00  0.00    +0.132 C 
ENDROOT
BRANCH   1   3
ATOM      2  O   UNL     1     -37.565  27.661   1.455  0.00  0.00    -0.277 OA
ATOM      3  N   UNL     1     -38.012  25.544   2.314  0.00  0.00    -0.303 N 
ATOM      4  C   UNL     1     -37.239  26.675   2.110  0.00  0.00    +0.203 C 
ATOM      5  H   UNL     1     -37.640  24.815   2.859  0.00  0.00    +0.149 HD
BRANCH   4   9
ATOM      6  N   UNL     1     -35.041  25.769   1.972  0.00  0.00    +0.392 N 
ATOM      7  C   UNL     1     -35.249  24.561   3.935  0.00  0.00    -0.022 C 
ATOM      8  C   UNL     1     -36.043  25.849   4.142  0.00  0.00    -0.014 C 
ATOM      9  C   UNL     1     -35.921  26.592   2.810  0.00  0.00    +0.020 C 
ATOM     10  C   UNL     1     -34.224  24.968   2.885  0.00  0.00    -0.077 C 
ATOM     11  C   UNL     1     -34.229  26.553   1.051  0.00  0.00    -0.100 C 
ATOM     12  H   UNL     1     -35.600  25.171   1.363  0.00  0.00    -0.079 HD
BRANCH   7  13
ATOM     13  C   UNL     1     -34.623  24.021   5.210  0.00  0.00    -0.002 C 
BRANCH  13  14
ATOM     14  C   UNL     1     -35.534  23.004   5.894  0.00  0.00    -0.000 C 
ATOM     15  C   UNL     1     -35.064  21.579   5.646  0.00  0.00    -0.000 C 
ENDBRANCH  13  14
ENDBRANCH   7  13
ENDBRANCH   4   9
ENDBRANCH   1   3
BRANCH   1  16
ATOM     16  C   UNL     1     -39.455  24.001   1.086  0.00  0.00    +0.153 C 
BRANCH  16  17
ATOM     17  C   UNL     1     -38.213  23.148   1.216  0.00  0.00    +0.006 C 
ATOM     18  C   UNL     1     -37.189  23.262   0.275  0.00  0.00    -0.000 C 
ATOM     19  C   UNL     1     -38.090  22.251   2.275  0.00  0.00    -0.000 C 
ATOM     20  C   UNL     1     -36.042  22.477   0.395  0.00  0.00    +0.024 C 
ATOM     21  C   UNL     1     -36.943  21.465   2.396  0.00  0.00    +0.024 C 
ATOM     22  C   UNL     1     -35.919  21.579   1.455  0.00  0.00    +0.143 C 
BRANCH  22  25
ATOM     23  O   UNL     1     -34.702  19.912   2.483  0.00  0.00    -0.126 OA
ATOM     24  O   UNL     1     -33.802  20.963   0.779  0.00  0.00    -0.126 OA
ATOM     25  N   UNL     1     -34.752  20.780   1.578  0.00  0.00    +0.058 N 
ENDBRANCH  22  25
ENDBRANCH  16  17
BRANCH  16  26
ATOM     26  O   UNL     1     -40.530  23.268   1.684  0.00  0.00    -0.378 OA
ATOM     27  H   UNL     1     -40.261  22.343   1.807  0.00  0.00    +0.211 HD
ENDBRANCH  16  26
ENDBRANCH   1  16
BRANCH   1  28
ATOM     28  C   UNL     1     -40.379  25.634   2.861  0.00  0.00    +0.159 C 
BRANCH  28  29
ATOM     29  O   UNL     1     -40.024  24.986   4.076  0.00  0.00    -0.380 OA
ATOM     30  H   UNL     1     -40.800  24.939   4.655  0.00  0.00    +0.211 HD
ENDBRANCH  28  29
ENDBRANCH   1  28
TORSDOF 10
ENDMDL
MODEL 5
REMARK VINA RESULT:      -5.8      3.096      6.203
REMARK  Name = 196929
REMARK  10 active torsions:
REMARK  status: ('A' for Active; 'I' for Inactive)
REMARK    1  A    between atoms: CA_1  and  N_3
REMARK    2  A    between atoms: CA_1  and  C_16
REMARK    3  A    between atoms: CA_1  and  C_28
REMARK    4  A    between atoms: C_4  and  C_9
REMARK    5  A    between atoms: C_7  and  C_13
REMARK    6  A    between atoms: C_13  and  C_14
REMARK    7  A    between atoms: C_16  and  C_17
REMARK    8  A    between atoms: C_16  and  O_26
REMARK    9  A    between atoms: C_22  and  N_25
REMARK   10  A    between atoms: C_28  and  O_29
REMARK                            x       y       z     vdW  Elec       q    Type
REMARK                         _______ _______ _______ _____ _____    ______ ____
ROOT
ATOM      1  CA  UNL     1     -38.080  21.347   1.811  0.00  0.00    +0.132 C 
ENDROOT
BRANCH   1   3
ATOM      2  O   UNL     1     -35.571  20.357   2.887  0.00  0.00    -0.277 OA
ATOM      3  N   UNL     1     -37.149  22.054   2.661  0.00  0.00    -0.303 N 
ATOM      4  C   UNL     1     -35.972  21.493   3.126  0.00  0.00    +0.203 C 
ATOM      5  H   UNL     1     -37.364  22.978   2.923  0.00  0.00    +0.149 HD
BRANCH   4   9
ATOM      6  N   UNL     1     -35.942  22.655   5.204  0.00  0.00    +0.392 N 
ATOM      7  C   UNL     1     -35.893  24.746   4.212  0.00  0.00    -0.022 C 
ATOM      8  C   UNL     1     -35.086  23.823   3.301  0.00  0.00    -0.014 C 
ATOM      9  C   UNL     1     -35.184  22.448   3.965  0.00  0.00    +0.020 C 
ATOM     10  C   UNL     1     -35.771  24.063   5.568  0.00  0.00    -0.077 C 
ATOM     11  C   UNL     1     -35.540  21.757   6.278  0.00  0.00    -0.100 C 
ATOM     12  H   UNL     1     -36.927  22.435   5.052  0.00  0.00    -0.079 HD
BRANCH   7  13
ATOM     13  C   UNL     1     -35.399  26.182   4.214  0.00  0.00    -0.002 C 
BRANCH  13  14
ATOM     14  C   UNL     1     -34.080  26.319   4.973  0.00  0.00    -0.000 C 
ATOM     15  C   UNL     1     -33.142  27.300   4.288  0.00  0.00    -0.000 C 
ENDBRANCH  13  14
ENDBRANCH   7  13
ENDBRANCH   4   9
ENDBRANCH   1   3
BRANCH   1  16
ATOM     16  C   UNL     1     -39.526  21.723   2.199  0.00  0.00    +0.153 C 
BRANCH  16  17
ATOM     17  C   UNL     1     -39.868  23.175   1.957  0.00  0.00    +0.006 C 
ATOM     18  C   UNL     1     -39.463  24.148   2.872  0.00  0.00    -0.000 C 
ATOM     19  C   UNL     1     -40.584  23.544   0.819  0.00  0.00    -0.000 C 
ATOM     20  C   UNL     1     -39.776  25.488   2.649  0.00  0.00    +0.024 C 
ATOM     21  C   UNL     1     -40.898  24.884   0.595  0.00  0.00    +0.024 C 
ATOM     22  C   UNL     1     -40.494  25.857   1.510  0.00  0.00    +0.143 C 
BRANCH  22  25
ATOM     23  O   UNL     1     -40.099  27.889   0.494  0.00  0.00    -0.126 OA
ATOM     24  O   UNL     1     -41.798  27.723   1.874  0.00  0.00    -0.126 OA
ATOM     25  N   UNL     1     -40.812  27.222   1.282  0.00  0.00    +0.058 N 
ENDBRANCH  22  25
ENDBRANCH  16  17
BRANCH  16  26
ATOM     26  O   UNL     1     -40.444  20.942   1.425  0.00  0.00    -0.378 OA
ATOM     27  H   UNL     1     -40.645  21.407   0.597  0.00  0.00    +0.211 HD
ENDBRANCH  16  26
ENDBRANCH   1  16
BRANCH   1  28
ATOM     28  C   UNL     1     -37.733  21.619   0.342  0.00  0.00    +0.159 C 
BRANCH  28  29
ATOM     29  O   UNL     1     -38.353  20.679  -0.525  0.00  0.00    -0.380 OA
ATOM     30  H   UNL     1     -37.816  20.573  -1.325  0.00  0.00    +0.211 HD
ENDBRANCH  28  29
ENDBRANCH   1  28
TORSDOF 10
ENDMDL
MODEL 6
REMARK VINA RESULT:      -5.7      1.679      2.227
REMARK  Name = 196929
REMARK  10 active torsions:
REMARK  status: ('A' for Active; 'I' for Inactive)
REMARK    1  A    between atoms: CA_1  and  N_3
REMARK    2  A    between atoms: CA_1  and  C_16
REMARK    3  A    between atoms: CA_1  and  C_28
REMARK    4  A    between atoms: C_4  and  C_9
REMARK    5  A    between atoms: C_7  and  C_13
REMARK    6  A    between atoms: C_13  and  C_14
REMARK    7  A    between atoms: C_16  and  C_17
REMARK    8  A    between atoms: C_16  and  O_26
REMARK    9  A    between atoms: C_22  and  N_25
REMARK   10  A    between atoms: C_28  and  O_29
REMARK                            x       y       z     vdW  Elec       q    Type
REMARK                         _______ _______ _______ _____ _____    ______ ____
ROOT
ATOM      1  CA  UNL     1     -35.759  24.219   4.597  0.00  0.00    +0.132 C 
ENDROOT
BRANCH   1   3
ATOM      2  O   UNL     1     -36.828  24.296   1.899  0.00  0.00    -0.277 OA
ATOM      3  N   UNL     1     -37.133  24.027   4.191  0.00  0.00    -0.303 N 
ATOM      4  C   UNL     1     -37.547  24.083   2.871  0.00  0.00    +0.203 C 
ATOM      5  H   UNL     1     -37.805  23.849   4.886  0.00  0.00    +0.149 HD
BRANCH   4   9
ATOM      6  N   UNL     1     -39.305  23.801   1.290  0.00  0.00    +0.392 N 
ATOM      7  C   UNL     1     -40.519  25.604   2.085  0.00  0.00    -0.022 C 
ATOM      8  C   UNL     1     -39.840  24.979   3.302  0.00  0.00    -0.014 C 
ATOM      9  C   UNL     1     -39.013  23.826   2.728  0.00  0.00    +0.020 C 
ATOM     10  C   UNL     1     -40.616  24.431   1.119  0.00  0.00    -0.077 C 
ATOM     11  C   UNL     1     -39.260  22.462   0.719  0.00  0.00    -0.100 C 
ATOM     12  H   UNL     1     -38.585  24.314   0.779  0.00  0.00    -0.079 HD
BRANCH   7  13
ATOM     13  C   UNL     1     -41.864  26.238   2.400  0.00  0.00    -0.002 C 
BRANCH  13  14
ATOM     14  C   UNL     1     -41.869  26.882   3.784  0.00  0.00    -0.000 C 
ATOM     15  C   UNL     1     -42.916  27.981   3.885  0.00  0.00    -0.000 C 
ENDBRANCH  13  14
ENDBRANCH   7  13
ENDBRANCH   4   9
ENDBRANCH   1   3
BRANCH   1  16
ATOM     16  C   UNL     1     -35.668  25.412   5.572  0.00  0.00    +0.153 C 
BRANCH  16  17
ATOM     17  C   UNL     1     -34.450  26.283   5.363  0.00  0.00    +0.006 C 
ATOM     18  C   UNL     1     -33.591  26.547   6.430  0.00  0.00    -0.000 C 
ATOM     19  C   UNL     1     -34.183  26.820   4.104  0.00  0.00    -0.000 C 
ATOM     20  C   UNL     1     -32.467  27.349   6.238  0.00  0.00    +0.024 C 
ATOM     21  C   UNL     1     -33.058  27.623   3.911  0.00  0.00    +0.024 C 
ATOM     22  C   UNL     1     -32.200  27.887   4.978  0.00  0.00    +0.143 C 
BRANCH  22  25
ATOM     23  O   UNL     1     -30.664  29.438   5.722  0.00  0.00    -0.126 OA
ATOM     24  O   UNL     1     -30.464  28.667   3.676  0.00  0.00    -0.126 OA
ATOM     25  N   UNL     1     -31.054  28.703   4.782  0.00  0.00    +0.058 N 
ENDBRANCH  22  25
ENDBRANCH  16  17
BRANCH  16  26
ATOM     26  O   UNL     1     -36.816  26.251   5.405  0.00  0.00    -0.378 OA
ATOM     27  H   UNL     1     -36.544  27.097   5.015  0.00  0.00    +0.211 HD
ENDBRANCH  16  26
ENDBRANCH   1  16
BRANCH   1  28
ATOM     28  C   UNL     1     -35.208  22.904   5.161  0.00  0.00    +0.159 C 
BRANCH  28  29
ATOM     29  O   UNL     1     -36.167  22.240   5.973  0.00  0.00    -0.380 OA
ATOM     30  H   UNL     1     -36.834  21.821   5.409  0.00  0.00    +0.211 HD
ENDBRANCH  28  29
ENDBRANCH   1  28
TORSDOF 10
ENDMDL
MODEL 7
REMARK VINA RESULT:      -5.7      1.676      2.222
REMARK  Name = 196929
REMARK  10 active torsions:
REMARK  status: ('A' for Active; 'I' for Inactive)
REMARK    1  A    between atoms: CA_1  and  N_3
REMARK    2  A    between atoms: CA_1  and  C_16
REMARK    3  A    between atoms: CA_1  and  C_28
REMARK    4  A    between atoms: C_4  and  C_9
REMARK    5  A    between atoms: C_7  and  C_13
REMARK    6  A    between atoms: C_13  and  C_14
REMARK    7  A    between atoms: C_16  and  C_17
REMARK    8  A    between atoms: C_16  and  O_26
REMARK    9  A    between atoms: C_22  and  N_25
REMARK   10  A    between atoms: C_28  and  O_29
REMARK                            x       y       z     vdW  Elec       q    Type
REMARK                         _______ _______ _______ _____ _____    ______ ____
ROOT
ATOM      1  CA  UNL     1     -36.888  21.023   0.822  0.00  0.00    +0.132 C 
ENDROOT
BRANCH   1   3
ATOM      2  O   UNL     1     -38.073  23.554   0.035  0.00  0.00    -0.277 OA
ATOM      3  N   UNL     1     -38.128  21.597   1.294  0.00  0.00    -0.303 N 
ATOM      4  C   UNL     1     -38.612  22.818   0.856  0.00  0.00    +0.203 C 
ATOM      5  H   UNL     1     -38.652  21.096   1.959  0.00  0.00    +0.149 HD
BRANCH   4   9
ATOM      6  N   UNL     1     -40.669  23.965   0.508  0.00  0.00    +0.392 N 
ATOM      7  C   UNL     1     -40.350  25.401   2.296  0.00  0.00    -0.022 C 
ATOM      8  C   UNL     1     -39.736  24.065   2.708  0.00  0.00    -0.014 C 
ATOM      9  C   UNL     1     -39.924  23.164   1.485  0.00  0.00    +0.020 C 
ATOM     10  C   UNL     1     -41.396  24.983   1.270  0.00  0.00    -0.077 C 
ATOM     11  C   UNL     1     -41.556  23.168  -0.329  0.00  0.00    -0.100 C 
ATOM     12  H   UNL     1     -40.024  24.397  -0.153  0.00  0.00    -0.079 HD
BRANCH   7  13
ATOM     13  C   UNL     1     -40.929  26.188   3.459  0.00  0.00    -0.002 C 
BRANCH  13  14
ATOM     14  C   UNL     1     -42.346  26.672   3.158  0.00  0.00    -0.000 C 
ATOM     15  C   UNL     1     -42.628  28.015   3.813  0.00  0.00    -0.000 C 
ENDBRANCH  13  14
ENDBRANCH   7  13
ENDBRANCH   4   9
ENDBRANCH   1   3
BRANCH   1  16
ATOM     16  C   UNL     1     -35.936  20.792   2.014  0.00  0.00    +0.153 C 
BRANCH  16  17
ATOM     17  C   UNL     1     -35.549  22.058   2.744  0.00  0.00    +0.006 C 
ATOM     18  C   UNL     1     -35.741  22.154   4.122  0.00  0.00    -0.000 C 
ATOM     19  C   UNL     1     -34.997  23.128   2.042  0.00  0.00    -0.000 C 
ATOM     20  C   UNL     1     -35.383  23.321   4.797  0.00  0.00    +0.024 C 
ATOM     21  C   UNL     1     -34.639  24.296   2.715  0.00  0.00    +0.024 C 
ATOM     22  C   UNL     1     -34.831  24.392   4.094  0.00  0.00    +0.143 C 
BRANCH  22  25
ATOM     23  O   UNL     1     -35.369  26.355   5.177  0.00  0.00    -0.126 OA
ATOM     24  O   UNL     1     -33.249  25.822   4.971  0.00  0.00    -0.126 OA
ATOM     25  N   UNL     1     -34.465  25.580   4.780  0.00  0.00    +0.058 N 
ENDBRANCH  22  25
ENDBRANCH  16  17
BRANCH  16  26
ATOM     26  O   UNL     1     -36.571  19.936   2.970  0.00  0.00    -0.378 OA
ATOM     27  H   UNL     1     -37.112  19.277   2.505  0.00  0.00    +0.211 HD
ENDBRANCH  16  26
ENDBRANCH   1  16
BRANCH   1  28
ATOM     28  C   UNL     1     -37.191  19.760   0.006  0.00  0.00    +0.159 C 
BRANCH  28  29
ATOM     29  O   UNL     1     -36.876  18.580   0.732  0.00  0.00    -0.380 OA
ATOM     30  H   UNL     1     -37.596  18.378   1.349  0.00  0.00    +0.211 HD
ENDBRANCH  28  29
ENDBRANCH   1  28
TORSDOF 10
ENDMDL
MODEL 8
REMARK VINA RESULT:      -5.6      3.931      7.040
REMARK  Name = 196929
REMARK  10 active torsions:
REMARK  status: ('A' for Active; 'I' for Inactive)
REMARK    1  A    between atoms: CA_1  and  N_3
REMARK    2  A    between atoms: CA_1  and  C_16
REMARK    3  A    between atoms: CA_1  and  C_28
REMARK    4  A    between atoms: C_4  and  C_9
REMARK    5  A    between atoms: C_7  and  C_13
REMARK    6  A    between atoms: C_13  and  C_14
REMARK    7  A    between atoms: C_16  and  C_17
REMARK    8  A    between atoms: C_16  and  O_26
REMARK    9  A    between atoms: C_22  and  N_25
REMARK   10  A    between atoms: C_28  and  O_29
REMARK                            x       y       z     vdW  Elec       q    Type
REMARK                         _______ _______ _______ _____ _____    ______ ____
ROOT
ATOM      1  CA  UNL     1     -35.270  21.534   1.142  0.00  0.00    +0.132 C 
ENDROOT
BRANCH   1   3
ATOM      2  O   UNL     1     -34.365  24.199   1.854  0.00  0.00    -0.277 OA
ATOM      3  N   UNL     1     -35.486  22.231   2.390  0.00  0.00    -0.303 N 
ATOM      4  C   UNL     1     -35.012  23.508   2.636  0.00  0.00    +0.203 C 
ATOM      5  H   UNL     1     -35.994  21.775   3.098  0.00  0.00    +0.149 HD
BRANCH   4   9
ATOM      6  N   UNL     1     -36.113  25.268   3.802  0.00  0.00    +0.392 N 
ATOM      7  C   UNL     1     -34.226  25.859   5.006  0.00  0.00    -0.022 C 
ATOM      8  C   UNL     1     -34.162  24.343   4.833  0.00  0.00    -0.014 C 
ATOM      9  C   UNL     1     -35.396  24.002   3.994  0.00  0.00    +0.020 C 
ATOM     10  C   UNL     1     -35.720  26.142   4.909  0.00  0.00    -0.077 C 
ATOM     11  C   UNL     1     -37.557  25.101   3.719  0.00  0.00    -0.100 C 
ATOM     12  H   UNL     1     -35.858  25.680   2.904  0.00  0.00    -0.079 HD
BRANCH   7  13
ATOM     13  C   UNL     1     -33.603  26.349   6.303  0.00  0.00    -0.002 C 
BRANCH  13  14
ATOM     14  C   UNL     1     -32.703  27.560   6.068  0.00  0.00    -0.000 C 
ATOM     15  C   UNL     1     -32.526  27.845   4.585  0.00  0.00    -0.000 C 
ENDBRANCH  13  14
ENDBRANCH   7  13
ENDBRANCH   4   9
ENDBRANCH   1   3
BRANCH   1  16
ATOM     16  C   UNL     1     -34.935  20.054   1.426  0.00  0.00    +0.153 C 
BRANCH  16  17
ATOM     17  C   UNL     1     -33.528  19.659   1.041  0.00  0.00    +0.006 C 
ATOM     18  C   UNL     1     -33.000  18.445   1.481  0.00  0.00    -0.000 C 
ATOM     19  C   UNL     1     -32.758  20.505   0.244  0.00  0.00    -0.000 C 
ATOM     20  C   UNL     1     -31.702  18.079   1.125  0.00  0.00    +0.024 C 
ATOM     21  C   UNL     1     -31.460  20.140  -0.112  0.00  0.00    +0.024 C 
ATOM     22  C   UNL     1     -30.932  18.926   0.328  0.00  0.00    +0.143 C 
BRANCH  22  25
ATOM     23  O   UNL     1     -28.802  19.447  -0.384  0.00  0.00    -0.126 OA
ATOM     24  O   UNL     1     -29.288  17.342   0.003  0.00  0.00    -0.126 OA
ATOM     25  N   UNL     1     -29.611  18.553  -0.035  0.00  0.00    +0.058 N 
ENDBRANCH  22  25
ENDBRANCH  16  17
BRANCH  16  26
ATOM     26  O   UNL     1     -35.074  19.796   2.827  0.00  0.00    -0.378 OA
ATOM     27  H   UNL     1     -35.996  19.564   3.023  0.00  0.00    +0.211 HD
ENDBRANCH  16  26
ENDBRANCH   1  16
BRANCH   1  28
ATOM     28  C   UNL     1     -36.485  21.739   0.229  0.00  0.00    +0.159 C 
BRANCH  28  29
ATOM     29  O   UNL     1     -37.567  20.895   0.599  0.00  0.00    -0.380 OA
ATOM     30  H   UNL     1     -37.383  19.988   0.310  0.00  0.00    +0.211 HD
ENDBRANCH  28  29
ENDBRANCH   1  28
TORSDOF 10
ENDMDL
MODEL 9
REMARK VINA RESULT:      -5.6      3.070      6.795
REMARK  Name = 196929
REMARK  10 active torsions:
REMARK  status: ('A' for Active; 'I' for Inactive)
REMARK    1  A    between atoms: CA_1  and  N_3
REMARK    2  A    between atoms: CA_1  and  C_16
REMARK    3  A    between atoms: CA_1  and  C_28
REMARK    4  A    between atoms: C_4  and  C_9
REMARK    5  A    between atoms: C_7  and  C_13
REMARK    6  A    between atoms: C_13  and  C_14
REMARK    7  A    between atoms: C_16  and  C_17
REMARK    8  A    between atoms: C_16  and  O_26
REMARK    9  A    between atoms: C_22  and  N_25
REMARK   10  A    between atoms: C_28  and  O_29
REMARK                            x       y       z     vdW  Elec       q    Type
REMARK                         _______ _______ _______ _____ _____    ______ ____
ROOT
ATOM      1  CA  UNL     1     -37.642  22.054   2.175  0.00  0.00    +0.132 C 
ENDROOT
BRANCH   1   3
ATOM      2  O   UNL     1     -35.420  20.379   3.004  0.00  0.00    -0.277 OA
ATOM      3  N   UNL     1     -36.705  21.355   1.326  0.00  0.00    -0.303 N 
ATOM      4  C   UNL     1     -35.671  20.576   1.819  0.00  0.00    +0.203 C 
ATOM      5  H   UNL     1     -36.805  21.438   0.351  0.00  0.00    +0.149 HD
BRANCH   4   9
ATOM      6  N   UNL     1     -35.214  18.522   0.704  0.00  0.00    +0.392 N 
ATOM      7  C   UNL     1     -32.963  18.551   1.245  0.00  0.00    -0.022 C 
ATOM      8  C   UNL     1     -33.368  20.008   1.032  0.00  0.00    -0.014 C 
ATOM      9  C   UNL     1     -34.867  19.948   0.726  0.00  0.00    +0.020 C 
ATOM     10  C   UNL     1     -33.979  17.797   0.398  0.00  0.00    -0.077 C 
ATOM     11  C   UNL     1     -36.283  18.208  -0.233  0.00  0.00    -0.100 C 
ATOM     12  H   UNL     1     -35.587  18.240   1.611  0.00  0.00    -0.079 HD
BRANCH   7  13
ATOM     13  C   UNL     1     -31.523  18.259   0.861  0.00  0.00    -0.002 C 
BRANCH  13  14
ATOM     14  C   UNL     1     -31.409  17.837  -0.603  0.00  0.00    -0.000 C 
ATOM     15  C   UNL     1     -30.346  16.766  -0.793  0.00  0.00    -0.000 C 
ENDBRANCH  13  14
ENDBRANCH   7  13
ENDBRANCH   4   9
ENDBRANCH   1   3
BRANCH   1  16
ATOM     16  C   UNL     1     -37.556  23.571   1.905  0.00  0.00    +0.153 C 
BRANCH  16  17
ATOM     17  C   UNL     1     -36.553  24.293   2.774  0.00  0.00    +0.006 C 
ATOM     18  C   UNL     1     -35.230  24.420   2.353  0.00  0.00    -0.000 C 
ATOM     19  C   UNL     1     -36.950  24.835   3.996  0.00  0.00    -0.000 C 
ATOM     20  C   UNL     1     -34.303  25.088   3.153  0.00  0.00    +0.024 C 
ATOM     21  C   UNL     1     -36.024  25.503   4.798  0.00  0.00    +0.024 C 
ATOM     22  C   UNL     1     -34.701  25.630   4.376  0.00  0.00    +0.143 C 
BRANCH  22  25
ATOM     23  O   UNL     1     -33.987  26.423   6.421  0.00  0.00    -0.126 OA
ATOM     24  O   UNL     1     -32.723  26.781   4.662  0.00  0.00    -0.126 OA
ATOM     25  N   UNL     1     -33.758  26.311   5.192  0.00  0.00    +0.058 N 
ENDBRANCH  22  25
ENDBRANCH  16  17
BRANCH  16  26
ATOM     26  O   UNL     1     -37.165  23.790   0.545  0.00  0.00    -0.378 OA
ATOM     27  H   UNL     1     -37.940  24.056   0.024  0.00  0.00    +0.211 HD
ENDBRANCH  16  26
ENDBRANCH   1  16
BRANCH   1  28
ATOM     28  C   UNL     1     -39.043  21.460   1.982  0.00  0.00    +0.159 C 
BRANCH  28  29
ATOM     29  O   UNL     1     -39.075  20.536   0.901  0.00  0.00    -0.380 OA
ATOM     30  H   UNL     1     -38.422  20.797   0.234  0.00  0.00    +0.211 HD
ENDBRANCH  28  29
ENDBRANCH   1  28
TORSDOF 10
ENDMDL
