MODEL 1
REMARK VINA RESULT:      -6.9      0.000      0.000
REMARK  Name = 5282492
REMARK  7 active torsions:
REMARK  status: ('A' for Active; 'I' for Inactive)
REMARK    1  A    between atoms: C_7  and  C_26
REMARK    2  A    between atoms: C_7  and  O_30
REMARK    3  A    between atoms: C_11  and  O_23
REMARK    4  A    between atoms: C_26  and  C_27
REMARK    5  A    between atoms: C_27  and  O_28
REMARK    6  A    between atoms: O_30  and  C_32
REMARK    7  A    between atoms: C_32  and  C_33
REMARK                            x       y       z     vdW  Elec       q    Type
REMARK                         _______ _______ _______ _____ _____    ______ ____
ROOT
ATOM      1  F   UNL     1     -33.865  21.136   1.358  0.00  0.00    -0.237 F 
ATOM      2  O   UNL     1     -30.775  17.363   1.429  0.00  0.00    -0.287 OA
ATOM      3  C   UNL     1     -36.251  23.360   0.054  0.00  0.00    +0.043 C 
ATOM      4  C   UNL     1     -36.488  21.981   0.705  0.00  0.00    +0.007 C 
ATOM      5  C   UNL     1     -35.759  20.834  -0.011  0.00  0.00    +0.033 C 
ATOM      6  C   UNL     1     -34.216  21.111   0.016  0.00  0.00    +0.164 C 
ATOM      7  C   UNL     1     -37.164  24.248   0.957  0.00  0.00    +0.189 C 
ATOM      8  C   UNL     1     -38.007  21.918   0.836  0.00  0.00    +0.004 C 
ATOM      9  C   UNL     1     -34.737  23.650   0.131  0.00  0.00    +0.036 C 
ATOM     10  C   UNL     1     -38.389  23.344   1.310  0.00  0.00    +0.044 C 
ATOM     11  C   UNL     1     -33.869  22.540  -0.502  0.00  0.00    +0.141 C 
ATOM     12  C   UNL     1     -33.389  19.923  -0.616  0.00  0.00    +0.064 C 
ATOM     13  C   UNL     1     -36.094  19.486   0.656  0.00  0.00    +0.007 C 
ATOM     14  C   UNL     1     -36.738  23.434  -1.420  0.00  0.00    +0.004 C 
ATOM     15  C   UNL     1     -35.302  18.331   0.055  0.00  0.00    +0.023 C 
ATOM     16  C   UNL     1     -33.825  18.633   0.088  0.00  0.00    -0.035 C 
ATOM     17  C   UNL     1     -39.738  23.762   0.734  0.00  0.00    +0.004 C 
ATOM     18  C   UNL     1     -33.612  19.738  -2.134  0.00  0.00    +0.011 C 
ATOM     19  C   UNL     1     -31.897  20.169  -0.435  0.00  0.00    -0.017 C 
ATOM     20  C   UNL     1     -32.984  17.818   0.744  0.00  0.00    +0.034 C 
ATOM     21  C   UNL     1     -31.054  19.363   0.218  0.00  0.00    +0.038 C 
ATOM     22  C   UNL     1     -31.541  18.119   0.841  0.00  0.00    +0.195 C 
ENDROOT
BRANCH  11  23
ATOM     23  O   UNL     1     -33.947  22.615  -1.918  0.00  0.00    -0.382 OA
ATOM     24  H   UNL     1     -33.877  21.724  -2.293  0.00  0.00    +0.210 HD
ENDBRANCH  11  23
BRANCH   7  26
ATOM     25  O   UNL     1     -38.245  25.763  -0.533  0.00  0.00    -0.290 OA
ATOM     26  C   UNL     1     -37.459  25.610   0.401  0.00  0.00    +0.216 C 
BRANCH  26  27
ATOM     27  C   UNL     1     -36.738  26.771   1.054  0.00  0.00    +0.206 C 
BRANCH  27  28
ATOM     28  O   UNL     1     -37.525  27.331   2.083  0.00  0.00    -0.375 OA
ATOM     29  H   UNL     1     -38.432  26.992   2.018  0.00  0.00    +0.211 HD
ENDBRANCH  27  28
ENDBRANCH  26  27
ENDBRANCH   7  26
BRANCH   7  30
ATOM     30  O   UNL     1     -36.482  24.567   2.176  0.00  0.00    -0.445 OA
BRANCH  30  32
ATOM     31  O   UNL     1     -38.280  24.654   3.611  0.00  0.00    -0.245 OA
ATOM     32  C   UNL     1     -37.155  24.278   3.317  0.00  0.00    +0.341 C 
BRANCH  32  33
ATOM     33  C   UNL     1     -36.328  23.418   4.200  0.00  0.00    +0.076 C 
ATOM     34  C   UNL     1     -35.915  23.916   5.419  0.00  0.00    +0.006 C 
ATOM     35  C   UNL     1     -35.998  22.148   3.774  0.00  0.00    +0.006 C 
ATOM     36  C   UNL     1     -35.139  23.107   6.249  0.00  0.00    +0.000 C 
ATOM     37  C   UNL     1     -35.220  21.339   4.604  0.00  0.00    +0.000 C 
ATOM     38  C   UNL     1     -34.791  21.818   5.842  0.00  0.00    +0.000 C 
ENDBRANCH  32  33
ENDBRANCH  30  32
ENDBRANCH   7  30
TORSDOF 7
ENDMDL
MODEL 2
REMARK VINA RESULT:      -6.7      2.764      6.660
REMARK  Name = 5282492
REMARK  7 active torsions:
REMARK  status: ('A' for Active; 'I' for Inactive)
REMARK    1  A    between atoms: C_7  and  C_26
REMARK    2  A    between atoms: C_7  and  O_30
REMARK    3  A    between atoms: C_11  and  O_23
REMARK    4  A    between atoms: C_26  and  C_27
REMARK    5  A    between atoms: C_27  and  O_28
REMARK    6  A    between atoms: O_30  and  C_32
REMARK    7  A    between atoms: C_32  and  C_33
REMARK                            x       y       z     vdW  Elec       q    Type
REMARK                         _______ _______ _______ _____ _____    ______ ____
ROOT
ATOM      1  F   UNL     1     -35.729  26.883   2.567  0.00  0.00    -0.237 F 
ATOM      2  O   UNL     1     -34.047  31.458   2.739  0.00  0.00    -0.287 OA
ATOM      3  C   UNL     1     -36.802  23.866   1.124  0.00  0.00    +0.043 C 
ATOM      4  C   UNL     1     -35.358  24.311   1.444  0.00  0.00    +0.007 C 
ATOM      5  C   UNL     1     -34.952  25.615   0.740  0.00  0.00    +0.033 C 
ATOM      6  C   UNL     1     -35.913  26.765   1.198  0.00  0.00    +0.164 C 
ATOM      7  C   UNL     1     -36.853  22.521   1.913  0.00  0.00    +0.189 C 
ATOM      8  C   UNL     1     -34.543  23.048   1.180  0.00  0.00    +0.004 C 
ATOM      9  C   UNL     1     -37.747  24.979   1.624  0.00  0.00    +0.036 C 
ATOM     10  C   UNL     1     -35.416  21.920   1.788  0.00  0.00    +0.044 C 
ATOM     11  C   UNL     1     -37.414  26.371   1.041  0.00  0.00    +0.141 C 
ATOM     12  C   UNL     1     -35.497  28.163   0.593  0.00  0.00    +0.064 C 
ATOM     13  C   UNL     1     -33.484  25.959   1.056  0.00  0.00    +0.007 C 
ATOM     14  C   UNL     1     -37.041  23.597  -0.388  0.00  0.00    +0.004 C 
ATOM     15  C   UNL     1     -33.069  27.306   0.477  0.00  0.00    +0.023 C 
ATOM     16  C   UNL     1     -34.017  28.387   0.929  0.00  0.00    -0.035 C 
ATOM     17  C   UNL     1     -35.278  20.635   0.977  0.00  0.00    +0.004 C 
ATOM     18  C   UNL     1     -35.658  28.259  -0.941  0.00  0.00    +0.011 C 
ATOM     19  C   UNL     1     -36.365  29.268   1.178  0.00  0.00    -0.017 C 
ATOM     20  C   UNL     1     -33.559  29.442   1.619  0.00  0.00    +0.034 C 
ATOM     21  C   UNL     1     -35.916  30.321   1.867  0.00  0.00    +0.038 C 
ATOM     22  C   UNL     1     -34.473  30.488   2.123  0.00  0.00    +0.195 C 
ENDROOT
BRANCH  11  23
ATOM     23  O   UNL     1     -37.832  26.439  -0.314  0.00  0.00    -0.382 OA
ATOM     24  H   UNL     1     -37.055  26.497  -0.890  0.00  0.00    +0.210 HD
ENDBRANCH  11  23
BRANCH   7  26
ATOM     25  O   UNL     1     -37.861  20.697   0.753  0.00  0.00    -0.290 OA
ATOM     26  C   UNL     1     -38.000  21.625   1.550  0.00  0.00    +0.216 C 
BRANCH  26  27
ATOM     27  C   UNL     1     -39.326  21.929   2.216  0.00  0.00    +0.206 C 
BRANCH  27  28
ATOM     28  O   UNL     1     -40.294  20.965   1.863  0.00  0.00    -0.375 OA
ATOM     29  H   UNL     1     -40.198  20.185   2.432  0.00  0.00    +0.211 HD
ENDBRANCH  27  28
ENDBRANCH  26  27
ENDBRANCH   7  26
BRANCH   7  30
ATOM     30  O   UNL     1     -37.106  22.778   3.301  0.00  0.00    -0.445 OA
BRANCH  30  32
ATOM     31  O   UNL     1     -35.570  21.493   4.435  0.00  0.00    -0.245 OA
ATOM     32  C   UNL     1     -36.058  22.572   4.136  0.00  0.00    +0.341 C 
BRANCH  32  33
ATOM     33  C   UNL     1     -35.557  23.867   4.662  0.00  0.00    +0.076 C 
ATOM     34  C   UNL     1     -36.467  24.802   5.109  0.00  0.00    +0.006 C 
ATOM     35  C   UNL     1     -34.196  24.093   4.688  0.00  0.00    +0.006 C 
ATOM     36  C   UNL     1     -35.996  26.017   5.604  0.00  0.00    +0.000 C 
ATOM     37  C   UNL     1     -33.724  25.310   5.183  0.00  0.00    +0.000 C 
ATOM     38  C   UNL     1     -34.624  26.272   5.641  0.00  0.00    +0.000 C 
ENDBRANCH  32  33
ENDBRANCH  30  32
ENDBRANCH   7  30
TORSDOF 7
ENDMDL
MODEL 3
REMARK VINA RESULT:      -6.6      3.074      6.831
REMARK  Name = 5282492
REMARK  7 active torsions:
REMARK  status: ('A' for Active; 'I' for Inactive)
REMARK    1  A    between atoms: C_7  and  C_26
REMARK    2  A    between atoms: C_7  and  O_30
REMARK    3  A    between atoms: C_11  and  O_23
REMARK    4  A    between atoms: C_26  and  C_27
REMARK    5  A    between atoms: C_27  and  O_28
REMARK    6  A    between atoms: O_30  and  C_32
REMARK    7  A    between atoms: C_32  and  C_33
REMARK                            x       y       z     vdW  Elec       q    Type
REMARK                         _______ _______ _______ _____ _____    ______ ____
ROOT
ATOM      1  F   UNL     1     -35.475  27.328   2.794  0.00  0.00    -0.237 F 
ATOM      2  O   UNL     1     -33.068  31.456   3.772  0.00  0.00    -0.287 OA
ATOM      3  C   UNL     1     -37.052  24.868   0.846  0.00  0.00    +0.043 C 
ATOM      4  C   UNL     1     -35.549  25.009   1.171  0.00  0.00    +0.007 C 
ATOM      5  C   UNL     1     -34.950  26.349   0.717  0.00  0.00    +0.033 C 
ATOM      6  C   UNL     1     -35.702  27.518   1.440  0.00  0.00    +0.164 C 
ATOM      7  C   UNL     1     -37.305  23.415   1.357  0.00  0.00    +0.189 C 
ATOM      8  C   UNL     1     -34.955  23.715   0.623  0.00  0.00    +0.004 C 
ATOM      9  C   UNL     1     -37.793  25.990   1.602  0.00  0.00    +0.036 C 
ATOM     10  C   UNL     1     -35.987  22.636   1.042  0.00  0.00    +0.044 C 
ATOM     11  C   UNL     1     -37.250  27.402   1.287  0.00  0.00    +0.141 C 
ATOM     12  C   UNL     1     -35.076  28.928   1.099  0.00  0.00    +0.064 C 
ATOM     13  C   UNL     1     -33.439  26.390   1.017  0.00  0.00    +0.007 C 
ATOM     14  C   UNL     1     -37.360  24.950  -0.676  0.00  0.00    +0.004 C 
ATOM     15  C   UNL     1     -32.822  27.745   0.692  0.00  0.00    +0.023 C 
ATOM     16  C   UNL     1     -33.574  28.847   1.395  0.00  0.00    -0.035 C 
ATOM     17  C   UNL     1     -36.076  21.536  -0.010  0.00  0.00    +0.004 C 
ATOM     18  C   UNL     1     -35.250  29.355  -0.376  0.00  0.00    +0.011 C 
ATOM     19  C   UNL     1     -35.741  30.013   1.934  0.00  0.00    -0.017 C 
ATOM     20  C   UNL     1     -32.936  29.657   2.254  0.00  0.00    +0.034 C 
ATOM     21  C   UNL     1     -35.114  30.823   2.792  0.00  0.00    +0.038 C 
ATOM     22  C   UNL     1     -33.659  30.709   3.000  0.00  0.00    +0.195 C 
ENDROOT
BRANCH  11  23
ATOM     23  O   UNL     1     -37.678  27.806  -0.005  0.00  0.00    -0.382 OA
ATOM     24  H   UNL     1     -37.495  27.098  -0.642  0.00  0.00    +0.210 HD
ENDBRANCH  11  23
BRANCH   7  26
ATOM     25  O   UNL     1     -38.960  22.910  -0.283  0.00  0.00    -0.290 OA
ATOM     26  C   UNL     1     -38.590  22.800   0.886  0.00  0.00    +0.216 C 
BRANCH  26  27
ATOM     27  C   UNL     1     -39.393  22.046   1.924  0.00  0.00    +0.206 C 
BRANCH  27  28
ATOM     28  O   UNL     1     -38.780  20.811   2.228  0.00  0.00    -0.375 OA
ATOM     29  H   UNL     1     -39.420  20.233   2.672  0.00  0.00    +0.211 HD
ENDBRANCH  27  28
ENDBRANCH  26  27
ENDBRANCH   7  26
BRANCH   7  30
ATOM     30  O   UNL     1     -37.485  23.423   2.780  0.00  0.00    -0.445 OA
BRANCH  30  32
ATOM     31  O   UNL     1     -36.091  21.759   3.542  0.00  0.00    -0.245 OA
ATOM     32  C   UNL     1     -36.454  22.925   3.504  0.00  0.00    +0.341 C 
BRANCH  32  33
ATOM     33  C   UNL     1     -35.795  24.008   4.276  0.00  0.00    +0.076 C 
ATOM     34  C   UNL     1     -34.417  24.057   4.314  0.00  0.00    +0.006 C 
ATOM     35  C   UNL     1     -36.582  24.933   4.930  0.00  0.00    +0.006 C 
ATOM     36  C   UNL     1     -33.798  25.075   5.038  0.00  0.00    +0.000 C 
ATOM     37  C   UNL     1     -35.962  25.953   5.656  0.00  0.00    +0.000 C 
ATOM     38  C   UNL     1     -34.571  26.024   5.709  0.00  0.00    +0.000 C 
ENDBRANCH  32  33
ENDBRANCH  30  32
ENDBRANCH   7  30
TORSDOF 7
ENDMDL
MODEL 4
REMARK VINA RESULT:      -6.6      1.780      2.471
REMARK  Name = 5282492
REMARK  7 active torsions:
REMARK  status: ('A' for Active; 'I' for Inactive)
REMARK    1  A    between atoms: C_7  and  C_26
REMARK    2  A    between atoms: C_7  and  O_30
REMARK    3  A    between atoms: C_11  and  O_23
REMARK    4  A    between atoms: C_26  and  C_27
REMARK    5  A    between atoms: C_27  and  O_28
REMARK    6  A    between atoms: O_30  and  C_32
REMARK    7  A    between atoms: C_32  and  C_33
REMARK                            x       y       z     vdW  Elec       q    Type
REMARK                         _______ _______ _______ _____ _____    ______ ____
ROOT
ATOM      1  F   UNL     1     -35.227  21.478   0.676  0.00  0.00    -0.237 F 
ATOM      2  O   UNL     1     -34.154  17.023  -0.994  0.00  0.00    -0.287 OA
ATOM      3  C   UNL     1     -36.758  24.639   0.756  0.00  0.00    +0.043 C 
ATOM      4  C   UNL     1     -37.314  23.295   1.277  0.00  0.00    +0.007 C 
ATOM      5  C   UNL     1     -37.412  22.213   0.190  0.00  0.00    +0.033 C 
ATOM      6  C   UNL     1     -35.982  21.940  -0.391  0.00  0.00    +0.164 C 
ATOM      7  C   UNL     1     -36.861  25.497   2.055  0.00  0.00    +0.189 C 
ATOM      8  C   UNL     1     -38.581  23.711   2.017  0.00  0.00    +0.004 C 
ATOM      9  C   UNL     1     -35.331  24.373   0.232  0.00  0.00    +0.036 C 
ATOM     10  C   UNL     1     -38.155  24.995   2.774  0.00  0.00    +0.044 C 
ATOM     11  C   UNL     1     -35.268  23.254  -0.832  0.00  0.00    +0.141 C 
ATOM     12  C   UNL     1     -35.986  20.765  -1.447  0.00  0.00    +0.064 C 
ATOM     13  C   UNL     1     -38.032  20.927   0.769  0.00  0.00    +0.007 C 
ATOM     14  C   UNL     1     -37.632  25.272  -0.362  0.00  0.00    +0.004 C 
ATOM     15  C   UNL     1     -38.041  19.785  -0.240  0.00  0.00    +0.023 C 
ATOM     16  C   UNL     1     -36.655  19.555  -0.786  0.00  0.00    -0.035 C 
ATOM     17  C   UNL     1     -39.315  25.981   2.864  0.00  0.00    +0.004 C 
ATOM     18  C   UNL     1     -36.758  21.088  -2.746  0.00  0.00    +0.011 C 
ATOM     19  C   UNL     1     -34.561  20.439  -1.874  0.00  0.00    -0.017 C 
ATOM     20  C   UNL     1     -36.063  18.360  -0.641  0.00  0.00    +0.034 C 
ATOM     21  C   UNL     1     -33.964  19.252  -1.731  0.00  0.00    +0.038 C 
ATOM     22  C   UNL     1     -34.684  18.122  -1.116  0.00  0.00    +0.195 C 
ENDROOT
BRANCH  11  23
ATOM     23  O   UNL     1     -35.777  23.736  -2.067  0.00  0.00    -0.382 OA
ATOM     24  H   UNL     1     -35.252  23.371  -2.796  0.00  0.00    +0.210 HD
ENDBRANCH  11  23
BRANCH   7  26
ATOM     25  O   UNL     1     -37.689  27.656   1.471  0.00  0.00    -0.290 OA
ATOM     26  C   UNL     1     -36.731  26.976   1.840  0.00  0.00    +0.216 C 
BRANCH  26  27
ATOM     27  C   UNL     1     -35.365  27.575   2.102  0.00  0.00    +0.206 C 
BRANCH  27  28
ATOM     28  O   UNL     1     -35.344  28.244   3.345  0.00  0.00    -0.375 OA
ATOM     29  H   UNL     1     -34.426  28.439   3.592  0.00  0.00    +0.211 HD
ENDBRANCH  27  28
ENDBRANCH  26  27
ENDBRANCH   7  26
BRANCH   7  30
ATOM     30  O   UNL     1     -35.744  25.223   2.911  0.00  0.00    -0.445 OA
BRANCH  30  32
ATOM     31  O   UNL     1     -36.517  25.919   4.965  0.00  0.00    -0.245 OA
ATOM     32  C   UNL     1     -36.036  25.072   4.227  0.00  0.00    +0.341 C 
BRANCH  32  33
ATOM     33  C   UNL     1     -35.687  23.702   4.678  0.00  0.00    +0.076 C 
ATOM     34  C   UNL     1     -35.517  22.712   3.732  0.00  0.00    +0.006 C 
ATOM     35  C   UNL     1     -35.543  23.462   6.029  0.00  0.00    +0.006 C 
ATOM     36  C   UNL     1     -35.188  21.425   4.156  0.00  0.00    +0.000 C 
ATOM     37  C   UNL     1     -35.215  22.173   6.453  0.00  0.00    +0.000 C 
ATOM     38  C   UNL     1     -35.037  21.155   5.517  0.00  0.00    +0.000 C 
ENDBRANCH  32  33
ENDBRANCH  30  32
ENDBRANCH   7  30
TORSDOF 7
ENDMDL
MODEL 5
REMARK VINA RESULT:      -6.6      2.027      4.602
REMARK  Name = 5282492
REMARK  7 active torsions:
REMARK  status: ('A' for Active; 'I' for Inactive)
REMARK    1  A    between atoms: C_7  and  C_26
REMARK    2  A    between atoms: C_7  and  O_30
REMARK    3  A    between atoms: C_11  and  O_23
REMARK    4  A    between atoms: C_26  and  C_27
REMARK    5  A    between atoms: C_27  and  O_28
REMARK    6  A    between atoms: O_30  and  C_32
REMARK    7  A    between atoms: C_32  and  C_33
REMARK                            x       y       z     vdW  Elec       q    Type
REMARK                         _______ _______ _______ _____ _____    ______ ____
ROOT
ATOM      1  F   UNL     1     -35.846  21.154  -0.511  0.00  0.00    -0.237 F 
ATOM      2  O   UNL     1     -34.090  17.672  -3.440  0.00  0.00    -0.287 OA
ATOM      3  C   UNL     1     -36.188  23.083   2.404  0.00  0.00    +0.043 C 
ATOM      4  C   UNL     1     -35.175  23.265   1.254  0.00  0.00    +0.007 C 
ATOM      5  C   UNL     1     -34.288  22.032   1.022  0.00  0.00    +0.033 C 
ATOM      6  C   UNL     1     -35.196  20.806   0.663  0.00  0.00    +0.164 C 
ATOM      7  C   UNL     1     -36.847  24.498   2.412  0.00  0.00    +0.189 C 
ATOM      8  C   UNL     1     -34.510  24.597   1.588  0.00  0.00    +0.004 C 
ATOM      9  C   UNL     1     -37.113  21.908   2.022  0.00  0.00    +0.036 C 
ATOM     10  C   UNL     1     -35.693  25.487   2.048  0.00  0.00    +0.044 C 
ATOM     11  C   UNL     1     -36.345  20.606   1.698  0.00  0.00    +0.141 C 
ATOM     12  C   UNL     1     -34.348  19.521   0.312  0.00  0.00    +0.064 C 
ATOM     13  C   UNL     1     -33.264  22.311  -0.095  0.00  0.00    +0.007 C 
ATOM     14  C   UNL     1     -35.514  22.811   3.778  0.00  0.00    +0.004 C 
ATOM     15  C   UNL     1     -32.438  21.078  -0.443  0.00  0.00    +0.023 C 
ATOM     16  C   UNL     1     -33.341  19.917  -0.773  0.00  0.00    -0.035 C 
ATOM     17  C   UNL     1     -35.249  26.454   3.141  0.00  0.00    +0.004 C 
ATOM     18  C   UNL     1     -33.558  18.942   1.508  0.00  0.00    +0.011 C 
ATOM     19  C   UNL     1     -35.263  18.404  -0.170  0.00  0.00    -0.017 C 
ATOM     20  C   UNL     1     -33.264  19.324  -1.974  0.00  0.00    +0.034 C 
ATOM     21  C   UNL     1     -35.194  17.809  -1.364  0.00  0.00    +0.038 C 
ATOM     22  C   UNL     1     -34.175  18.221  -2.347  0.00  0.00    +0.195 C 
ENDROOT
BRANCH  11  23
ATOM     23  O   UNL     1     -35.870  20.017   2.899  0.00  0.00    -0.382 OA
ATOM     24  H   UNL     1     -34.904  19.944   2.863  0.00  0.00    +0.210 HD
ENDBRANCH  11  23
BRANCH   7  26
ATOM     25  O   UNL     1     -37.127  24.839   4.755  0.00  0.00    -0.290 OA
ATOM     26  C   UNL     1     -37.649  24.808   3.641  0.00  0.00    +0.216 C 
BRANCH  26  27
ATOM     27  C   UNL     1     -39.124  25.079   3.430  0.00  0.00    +0.206 C 
BRANCH  27  28
ATOM     28  O   UNL     1     -39.361  26.463   3.283  0.00  0.00    -0.375 OA
ATOM     29  H   UNL     1     -39.756  26.812   4.097  0.00  0.00    +0.211 HD
ENDBRANCH  27  28
ENDBRANCH  26  27
ENDBRANCH   7  26
BRANCH   7  30
ATOM     30  O   UNL     1     -37.842  24.578   1.382  0.00  0.00    -0.445 OA
BRANCH  30  32
ATOM     31  O   UNL     1     -37.798  26.754   0.632  0.00  0.00    -0.245 OA
ATOM     32  C   UNL     1     -37.652  25.554   0.459  0.00  0.00    +0.341 C 
BRANCH  32  33
ATOM     33  C   UNL     1     -37.230  24.963  -0.835  0.00  0.00    +0.076 C 
ATOM     34  C   UNL     1     -36.242  25.591  -1.565  0.00  0.00    +0.006 C 
ATOM     35  C   UNL     1     -37.840  23.803  -1.268  0.00  0.00    +0.006 C 
ATOM     36  C   UNL     1     -35.845  25.035  -2.781  0.00  0.00    +0.000 C 
ATOM     37  C   UNL     1     -37.443  23.247  -2.486  0.00  0.00    +0.000 C 
ATOM     38  C   UNL     1     -36.446  23.863  -3.242  0.00  0.00    +0.000 C 
ENDBRANCH  32  33
ENDBRANCH  30  32
ENDBRANCH   7  30
TORSDOF 7
ENDMDL
MODEL 6
REMARK VINA RESULT:      -6.4      2.688      6.948
REMARK  Name = 5282492
REMARK  7 active torsions:
REMARK  status: ('A' for Active; 'I' for Inactive)
REMARK    1  A    between atoms: C_7  and  C_26
REMARK    2  A    between atoms: C_7  and  O_30
REMARK    3  A    between atoms: C_11  and  O_23
REMARK    4  A    between atoms: C_26  and  C_27
REMARK    5  A    between atoms: C_27  and  O_28
REMARK    6  A    between atoms: O_30  and  C_32
REMARK    7  A    between atoms: C_32  and  C_33
REMARK                            x       y       z     vdW  Elec       q    Type
REMARK                         _______ _______ _______ _____ _____    ______ ____
ROOT
ATOM      1  F   UNL     1     -34.776  21.525   1.967  0.00  0.00    -0.237 F 
ATOM      2  O   UNL     1     -33.295  25.230   4.772  0.00  0.00    -0.287 OA
ATOM      3  C   UNL     1     -36.906  19.694  -0.142  0.00  0.00    +0.043 C 
ATOM      4  C   UNL     1     -35.908  20.806  -0.528  0.00  0.00    +0.007 C 
ATOM      5  C   UNL     1     -36.181  22.143   0.179  0.00  0.00    +0.033 C 
ATOM      6  C   UNL     1     -36.080  21.934   1.729  0.00  0.00    +0.164 C 
ATOM      7  C   UNL     1     -36.400  18.541  -1.064  0.00  0.00    +0.189 C 
ATOM      8  C   UNL     1     -35.919  20.764  -2.053  0.00  0.00    +0.004 C 
ATOM      9  C   UNL     1     -36.766  19.456   1.377  0.00  0.00    +0.036 C 
ATOM     10  C   UNL     1     -35.922  19.248  -2.374  0.00  0.00    +0.044 C 
ATOM     11  C   UNL     1     -36.956  20.740   2.216  0.00  0.00    +0.141 C 
ATOM     12  C   UNL     1     -36.251  23.288   2.523  0.00  0.00    +0.064 C 
ATOM     13  C   UNL     1     -35.186  23.216  -0.303  0.00  0.00    +0.007 C 
ATOM     14  C   UNL     1     -38.379  20.041  -0.497  0.00  0.00    +0.004 C 
ATOM     15  C   UNL     1     -35.341  24.529   0.455  0.00  0.00    +0.023 C 
ATOM     16  C   UNL     1     -35.248  24.292   1.941  0.00  0.00    -0.035 C 
ATOM     17  C   UNL     1     -36.729  18.965  -3.638  0.00  0.00    +0.004 C 
ATOM     18  C   UNL     1     -37.662  23.908   2.416  0.00  0.00    +0.011 C 
ATOM     19  C   UNL     1     -36.000  23.062   4.007  0.00  0.00    -0.017 C 
ATOM     20  C   UNL     1     -34.302  24.909   2.665  0.00  0.00    +0.034 C 
ATOM     21  C   UNL     1     -35.059  23.671   4.735  0.00  0.00    +0.038 C 
ATOM     22  C   UNL     1     -34.151  24.652   4.113  0.00  0.00    +0.195 C 
ENDROOT
BRANCH  11  23
ATOM     23  O   UNL     1     -38.332  21.086   2.262  0.00  0.00    -0.382 OA
ATOM     24  H   UNL     1     -38.790  20.691   1.505  0.00  0.00    +0.210 HD
ENDBRANCH  11  23
BRANCH   7  26
ATOM     25  O   UNL     1     -38.057  17.277  -2.221  0.00  0.00    -0.290 OA
ATOM     26  C   UNL     1     -37.356  17.395  -1.217  0.00  0.00    +0.216 C 
BRANCH  26  27
ATOM     27  C   UNL     1     -37.403  16.405  -0.072  0.00  0.00    +0.206 C 
BRANCH  27  28
ATOM     28  O   UNL     1     -36.569  15.297  -0.337  0.00  0.00    -0.375 OA
ATOM     29  H   UNL     1     -36.845  14.874  -1.164  0.00  0.00    +0.211 HD
ENDBRANCH  27  28
ENDBRANCH  26  27
ENDBRANCH   7  26
BRANCH   7  30
ATOM     30  O   UNL     1     -35.264  17.902  -0.467  0.00  0.00    -0.445 OA
BRANCH  30  32
ATOM     31  O   UNL     1     -34.232  16.726  -2.155  0.00  0.00    -0.245 OA
ATOM     32  C   UNL     1     -34.244  17.610  -1.311  0.00  0.00    +0.341 C 
BRANCH  32  33
ATOM     33  C   UNL     1     -33.101  18.527  -1.076  0.00  0.00    +0.076 C 
ATOM     34  C   UNL     1     -32.900  19.030   0.193  0.00  0.00    +0.006 C 
ATOM     35  C   UNL     1     -32.276  18.848  -2.134  0.00  0.00    +0.006 C 
ATOM     36  C   UNL     1     -31.826  19.891   0.414  0.00  0.00    +0.000 C 
ATOM     37  C   UNL     1     -31.201  19.711  -1.913  0.00  0.00    +0.000 C 
ATOM     38  C   UNL     1     -30.976  20.232  -0.639  0.00  0.00    +0.000 C 
ENDBRANCH  32  33
ENDBRANCH  30  32
ENDBRANCH   7  30
TORSDOF 7
ENDMDL
MODEL 7
REMARK VINA RESULT:      -6.4      3.837      6.755
REMARK  Name = 5282492
REMARK  7 active torsions:
REMARK  status: ('A' for Active; 'I' for Inactive)
REMARK    1  A    between atoms: C_7  and  C_26
REMARK    2  A    between atoms: C_7  and  O_30
REMARK    3  A    between atoms: C_11  and  O_23
REMARK    4  A    between atoms: C_26  and  C_27
REMARK    5  A    between atoms: C_27  and  O_28
REMARK    6  A    between atoms: O_30  and  C_32
REMARK    7  A    between atoms: C_32  and  C_33
REMARK                            x       y       z     vdW  Elec       q    Type
REMARK                         _______ _______ _______ _____ _____    ______ ____
ROOT
ATOM      1  F   UNL     1     -34.158  27.698   3.852  0.00  0.00    -0.237 F 
ATOM      2  O   UNL     1     -30.642  29.879   6.435  0.00  0.00    -0.287 OA
ATOM      3  C   UNL     1     -35.938  26.669   1.004  0.00  0.00    +0.043 C 
ATOM      4  C   UNL     1     -34.715  25.992   1.661  0.00  0.00    +0.007 C 
ATOM      5  C   UNL     1     -33.482  26.905   1.739  0.00  0.00    +0.033 C 
ATOM      6  C   UNL     1     -33.835  28.173   2.590  0.00  0.00    +0.164 C 
ATOM      7  C   UNL     1     -36.948  25.480   1.020  0.00  0.00    +0.189 C 
ATOM      8  C   UNL     1     -34.606  24.671   0.906  0.00  0.00    +0.004 C 
ATOM      9  C   UNL     1     -36.313  27.887   1.875  0.00  0.00    +0.036 C 
ATOM     10  C   UNL     1     -36.079  24.204   0.779  0.00  0.00    +0.044 C 
ATOM     11  C   UNL     1     -35.138  28.868   2.092  0.00  0.00    +0.141 C 
ATOM     12  C   UNL     1     -32.584  29.114   2.800  0.00  0.00    +0.064 C 
ATOM     13  C   UNL     1     -32.289  26.142   2.346  0.00  0.00    +0.007 C 
ATOM     14  C   UNL     1     -35.677  27.117  -0.462  0.00  0.00    +0.004 C 
ATOM     15  C   UNL     1     -31.074  27.039   2.554  0.00  0.00    +0.023 C 
ATOM     16  C   UNL     1     -31.450  28.252   3.367  0.00  0.00    -0.035 C 
ATOM     17  C   UNL     1     -36.299  23.463  -0.536  0.00  0.00    +0.004 C 
ATOM     18  C   UNL     1     -32.073  29.782   1.503  0.00  0.00    +0.011 C 
ATOM     19  C   UNL     1     -32.936  30.251   3.750  0.00  0.00    -0.017 C 
ATOM     20  C   UNL     1     -30.833  28.500   4.533  0.00  0.00    +0.034 C 
ATOM     21  C   UNL     1     -32.327  30.503   4.913  0.00  0.00    +0.038 C 
ATOM     22  C   UNL     1     -31.219  29.649   5.378  0.00  0.00    +0.195 C 
ENDROOT
BRANCH  11  23
ATOM     23  O   UNL     1     -34.911  29.616   0.907  0.00  0.00    -0.382 OA
ATOM     24  H   UNL     1     -33.961  29.637   0.716  0.00  0.00    +0.210 HD
ENDBRANCH  11  23
BRANCH   7  26
ATOM     25  O   UNL     1     -38.190  25.180  -0.993  0.00  0.00    -0.290 OA
ATOM     26  C   UNL     1     -38.147  25.665   0.137  0.00  0.00    +0.216 C 
BRANCH  26  27
ATOM     27  C   UNL     1     -39.287  26.477   0.716  0.00  0.00    +0.206 C 
BRANCH  27  28
ATOM     28  O   UNL     1     -40.302  25.629   1.208  0.00  0.00    -0.375 OA
ATOM     29  H   UNL     1     -40.867  25.339   0.474  0.00  0.00    +0.211 HD
ENDBRANCH  27  28
ENDBRANCH  26  27
ENDBRANCH   7  26
BRANCH   7  30
ATOM     30  O   UNL     1     -37.550  25.368   2.317  0.00  0.00    -0.445 OA
BRANCH  30  32
ATOM     31  O   UNL     1     -38.585  23.315   2.414  0.00  0.00    -0.245 OA
ATOM     32  C   UNL     1     -37.725  24.104   2.774  0.00  0.00    +0.341 C 
BRANCH  32  33
ATOM     33  C   UNL     1     -36.707  23.783   3.806  0.00  0.00    +0.076 C 
ATOM     34  C   UNL     1     -36.217  22.496   3.882  0.00  0.00    +0.006 C 
ATOM     35  C   UNL     1     -36.281  24.784   4.655  0.00  0.00    +0.006 C 
ATOM     36  C   UNL     1     -35.260  22.196   4.851  0.00  0.00    +0.000 C 
ATOM     37  C   UNL     1     -35.323  24.483   5.625  0.00  0.00    +0.000 C 
ATOM     38  C   UNL     1     -34.813  23.189   5.722  0.00  0.00    +0.000 C 
ENDBRANCH  32  33
ENDBRANCH  30  32
ENDBRANCH   7  30
TORSDOF 7
ENDMDL
MODEL 8
REMARK VINA RESULT:      -6.3      2.760      6.195
REMARK  Name = 5282492
REMARK  7 active torsions:
REMARK  status: ('A' for Active; 'I' for Inactive)
REMARK    1  A    between atoms: C_7  and  C_26
REMARK    2  A    between atoms: C_7  and  O_30
REMARK    3  A    between atoms: C_11  and  O_23
REMARK    4  A    between atoms: C_26  and  C_27
REMARK    5  A    between atoms: C_27  and  O_28
REMARK    6  A    between atoms: O_30  and  C_32
REMARK    7  A    between atoms: C_32  and  C_33
REMARK                            x       y       z     vdW  Elec       q    Type
REMARK                         _______ _______ _______ _____ _____    ______ ____
ROOT
ATOM      1  F   UNL     1     -36.261  23.493   2.879  0.00  0.00    -0.237 F 
ATOM      2  O   UNL     1     -33.590  25.785   6.255  0.00  0.00    -0.287 OA
ATOM      3  C   UNL     1     -38.163  23.102  -0.048  0.00  0.00    +0.043 C 
ATOM      4  C   UNL     1     -36.627  23.058   0.105  0.00  0.00    +0.007 C 
ATOM      5  C   UNL     1     -36.035  24.347   0.696  0.00  0.00    +0.033 C 
ATOM      6  C   UNL     1     -36.646  24.587   2.119  0.00  0.00    +0.164 C 
ATOM      7  C   UNL     1     -38.409  21.715  -0.720  0.00  0.00    +0.189 C 
ATOM      8  C   UNL     1     -36.157  22.596  -1.271  0.00  0.00    +0.004 C 
ATOM      9  C   UNL     1     -38.760  23.286   1.362  0.00  0.00    +0.036 C 
ATOM     10  C   UNL     1     -37.172  21.486  -1.647  0.00  0.00    +0.044 C 
ATOM     11  C   UNL     1     -38.204  24.522   2.106  0.00  0.00    +0.141 C 
ATOM     12  C   UNL     1     -36.010  25.843   2.834  0.00  0.00    +0.064 C 
ATOM     13  C   UNL     1     -34.499  24.252   0.758  0.00  0.00    +0.007 C 
ATOM     14  C   UNL     1     -38.652  24.237  -0.992  0.00  0.00    +0.004 C 
ATOM     15  C   UNL     1     -33.872  25.459   1.446  0.00  0.00    +0.023 C 
ATOM     16  C   UNL     1     -34.488  25.666   2.807  0.00  0.00    -0.035 C 
ATOM     17  C   UNL     1     -37.433  21.480  -3.150  0.00  0.00    +0.004 C 
ATOM     18  C   UNL     1     -36.347  27.191   2.156  0.00  0.00    +0.011 C 
ATOM     19  C   UNL     1     -36.524  25.950   4.263  0.00  0.00    -0.017 C 
ATOM     20  C   UNL     1     -33.718  25.646   3.906  0.00  0.00    +0.034 C 
ATOM     21  C   UNL     1     -35.764  25.929   5.362  0.00  0.00    +0.038 C 
ATOM     22  C   UNL     1     -34.300  25.790   5.256  0.00  0.00    +0.195 C 
ENDROOT
BRANCH  11  23
ATOM     23  O   UNL     1     -38.771  25.705   1.566  0.00  0.00    -0.382 OA
ATOM     24  H   UNL     1     -38.107  26.412   1.567  0.00  0.00    +0.210 HD
ENDBRANCH  11  23
BRANCH   7  26
ATOM     25  O   UNL     1     -39.971  21.850  -2.516  0.00  0.00    -0.290 OA
ATOM     26  C   UNL     1     -39.765  21.552  -1.340  0.00  0.00    +0.216 C 
BRANCH  26  27
ATOM     27  C   UNL     1     -40.853  21.004  -0.440  0.00  0.00    +0.206 C 
BRANCH  27  28
ATOM     28  O   UNL     1     -41.158  19.670  -0.782  0.00  0.00    -0.375 OA
ATOM     29  H   UNL     1     -40.501  19.340  -1.416  0.00  0.00    +0.211 HD
ENDBRANCH  27  28
ENDBRANCH  26  27
ENDBRANCH   7  26
BRANCH   7  30
ATOM     30  O   UNL     1     -38.413  20.685   0.276  0.00  0.00    -0.445 OA
BRANCH  30  32
ATOM     31  O   UNL     1     -38.239  18.640  -0.766  0.00  0.00    -0.245 OA
ATOM     32  C   UNL     1     -37.784  19.534  -0.069  0.00  0.00    +0.341 C 
BRANCH  32  33
ATOM     33  C   UNL     1     -36.426  19.490   0.528  0.00  0.00    +0.076 C 
ATOM     34  C   UNL     1     -35.444  18.755  -0.104  0.00  0.00    +0.006 C 
ATOM     35  C   UNL     1     -36.188  20.187   1.695  0.00  0.00    +0.006 C 
ATOM     36  C   UNL     1     -34.167  18.715   0.456  0.00  0.00    +0.000 C 
ATOM     37  C   UNL     1     -34.910  20.146   2.255  0.00  0.00    +0.000 C 
ATOM     38  C   UNL     1     -33.900  19.411   1.636  0.00  0.00    +0.000 C 
ENDBRANCH  32  33
ENDBRANCH  30  32
ENDBRANCH   7  30
TORSDOF 7
ENDMDL
MODEL 9
REMARK VINA RESULT:      -6.3      3.113      7.736
REMARK  Name = 5282492
REMARK  7 active torsions:
REMARK  status: ('A' for Active; 'I' for Inactive)
REMARK    1  A    between atoms: C_7  and  C_26
REMARK    2  A    between atoms: C_7  and  O_30
REMARK    3  A    between atoms: C_11  and  O_23
REMARK    4  A    between atoms: C_26  and  C_27
REMARK    5  A    between atoms: C_27  and  O_28
REMARK    6  A    between atoms: O_30  and  C_32
REMARK    7  A    between atoms: C_32  and  C_33
REMARK                            x       y       z     vdW  Elec       q    Type
REMARK                         _______ _______ _______ _____ _____    ______ ____
ROOT
ATOM      1  F   UNL     1     -40.450  25.000   2.305  0.00  0.00    -0.237 F 
ATOM      2  O   UNL     1     -44.328  27.940   2.617  0.00  0.00    -0.287 OA
ATOM      3  C   UNL     1     -37.925  23.101   0.769  0.00  0.00    +0.043 C 
ATOM      4  C   UNL     1     -37.919  24.610   1.095  0.00  0.00    +0.007 C 
ATOM      5  C   UNL     1     -39.071  25.382   0.433  0.00  0.00    +0.033 C 
ATOM      6  C   UNL     1     -40.436  24.795   0.933  0.00  0.00    +0.164 C 
ATOM      7  C   UNL     1     -36.627  22.657   1.514  0.00  0.00    +0.189 C 
ATOM      8  C   UNL     1     -36.483  25.024   0.786  0.00  0.00    +0.004 C 
ATOM      9  C   UNL     1     -39.248  22.519   1.310  0.00  0.00    +0.036 C 
ATOM     10  C   UNL     1     -35.638  23.858   1.361  0.00  0.00    +0.044 C 
ATOM     11  C   UNL     1     -40.501  23.246   0.771  0.00  0.00    +0.141 C 
ATOM     12  C   UNL     1     -41.671  25.603   0.372  0.00  0.00    +0.064 C 
ATOM     13  C   UNL     1     -38.962  26.885   0.752  0.00  0.00    +0.007 C 
ATOM     14  C   UNL     1     -37.787  22.801  -0.750  0.00  0.00    +0.004 C 
ATOM     15  C   UNL     1     -40.148  27.677   0.215  0.00  0.00    +0.023 C 
ATOM     16  C   UNL     1     -41.443  27.082   0.707  0.00  0.00    -0.035 C 
ATOM     17  C   UNL     1     -34.396  23.619   0.508  0.00  0.00    +0.004 C 
ATOM     18  C   UNL     1     -41.860  25.484  -1.157  0.00  0.00    +0.011 C 
ATOM     19  C   UNL     1     -42.961  25.092   0.998  0.00  0.00    -0.017 C 
ATOM     20  C   UNL     1     -42.296  27.825   1.428  0.00  0.00    +0.034 C 
ATOM     21  C   UNL     1     -43.814  25.825   1.719  0.00  0.00    +0.038 C 
ATOM     22  C   UNL     1     -43.546  27.252   1.971  0.00  0.00    +0.195 C 
ENDROOT
BRANCH  11  23
ATOM     23  O   UNL     1     -40.732  22.871  -0.578  0.00  0.00    -0.382 OA
ATOM     24  H   UNL     1     -41.152  21.997  -0.604  0.00  0.00    +0.210 HD
ENDBRANCH  11  23
BRANCH   7  26
ATOM     25  O   UNL     1     -34.977  21.147   0.688  0.00  0.00    -0.290 OA
ATOM     26  C   UNL     1     -36.116  21.301   1.128  0.00  0.00    +0.216 C 
BRANCH  26  27
ATOM     27  C   UNL     1     -37.078  20.145   1.310  0.00  0.00    +0.206 C 
BRANCH  27  28
ATOM     28  O   UNL     1     -36.860  19.506   2.549  0.00  0.00    -0.375 OA
ATOM     29  H   UNL     1     -37.107  18.570   2.479  0.00  0.00    +0.211 HD
ENDBRANCH  27  28
ENDBRANCH  26  27
ENDBRANCH   7  26
BRANCH   7  30
ATOM     30  O   UNL     1     -36.901  22.484   2.910  0.00  0.00    -0.445 OA
BRANCH  30  32
ATOM     31  O   UNL     1     -35.114  21.447   3.926  0.00  0.00    -0.245 OA
ATOM     32  C   UNL     1     -35.813  22.427   3.718  0.00  0.00    +0.341 C 
BRANCH  32  33
ATOM     33  C   UNL     1     -35.567  23.750   4.344  0.00  0.00    +0.076 C 
ATOM     34  C   UNL     1     -34.269  24.125   4.623  0.00  0.00    +0.006 C 
ATOM     35  C   UNL     1     -36.644  24.565   4.627  0.00  0.00    +0.006 C 
ATOM     36  C   UNL     1     -34.037  25.368   5.210  0.00  0.00    +0.000 C 
ATOM     37  C   UNL     1     -36.413  25.809   5.216  0.00  0.00    +0.000 C 
ATOM     38  C   UNL     1     -35.109  26.211   5.507  0.00  0.00    +0.000 C 
ENDBRANCH  32  33
ENDBRANCH  30  32
ENDBRANCH   7  30
TORSDOF 7
ENDMDL
