MODEL 1
REMARK VINA RESULT:      -5.5      0.000      0.000
REMARK  Name = 5460671
REMARK  10 active torsions:
REMARK  status: ('A' for Active; 'I' for Inactive)
REMARK    1  A    between atoms: C_1  and  C_2
REMARK    2  A    between atoms: C_1  and  C_13
REMARK    3  A    between atoms: C_2  and  C_3
REMARK    4  A    between atoms: C_3  and  C_4
REMARK    5  A    between atoms: C_4  and  N_5
REMARK    6  A    between atoms: C_4  and  C_10
REMARK    7  A    between atoms: C_10  and  O_11
REMARK    8  A    between atoms: C_13  and  N_14
REMARK    9  A    between atoms: N_14  and  C_18
REMARK   10  A    between atoms: C_18  and  C_21
REMARK                            x       y       z     vdW  Elec       q    Type
REMARK                         _______ _______ _______ _____ _____    ______ ____
ROOT
ATOM      1  C   UNK     1     -35.340  25.784   5.031  0.00  0.00    +0.020 C 
ENDROOT
BRANCH   1   2
ATOM      2  C   UNK     1     -34.722  24.517   5.637  0.00  0.00    +0.000 C 
BRANCH   2   3
ATOM      3  C   UNK     1     -35.640  23.290   5.597  0.00  0.00    -0.011 C 
BRANCH   3   4
ATOM      4  C   UNK     1     -35.727  22.661   4.200  0.00  0.00    +0.036 C 
BRANCH   4   5
ATOM      5  N   UNK     1     -37.108  22.748   3.715  0.00  0.00    +0.389 N 
ATOM      6  H   UNK     1     -37.471  21.809   3.553  0.00  0.00    -0.088 HD
ATOM      7  H   UNK     1     -37.129  23.277   2.843  0.00  0.00    -0.088 HD
ATOM      8  H   UNK     1     -37.684  23.219   4.413  0.00  0.00    -0.088 HD
ENDBRANCH   4   5
BRANCH   4  10
ATOM      9  O   UNK     1     -35.229  20.476   3.240  0.00  0.00    -0.253 OA
ATOM     10  C   UNK     1     -35.351  21.190   4.228  0.00  0.00    +0.293 C 
BRANCH  10  11
ATOM     11  O   UNK     1     -35.183  20.725   5.494  0.00  0.00    -0.482 OA
ATOM     12  H   UNK     1     -35.828  20.908   6.149  0.00  0.00    +0.295 HD
ENDBRANCH  10  11
ENDBRANCH   4  10
ENDBRANCH   3   4
ENDBRANCH   2   3
ENDBRANCH   1   2
BRANCH   1  13
ATOM     13  C   UNK     1     -34.377  26.643   4.216  0.00  0.00    +0.072 C 
BRANCH  13  14
ATOM     14  N   UNK     1     -33.045  26.654   4.751  0.00  0.00    -0.368 NA
ATOM     15  H   UNK     1     -32.408  25.976   4.428  0.00  0.00    +0.127 HD
ATOM     16  H   UNK     1     -32.419  26.190   5.352  0.00  0.00    +0.127 HD
BRANCH  14  18
ATOM     17  O   UNK     1     -32.836  27.516   6.905  0.00  0.00    -0.275 OA
ATOM     18  C   UNK     1     -32.605  27.570   5.700  0.00  0.00    +0.222 C 
BRANCH  18  21
ATOM     19  N   UNK     1     -30.468  28.057   4.766  0.00  0.00    -0.210 NA
ATOM     20  C   UNK     1     -31.495  29.792   6.093  0.00  0.00    +0.026 C 
ATOM     21  C   UNK     1     -31.772  28.660   5.103  0.00  0.00    +0.147 C 
ATOM     22  C   UNK     1     -30.173  29.385   6.723  0.00  0.00    +0.021 C 
ATOM     23  C   UNK     1     -31.381  31.139   5.379  0.00  0.00    +0.002 C 
ATOM     24  C   UNK     1     -29.639  28.483   5.663  0.00  0.00    +0.089 C 
ENDBRANCH  18  21
ENDBRANCH  14  18
ENDBRANCH  13  14
ENDBRANCH   1  13
TORSDOF 10
ENDMDL
MODEL 2
REMARK VINA RESULT:      -5.4      3.896      6.936
REMARK  Name = 5460671
REMARK  10 active torsions:
REMARK  status: ('A' for Active; 'I' for Inactive)
REMARK    1  A    between atoms: C_1  and  C_2
REMARK    2  A    between atoms: C_1  and  C_13
REMARK    3  A    between atoms: C_2  and  C_3
REMARK    4  A    between atoms: C_3  and  C_4
REMARK    5  A    between atoms: C_4  and  N_5
REMARK    6  A    between atoms: C_4  and  C_10
REMARK    7  A    between atoms: C_10  and  O_11
REMARK    8  A    between atoms: C_13  and  N_14
REMARK    9  A    between atoms: N_14  and  C_18
REMARK   10  A    between atoms: C_18  and  C_21
REMARK                            x       y       z     vdW  Elec       q    Type
REMARK                         _______ _______ _______ _____ _____    ______ ____
ROOT
ATOM      1  C   UNK     1     -34.433  24.027   5.122  0.00  0.00    +0.020 C 
ENDROOT
BRANCH   1   2
ATOM      2  C   UNK     1     -34.612  25.465   5.626  0.00  0.00    +0.000 C 
BRANCH   2   3
ATOM      3  C   UNK     1     -35.955  26.100   5.250  0.00  0.00    -0.011 C 
BRANCH   3   4
ATOM      4  C   UNK     1     -36.261  25.995   3.751  0.00  0.00    +0.036 C 
BRANCH   4   5
ATOM      5  N   UNK     1     -36.038  27.298   3.118  0.00  0.00    +0.389 N 
ATOM      6  H   UNK     1     -35.606  27.162   2.204  0.00  0.00    -0.088 HD
ATOM      7  H   UNK     1     -35.422  27.860   3.706  0.00  0.00    -0.088 HD
ATOM      8  H   UNK     1     -36.931  27.777   3.004  0.00  0.00    -0.088 HD
ENDBRANCH   4   5
BRANCH   4  10
ATOM      9  O   UNK     1     -38.230  24.560   3.845  0.00  0.00    -0.253 OA
ATOM     10  C   UNK     1     -37.711  25.616   3.504  0.00  0.00    +0.293 C 
BRANCH  10  11
ATOM     11  O   UNK     1     -38.388  26.580   2.827  0.00  0.00    -0.482 OA
ATOM     12  H   UNK     1     -39.108  27.020   3.234  0.00  0.00    +0.295 HD
ENDBRANCH  10  11
ENDBRANCH   4  10
ENDBRANCH   3   4
ENDBRANCH   2   3
ENDBRANCH   1   2
BRANCH   1  13
ATOM     13  C   UNK     1     -35.484  23.037   5.614  0.00  0.00    +0.072 C 
BRANCH  13  14
ATOM     14  N   UNK     1     -36.233  22.436   4.548  0.00  0.00    -0.368 NA
ATOM     15  H   UNK     1     -37.153  22.749   4.391  0.00  0.00    +0.127 HD
ATOM     16  H   UNK     1     -36.970  21.820   4.334  0.00  0.00    +0.127 HD
BRANCH  14  18
ATOM     17  O   UNK     1     -35.012  20.506   4.086  0.00  0.00    -0.275 OA
ATOM     18  C   UNK     1     -35.728  21.436   3.724  0.00  0.00    +0.222 C 
BRANCH  18  21
ATOM     19  N   UNK     1     -35.422  20.582   1.521  0.00  0.00    -0.210 NA
ATOM     20  C   UNK     1     -35.818  22.955   1.720  0.00  0.00    +0.026 C 
ATOM     21  C   UNK     1     -36.171  21.585   2.303  0.00  0.00    +0.147 C 
ATOM     22  C   UNK     1     -34.463  22.717   1.075  0.00  0.00    +0.021 C 
ATOM     23  C   UNK     1     -36.856  23.405   0.691  0.00  0.00    +0.002 C 
ATOM     24  C   UNK     1     -34.518  21.241   0.872  0.00  0.00    +0.089 C 
ENDBRANCH  18  21
ENDBRANCH  14  18
ENDBRANCH  13  14
ENDBRANCH   1  13
TORSDOF 10
ENDMDL
MODEL 3
REMARK VINA RESULT:      -5.4      1.764      2.396
REMARK  Name = 5460671
REMARK  10 active torsions:
REMARK  status: ('A' for Active; 'I' for Inactive)
REMARK    1  A    between atoms: C_1  and  C_2
REMARK    2  A    between atoms: C_1  and  C_13
REMARK    3  A    between atoms: C_2  and  C_3
REMARK    4  A    between atoms: C_3  and  C_4
REMARK    5  A    between atoms: C_4  and  N_5
REMARK    6  A    between atoms: C_4  and  C_10
REMARK    7  A    between atoms: C_10  and  O_11
REMARK    8  A    between atoms: C_13  and  N_14
REMARK    9  A    between atoms: N_14  and  C_18
REMARK   10  A    between atoms: C_18  and  C_21
REMARK                            x       y       z     vdW  Elec       q    Type
REMARK                         _______ _______ _______ _____ _____    ______ ____
ROOT
ATOM      1  C   UNK     1     -33.602  26.652   5.526  0.00  0.00    +0.020 C 
ENDROOT
BRANCH   1   2
ATOM      2  C   UNK     1     -34.711  25.591   5.523  0.00  0.00    +0.000 C 
BRANCH   2   3
ATOM      3  C   UNK     1     -34.268  24.221   5.000  0.00  0.00    -0.011 C 
BRANCH   3   4
ATOM      4  C   UNK     1     -35.447  23.351   4.545  0.00  0.00    +0.036 C 
BRANCH   4   5
ATOM      5  N   UNK     1     -36.689  24.121   4.659  0.00  0.00    +0.389 N 
ATOM      6  H   UNK     1     -37.407  23.544   5.097  0.00  0.00    -0.088 HD
ATOM      7  H   UNK     1     -37.000  24.405   3.729  0.00  0.00    -0.088 HD
ATOM      8  H   UNK     1     -36.524  24.950   5.230  0.00  0.00    -0.088 HD
ENDBRANCH   4   5
BRANCH   4  10
ATOM      9  O   UNK     1     -35.933  22.129   6.598  0.00  0.00    -0.253 OA
ATOM     10  C   UNK     1     -35.599  22.119   5.420  0.00  0.00    +0.293 C 
BRANCH  10  11
ATOM     11  O   UNK     1     -35.294  20.974   4.754  0.00  0.00    -0.482 OA
ATOM     12  H   UNK     1     -34.718  20.346   5.143  0.00  0.00    +0.295 HD
ENDBRANCH  10  11
ENDBRANCH   4  10
ENDBRANCH   3   4
ENDBRANCH   2   3
ENDBRANCH   1   2
BRANCH   1  13
ATOM     13  C   UNK     1     -32.923  26.869   6.875  0.00  0.00    +0.072 C 
BRANCH  13  14
ATOM     14  N   UNK     1     -32.305  28.159   6.992  0.00  0.00    -0.368 NA
ATOM     15  H   UNK     1     -32.710  28.814   7.606  0.00  0.00    +0.127 HD
ATOM     16  H   UNK     1     -32.391  29.112   6.763  0.00  0.00    +0.127 HD
BRANCH  14  18
ATOM     17  O   UNK     1     -30.232  27.790   5.996  0.00  0.00    -0.275 OA
ATOM     18  C   UNK     1     -31.167  28.532   6.287  0.00  0.00    +0.222 C 
BRANCH  18  21
ATOM     19  N   UNK     1     -32.577  30.265   5.457  0.00  0.00    -0.210 NA
ATOM     20  C   UNK     1     -30.297  30.248   4.667  0.00  0.00    +0.026 C 
ATOM     21  C   UNK     1     -31.192  29.970   5.875  0.00  0.00    +0.147 C 
ATOM     22  C   UNK     1     -31.244  30.090   3.490  0.00  0.00    +0.021 C 
ATOM     23  C   UNK     1     -29.708  31.659   4.725  0.00  0.00    +0.002 C 
ATOM     24  C   UNK     1     -32.552  30.326   4.166  0.00  0.00    +0.089 C 
ENDBRANCH  18  21
ENDBRANCH  14  18
ENDBRANCH  13  14
ENDBRANCH   1  13
TORSDOF 10
ENDMDL
MODEL 4
REMARK VINA RESULT:      -5.4      3.537      8.448
REMARK  Name = 5460671
REMARK  10 active torsions:
REMARK  status: ('A' for Active; 'I' for Inactive)
REMARK    1  A    between atoms: C_1  and  C_2
REMARK    2  A    between atoms: C_1  and  C_13
REMARK    3  A    between atoms: C_2  and  C_3
REMARK    4  A    between atoms: C_3  and  C_4
REMARK    5  A    between atoms: C_4  and  N_5
REMARK    6  A    between atoms: C_4  and  C_10
REMARK    7  A    between atoms: C_10  and  O_11
REMARK    8  A    between atoms: C_13  and  N_14
REMARK    9  A    between atoms: N_14  and  C_18
REMARK   10  A    between atoms: C_18  and  C_21
REMARK                            x       y       z     vdW  Elec       q    Type
REMARK                         _______ _______ _______ _____ _____    ______ ____
ROOT
ATOM      1  C   UNK     1     -35.081  21.692   4.810  0.00  0.00    +0.020 C 
ENDROOT
BRANCH   1   2
ATOM      2  C   UNK     1     -35.668  22.872   5.595  0.00  0.00    +0.000 C 
BRANCH   2   3
ATOM      3  C   UNK     1     -35.743  24.181   4.800  0.00  0.00    -0.011 C 
BRANCH   3   4
ATOM      4  C   UNK     1     -35.478  25.417   5.668  0.00  0.00    +0.036 C 
BRANCH   4   5
ATOM      5  N   UNK     1     -36.401  26.488   5.280  0.00  0.00    +0.389 N 
ATOM      6  H   UNK     1     -36.034  26.972   4.461  0.00  0.00    -0.088 HD
ATOM      7  H   UNK     1     -36.498  27.149   6.051  0.00  0.00    -0.088 HD
ATOM      8  H   UNK     1     -37.313  26.087   5.059  0.00  0.00    -0.088 HD
ENDBRANCH   4   5
BRANCH   4  10
ATOM      9  O   UNK     1     -33.587  26.907   6.056  0.00  0.00    -0.253 OA
ATOM     10  C   UNK     1     -34.068  25.944   5.471  0.00  0.00    +0.293 C 
BRANCH  10  11
ATOM     11  O   UNK     1     -33.380  25.236   4.536  0.00  0.00    -0.482 OA
ATOM     12  H   UNK     1     -32.587  25.583   4.177  0.00  0.00    +0.295 HD
ENDBRANCH  10  11
ENDBRANCH   4  10
ENDBRANCH   3   4
ENDBRANCH   2   3
ENDBRANCH   1   2
BRANCH   1  13
ATOM     13  C   UNK     1     -35.614  21.535   3.389  0.00  0.00    +0.072 C 
BRANCH  13  14
ATOM     14  N   UNK     1     -35.088  20.382   2.716  0.00  0.00    -0.368 NA
ATOM     15  H   UNK     1     -34.336  19.903   3.132  0.00  0.00    +0.127 HD
ATOM     16  H   UNK     1     -34.330  20.036   2.193  0.00  0.00    +0.127 HD
BRANCH  14  18
ATOM     17  O   UNK     1     -36.762  19.643   1.273  0.00  0.00    -0.275 OA
ATOM     18  C   UNK     1     -35.585  19.905   1.508  0.00  0.00    +0.222 C 
BRANCH  18  21
ATOM     19  N   UNK     1     -34.858  18.548  -0.311  0.00  0.00    -0.210 NA
ATOM     20  C   UNK     1     -33.137  19.515   1.078  0.00  0.00    +0.026 C 
ATOM     21  C   UNK     1     -34.519  19.755   0.468  0.00  0.00    +0.147 C 
ATOM     22  C   UNK     1     -33.039  17.999   1.127  0.00  0.00    +0.021 C 
ATOM     23  C   UNK     1     -32.034  20.118   0.208  0.00  0.00    +0.002 C 
ATOM     24  C   UNK     1     -34.030  17.633   0.074  0.00  0.00    +0.089 C 
ENDBRANCH  18  21
ENDBRANCH  14  18
ENDBRANCH  13  14
ENDBRANCH   1  13
TORSDOF 10
ENDMDL
MODEL 5
REMARK VINA RESULT:      -5.4      3.291      7.221
REMARK  Name = 5460671
REMARK  10 active torsions:
REMARK  status: ('A' for Active; 'I' for Inactive)
REMARK    1  A    between atoms: C_1  and  C_2
REMARK    2  A    between atoms: C_1  and  C_13
REMARK    3  A    between atoms: C_2  and  C_3
REMARK    4  A    between atoms: C_3  and  C_4
REMARK    5  A    between atoms: C_4  and  N_5
REMARK    6  A    between atoms: C_4  and  C_10
REMARK    7  A    between atoms: C_10  and  O_11
REMARK    8  A    between atoms: C_13  and  N_14
REMARK    9  A    between atoms: N_14  and  C_18
REMARK   10  A    between atoms: C_18  and  C_21
REMARK                            x       y       z     vdW  Elec       q    Type
REMARK                         _______ _______ _______ _____ _____    ______ ____
ROOT
ATOM      1  C   UNK     1     -35.409  21.866   5.171  0.00  0.00    +0.020 C 
ENDROOT
BRANCH   1   2
ATOM      2  C   UNK     1     -35.227  23.192   5.923  0.00  0.00    +0.000 C 
BRANCH   2   3
ATOM      3  C   UNK     1     -34.896  24.385   5.021  0.00  0.00    -0.011 C 
BRANCH   3   4
ATOM      4  C   UNK     1     -35.047  25.732   5.741  0.00  0.00    +0.036 C 
BRANCH   4   5
ATOM      5  N   UNK     1     -36.262  26.401   5.267  0.00  0.00    +0.389 N 
ATOM      6  H   UNK     1     -37.016  25.718   5.186  0.00  0.00    -0.088 HD
ATOM      7  H   UNK     1     -36.085  26.822   4.355  0.00  0.00    -0.088 HD
ATOM      8  H   UNK     1     -36.531  27.127   5.931  0.00  0.00    -0.088 HD
ENDBRANCH   4   5
BRANCH   4  10
ATOM      9  O   UNK     1     -32.853  26.728   6.109  0.00  0.00    -0.253 OA
ATOM     10  C   UNK     1     -33.879  26.655   5.444  0.00  0.00    +0.293 C 
BRANCH  10  11
ATOM     11  O   UNK     1     -34.101  27.433   4.352  0.00  0.00    -0.482 OA
ATOM     12  H   UNK     1     -33.398  27.926   3.978  0.00  0.00    +0.295 HD
ENDBRANCH  10  11
ENDBRANCH   4  10
ENDBRANCH   3   4
ENDBRANCH   2   3
ENDBRANCH   1   2
BRANCH   1  13
ATOM     13  C   UNK     1     -35.666  22.007   3.674  0.00  0.00    +0.072 C 
BRANCH  13  14
ATOM     14  N   UNK     1     -37.056  22.162   3.354  0.00  0.00    -0.368 NA
ATOM     15  H   UNK     1     -37.719  21.726   3.938  0.00  0.00    +0.127 HD
ATOM     16  H   UNK     1     -37.853  21.706   2.999  0.00  0.00    +0.127 HD
BRANCH  14  18
ATOM     17  O   UNK     1     -37.850  22.426   1.180  0.00  0.00    -0.275 OA
ATOM     18  C   UNK     1     -37.518  22.894   2.266  0.00  0.00    +0.222 C 
BRANCH  18  21
ATOM     19  N   UNK     1     -38.404  24.504   3.783  0.00  0.00    -0.210 NA
ATOM     20  C   UNK     1     -38.331  25.131   1.454  0.00  0.00    +0.026 C 
ATOM     21  C   UNK     1     -37.600  24.360   2.554  0.00  0.00    +0.147 C 
ATOM     22  C   UNK     1     -39.770  25.147   1.940  0.00  0.00    +0.021 C 
ATOM     23  C   UNK     1     -37.775  26.548   1.306  0.00  0.00    +0.002 C 
ATOM     24  C   UNK     1     -39.561  24.936   3.401  0.00  0.00    +0.089 C 
ENDBRANCH  18  21
ENDBRANCH  14  18
ENDBRANCH  13  14
ENDBRANCH   1  13
TORSDOF 10
ENDMDL
MODEL 6
REMARK VINA RESULT:      -5.3      2.132      2.896
REMARK  Name = 5460671
REMARK  10 active torsions:
REMARK  status: ('A' for Active; 'I' for Inactive)
REMARK    1  A    between atoms: C_1  and  C_2
REMARK    2  A    between atoms: C_1  and  C_13
REMARK    3  A    between atoms: C_2  and  C_3
REMARK    4  A    between atoms: C_3  and  C_4
REMARK    5  A    between atoms: C_4  and  N_5
REMARK    6  A    between atoms: C_4  and  C_10
REMARK    7  A    between atoms: C_10  and  O_11
REMARK    8  A    between atoms: C_13  and  N_14
REMARK    9  A    between atoms: N_14  and  C_18
REMARK   10  A    between atoms: C_18  and  C_21
REMARK                            x       y       z     vdW  Elec       q    Type
REMARK                         _______ _______ _______ _____ _____    ______ ____
ROOT
ATOM      1  C   UNK     1     -34.809  23.894   5.686  0.00  0.00    +0.020 C 
ENDROOT
BRANCH   1   2
ATOM      2  C   UNK     1     -35.570  22.587   5.948  0.00  0.00    +0.000 C 
BRANCH   2   3
ATOM      3  C   UNK     1     -35.233  21.457   4.968  0.00  0.00    -0.011 C 
BRANCH   3   4
ATOM      4  C   UNK     1     -35.642  21.782   3.526  0.00  0.00    +0.036 C 
BRANCH   4   5
ATOM      5  N   UNK     1     -37.026  22.262   3.512  0.00  0.00    +0.389 N 
ATOM      6  H   UNK     1     -37.355  22.325   2.548  0.00  0.00    -0.088 HD
ATOM      7  H   UNK     1     -37.071  23.184   3.947  0.00  0.00    -0.088 HD
ATOM      8  H   UNK     1     -37.617  21.612   4.030  0.00  0.00    -0.088 HD
ENDBRANCH   4   5
BRANCH   4  10
ATOM      9  O   UNK     1     -34.628  20.228   1.945  0.00  0.00    -0.253 OA
ATOM     10  C   UNK     1     -35.583  20.550   2.640  0.00  0.00    +0.293 C 
BRANCH  10  11
ATOM     11  O   UNK     1     -36.737  19.833   2.678  0.00  0.00    -0.482 OA
ATOM     12  H   UNK     1     -37.445  20.056   2.106  0.00  0.00    +0.295 HD
ENDBRANCH  10  11
ENDBRANCH   4  10
ENDBRANCH   3   4
ENDBRANCH   2   3
ENDBRANCH   1   2
BRANCH   1  13
ATOM     13  C   UNK     1     -35.689  25.092   5.343  0.00  0.00    +0.072 C 
BRANCH  13  14
ATOM     14  N   UNK     1     -35.050  26.351   5.605  0.00  0.00    -0.368 NA
ATOM     15  H   UNK     1     -35.586  27.069   6.012  0.00  0.00    +0.127 HD
ATOM     16  H   UNK     1     -34.980  27.289   5.316  0.00  0.00    +0.127 HD
BRANCH  14  18
ATOM     17  O   UNK     1     -32.816  26.737   6.141  0.00  0.00    -0.275 OA
ATOM     18  C   UNK     1     -33.715  26.610   5.314  0.00  0.00    +0.222 C 
BRANCH  18  21
ATOM     19  N   UNK     1     -32.053  27.134   3.690  0.00  0.00    -0.210 NA
ATOM     20  C   UNK     1     -34.323  27.757   3.160  0.00  0.00    +0.026 C 
ATOM     21  C   UNK     1     -33.455  26.700   3.843  0.00  0.00    +0.147 C 
ATOM     22  C   UNK     1     -33.451  29.000   3.199  0.00  0.00    +0.021 C 
ATOM     23  C   UNK     1     -34.659  27.356   1.723  0.00  0.00    +0.002 C 
ATOM     24  C   UNK     1     -32.103  28.377   3.336  0.00  0.00    +0.089 C 
ENDBRANCH  18  21
ENDBRANCH  14  18
ENDBRANCH  13  14
ENDBRANCH   1  13
TORSDOF 10
ENDMDL
MODEL 7
REMARK VINA RESULT:      -5.3      3.726      5.339
REMARK  Name = 5460671
REMARK  10 active torsions:
REMARK  status: ('A' for Active; 'I' for Inactive)
REMARK    1  A    between atoms: C_1  and  C_2
REMARK    2  A    between atoms: C_1  and  C_13
REMARK    3  A    between atoms: C_2  and  C_3
REMARK    4  A    between atoms: C_3  and  C_4
REMARK    5  A    between atoms: C_4  and  N_5
REMARK    6  A    between atoms: C_4  and  C_10
REMARK    7  A    between atoms: C_10  and  O_11
REMARK    8  A    between atoms: C_13  and  N_14
REMARK    9  A    between atoms: N_14  and  C_18
REMARK   10  A    between atoms: C_18  and  C_21
REMARK                            x       y       z     vdW  Elec       q    Type
REMARK                         _______ _______ _______ _____ _____    ______ ____
ROOT
ATOM      1  C   UNK     1     -39.593  24.280   2.976  0.00  0.00    +0.020 C 
ENDROOT
BRANCH   1   2
ATOM      2  C   UNK     1     -39.367  23.356   1.772  0.00  0.00    +0.000 C 
BRANCH   2   3
ATOM      3  C   UNK     1     -38.724  22.011   2.125  0.00  0.00    -0.011 C 
BRANCH   3   4
ATOM      4  C   UNK     1     -37.199  22.102   2.267  0.00  0.00    +0.036 C 
BRANCH   4   5
ATOM      5  N   UNK     1     -36.645  22.798   1.103  0.00  0.00    +0.389 N 
ATOM      6  H   UNK     1     -36.134  22.134   0.521  0.00  0.00    -0.088 HD
ATOM      7  H   UNK     1     -36.010  23.534   1.417  0.00  0.00    -0.088 HD
ATOM      8  H   UNK     1     -37.404  23.212   0.561  0.00  0.00    -0.088 HD
ENDBRANCH   4   5
BRANCH   4  10
ATOM      9  O   UNK     1     -35.591  20.421   2.998  0.00  0.00    -0.253 OA
ATOM     10  C   UNK     1     -36.562  20.725   2.315  0.00  0.00    +0.293 C 
BRANCH  10  11
ATOM     11  O   UNK     1     -37.176  19.843   1.482  0.00  0.00    -0.482 OA
ATOM     12  H   UNK     1     -36.946  18.936   1.510  0.00  0.00    +0.295 HD
ENDBRANCH  10  11
ENDBRANCH   4  10
ENDBRANCH   3   4
ENDBRANCH   2   3
ENDBRANCH   1   2
BRANCH   1  13
ATOM     13  C   UNK     1     -39.201  25.737   2.752  0.00  0.00    +0.072 C 
BRANCH  13  14
ATOM     14  N   UNK     1     -38.092  26.152   3.564  0.00  0.00    -0.368 NA
ATOM     15  H   UNK     1     -38.225  26.907   4.181  0.00  0.00    +0.127 HD
ATOM     16  H   UNK     1     -37.412  26.851   3.695  0.00  0.00    +0.127 HD
BRANCH  14  18
ATOM     17  O   UNK     1     -36.119  25.461   2.536  0.00  0.00    -0.275 OA
ATOM     18  C   UNK     1     -36.842  25.544   3.526  0.00  0.00    +0.222 C 
BRANCH  18  21
ATOM     19  N   UNK     1     -35.894  26.136   5.630  0.00  0.00    -0.210 NA
ATOM     20  C   UNK     1     -35.299  23.972   4.740  0.00  0.00    +0.026 C 
ATOM     21  C   UNK     1     -36.428  24.998   4.856  0.00  0.00    +0.147 C 
ATOM     22  C   UNK     1     -34.047  24.815   4.908  0.00  0.00    +0.021 C 
ATOM     23  C   UNK     1     -35.405  22.906   5.831  0.00  0.00    +0.002 C 
ATOM     24  C   UNK     1     -34.609  25.989   5.635  0.00  0.00    +0.089 C 
ENDBRANCH  18  21
ENDBRANCH  14  18
ENDBRANCH  13  14
ENDBRANCH   1  13
TORSDOF 10
ENDMDL
MODEL 8
REMARK VINA RESULT:      -5.2      4.841      6.550
REMARK  Name = 5460671
REMARK  10 active torsions:
REMARK  status: ('A' for Active; 'I' for Inactive)
REMARK    1  A    between atoms: C_1  and  C_2
REMARK    2  A    between atoms: C_1  and  C_13
REMARK    3  A    between atoms: C_2  and  C_3
REMARK    4  A    between atoms: C_3  and  C_4
REMARK    5  A    between atoms: C_4  and  N_5
REMARK    6  A    between atoms: C_4  and  C_10
REMARK    7  A    between atoms: C_10  and  O_11
REMARK    8  A    between atoms: C_13  and  N_14
REMARK    9  A    between atoms: N_14  and  C_18
REMARK   10  A    between atoms: C_18  and  C_21
REMARK                            x       y       z     vdW  Elec       q    Type
REMARK                         _______ _______ _______ _____ _____    ______ ____
ROOT
ATOM      1  C   UNK     1     -33.834  21.411   0.393  0.00  0.00    +0.020 C 
ENDROOT
BRANCH   1   2
ATOM      2  C   UNK     1     -34.067  20.151   1.238  0.00  0.00    +0.000 C 
BRANCH   2   3
ATOM      3  C   UNK     1     -35.061  19.158   0.625  0.00  0.00    -0.011 C 
BRANCH   3   4
ATOM      4  C   UNK     1     -36.514  19.642   0.716  0.00  0.00    +0.036 C 
BRANCH   4   5
ATOM      5  N   UNK     1     -36.896  19.764   2.126  0.00  0.00    +0.389 N 
ATOM      6  H   UNK     1     -36.640  18.911   2.623  0.00  0.00    -0.088 HD
ATOM      7  H   UNK     1     -37.904  19.909   2.193  0.00  0.00    -0.088 HD
ATOM      8  H   UNK     1     -36.410  20.559   2.542  0.00  0.00    -0.088 HD
ENDBRANCH   4   5
BRANCH   4  10
ATOM      9  O   UNK     1     -38.357  18.945  -0.719  0.00  0.00    -0.253 OA
ATOM     10  C   UNK     1     -37.470  18.653   0.074  0.00  0.00    +0.293 C 
BRANCH  10  11
ATOM     11  O   UNK     1     -37.255  17.379   0.496  0.00  0.00    -0.482 OA
ATOM     12  H   UNK     1     -37.910  16.724   0.357  0.00  0.00    +0.295 HD
ENDBRANCH  10  11
ENDBRANCH   4  10
ENDBRANCH   3   4
ENDBRANCH   2   3
ENDBRANCH   1   2
BRANCH   1  13
ATOM     13  C   UNK     1     -34.352  22.705   1.012  0.00  0.00    +0.072 C 
BRANCH  13  14
ATOM     14  N   UNK     1     -35.059  22.496   2.244  0.00  0.00    -0.368 NA
ATOM     15  H   UNK     1     -34.764  21.761   2.830  0.00  0.00    +0.127 HD
ATOM     16  H   UNK     1     -35.694  21.908   2.713  0.00  0.00    +0.127 HD
BRANCH  14  18
ATOM     17  O   UNK     1     -36.818  23.989   1.923  0.00  0.00    -0.275 OA
ATOM     18  C   UNK     1     -36.136  23.273   2.653  0.00  0.00    +0.222 C 
BRANCH  18  21
ATOM     19  N   UNK     1     -37.021  24.415   4.547  0.00  0.00    -0.210 NA
ATOM     20  C   UNK     1     -35.146  22.947   4.942  0.00  0.00    +0.026 C 
ATOM     21  C   UNK     1     -36.419  23.139   4.115  0.00  0.00    +0.147 C 
ATOM     22  C   UNK     1     -34.774  24.366   5.337  0.00  0.00    +0.021 C 
ATOM     23  C   UNK     1     -35.408  22.076   6.171  0.00  0.00    +0.002 C 
ATOM     24  C   UNK     1     -36.098  25.037   5.206  0.00  0.00    +0.089 C 
ENDBRANCH  18  21
ENDBRANCH  14  18
ENDBRANCH  13  14
ENDBRANCH   1  13
TORSDOF 10
ENDMDL
MODEL 9
REMARK VINA RESULT:      -5.2      2.114      2.520
REMARK  Name = 5460671
REMARK  10 active torsions:
REMARK  status: ('A' for Active; 'I' for Inactive)
REMARK    1  A    between atoms: C_1  and  C_2
REMARK    2  A    between atoms: C_1  and  C_13
REMARK    3  A    between atoms: C_2  and  C_3
REMARK    4  A    between atoms: C_3  and  C_4
REMARK    5  A    between atoms: C_4  and  N_5
REMARK    6  A    between atoms: C_4  and  C_10
REMARK    7  A    between atoms: C_10  and  O_11
REMARK    8  A    between atoms: C_13  and  N_14
REMARK    9  A    between atoms: N_14  and  C_18
REMARK   10  A    between atoms: C_18  and  C_21
REMARK                            x       y       z     vdW  Elec       q    Type
REMARK                         _______ _______ _______ _____ _____    ______ ____
ROOT
ATOM      1  C   UNK     1     -33.390  25.687   2.932  0.00  0.00    +0.020 C 
ENDROOT
BRANCH   1   2
ATOM      2  C   UNK     1     -34.382  24.567   3.273  0.00  0.00    +0.000 C 
BRANCH   2   3
ATOM      3  C   UNK     1     -34.364  24.138   4.744  0.00  0.00    -0.011 C 
BRANCH   3   4
ATOM      4  C   UNK     1     -35.771  23.929   5.318  0.00  0.00    +0.036 C 
BRANCH   4   5
ATOM      5  N   UNK     1     -36.296  22.641   4.857  0.00  0.00    +0.389 N 
ATOM      6  H   UNK     1     -36.931  22.793   4.073  0.00  0.00    -0.088 HD
ATOM      7  H   UNK     1     -36.800  22.187   5.620  0.00  0.00    -0.088 HD
ATOM      8  H   UNK     1     -35.523  22.046   4.558  0.00  0.00    -0.088 HD
ENDBRANCH   4   5
BRANCH   4  10
ATOM      9  O   UNK     1     -37.656  24.825   4.056  0.00  0.00    -0.253 OA
ATOM     10  C   UNK     1     -36.731  25.004   4.840  0.00  0.00    +0.293 C 
BRANCH  10  11
ATOM     11  O   UNK     1     -36.439  26.225   5.361  0.00  0.00    -0.482 OA
ATOM     12  H   UNK     1     -36.110  26.294   6.235  0.00  0.00    +0.295 HD
ENDBRANCH  10  11
ENDBRANCH   4  10
ENDBRANCH   3   4
ENDBRANCH   2   3
ENDBRANCH   1   2
BRANCH   1  13
ATOM     13  C   UNK     1     -33.967  27.098   2.995  0.00  0.00    +0.072 C 
BRANCH  13  14
ATOM     14  N   UNK     1     -33.963  27.648   4.320  0.00  0.00    -0.368 NA
ATOM     15  H   UNK     1     -34.759  28.144   4.620  0.00  0.00    +0.127 HD
ATOM     16  H   UNK     1     -33.900  28.480   4.842  0.00  0.00    +0.127 HD
BRANCH  14  18
ATOM     17  O   UNK     1     -32.860  26.763   6.171  0.00  0.00    -0.275 OA
ATOM     18  C   UNK     1     -32.897  27.518   5.203  0.00  0.00    +0.222 C 
BRANCH  18  21
ATOM     19  N   UNK     1     -30.734  28.226   5.907  0.00  0.00    -0.210 NA
ATOM     20  C   UNK     1     -32.118  29.879   4.821  0.00  0.00    +0.026 C 
ATOM     21  C   UNK     1     -31.742  28.396   4.841  0.00  0.00    +0.147 C 
ATOM     22  C   UNK     1     -31.785  30.340   6.229  0.00  0.00    +0.021 C 
ATOM     23  C   UNK     1     -31.306  30.644   3.776  0.00  0.00    +0.002 C 
ATOM     24  C   UNK     1     -30.791  29.301   6.623  0.00  0.00    +0.089 C 
ENDBRANCH  18  21
ENDBRANCH  14  18
ENDBRANCH  13  14
ENDBRANCH   1  13
TORSDOF 10
ENDMDL
