MODEL 1
REMARK VINA RESULT:      -5.9      0.000      0.000
REMARK  Name = 21597399
REMARK  14 active torsions:
REMARK  status: ('A' for Active; 'I' for Inactive)
REMARK    1  A    between atoms: C_1  and  N_3
REMARK    2  A    between atoms: C_1  and  C_15
REMARK    3  A    between atoms: C_1  and  C_26
REMARK    4  A    between atoms: C_4  and  C_7
REMARK    5  A    between atoms: C_8  and  C_10
REMARK    6  A    between atoms: C_10  and  O_11
REMARK    7  A    between atoms: N_14  and  C_17
REMARK    8  A    between atoms: C_17  and  C_18
REMARK    9  A    between atoms: C_18  and  C_19
REMARK   10  A    between atoms: C_19  and  C_20
REMARK   11  A    between atoms: C_20  and  C_21
REMARK   12  A    between atoms: C_21  and  N_22
REMARK   13  A    between atoms: C_26  and  C_27
REMARK   14  A    between atoms: C_32  and  O_33
REMARK                            x       y       z     vdW  Elec       q    Type
REMARK                         _______ _______ _______ _____ _____    ______ ____
ROOT
ATOM      1  C   UNL     1     -35.589  26.601   3.066  0.00  0.00    +0.153 C 
ENDROOT
BRANCH   1   3
ATOM      2  O   UNL     1     -32.872  25.682   3.517  0.00  0.00    -0.272 OA
ATOM      3  N   UNL     1     -34.490  27.354   3.618  0.00  0.00    -0.296 N 
ATOM      4  C   UNL     1     -33.221  26.827   3.796  0.00  0.00    +0.253 C 
ATOM      5  H   UNL     1     -34.651  28.289   3.881  0.00  0.00    +0.150 HD
BRANCH   4   7
ATOM      6  O   UNL     1     -32.934  28.883   5.042  0.00  0.00    -0.333 OA
ATOM      7  C   UNL     1     -32.258  27.834   4.366  0.00  0.00    +0.229 C 
ATOM      8  C   UNL     1     -32.164  27.974   5.839  0.00  0.00    +0.250 C 
BRANCH   8  10
ATOM      9  O   UNL     1     -30.861  29.792   6.600  0.00  0.00    -0.247 OA
ATOM     10  C   UNL     1     -30.962  28.588   6.414  0.00  0.00    +0.344 C 
BRANCH  10  11
ATOM     11  O   UNL     1     -30.005  27.674   6.706  0.00  0.00    -0.478 OA
ATOM     12  H   UNL     1     -30.073  26.802   6.372  0.00  0.00    +0.295 HD
ENDBRANCH  10  11
ENDBRANCH   8  10
ENDBRANCH   4   7
ENDBRANCH   1   3
BRANCH   1  15
ATOM     13  O   UNL     1     -37.504  27.268   1.738  0.00  0.00    -0.273 OA
ATOM     14  N   UNL     1     -35.785  28.798   2.060  0.00  0.00    -0.303 N 
ATOM     15  C   UNL     1     -36.405  27.559   2.205  0.00  0.00    +0.241 C 
ATOM     16  H   UNL     1     -34.901  28.927   2.476  0.00  0.00    +0.149 HD
BRANCH  14  17
ATOM     17  C   UNL     1     -36.364  29.897   1.338  0.00  0.00    +0.089 C 
BRANCH  17  18
ATOM     18  C   UNL     1     -36.114  31.224   2.044  0.00  0.00    +0.021 C 
BRANCH  18  19
ATOM     19  C   UNL     1     -34.958  31.117   3.038  0.00  0.00    -0.000 C 
BRANCH  19  20
ATOM     20  C   UNL     1     -33.812  32.061   2.665  0.00  0.00    -0.024 C 
BRANCH  20  21
ATOM     21  C   UNL     1     -32.475  31.324   2.637  0.00  0.00    -0.086 C 
BRANCH  21  22
ATOM     22  N   UNL     1     -31.850  31.359   3.954  0.00  0.00    +0.380 N 
ATOM     23  H   UNL     1     -32.078  30.504   4.461  0.00  0.00    -0.089 HD
ATOM     24  H   UNL     1     -32.198  32.165   4.473  0.00  0.00    -0.089 HD
ATOM     25  H   UNL     1     -30.839  31.434   3.849  0.00  0.00    -0.089 HD
ENDBRANCH  21  22
ENDBRANCH  20  21
ENDBRANCH  19  20
ENDBRANCH  18  19
ENDBRANCH  17  18
ENDBRANCH  14  17
ENDBRANCH   1  15
BRANCH   1  26
ATOM     26  C   UNL     1     -36.471  25.981   4.155  0.00  0.00    +0.055 C 
BRANCH  26  27
ATOM     27  C   UNL     1     -36.100  24.551   4.462  0.00  0.00    -0.020 C 
ATOM     28  C   UNL     1     -36.297  23.576   3.497  0.00  0.00    -0.001 C 
ATOM     29  C   UNL     1     -35.568  24.237   5.703  0.00  0.00    -0.001 C 
ATOM     30  C   UNL     1     -35.954  22.253   3.781  0.00  0.00    +0.036 C 
ATOM     31  C   UNL     1     -35.226  22.915   5.986  0.00  0.00    +0.036 C 
ATOM     32  C   UNL     1     -35.419  21.923   5.025  0.00  0.00    +0.134 C 
BRANCH  32  33
ATOM     33  O   UNL     1     -35.085  20.633   5.302  0.00  0.00    -0.506 OA
ATOM     34  H   UNL     1     -34.283  20.276   4.973  0.00  0.00    +0.292 HD
ENDBRANCH  32  33
ENDBRANCH  26  27
ENDBRANCH   1  26
TORSDOF 14
ENDMDL
MODEL 2
REMARK VINA RESULT:      -5.7      1.631      2.453
REMARK  Name = 21597399
REMARK  14 active torsions:
REMARK  status: ('A' for Active; 'I' for Inactive)
REMARK    1  A    between atoms: C_1  and  N_3
REMARK    2  A    between atoms: C_1  and  C_15
REMARK    3  A    between atoms: C_1  and  C_26
REMARK    4  A    between atoms: C_4  and  C_7
REMARK    5  A    between atoms: C_8  and  C_10
REMARK    6  A    between atoms: C_10  and  O_11
REMARK    7  A    between atoms: N_14  and  C_17
REMARK    8  A    between atoms: C_17  and  C_18
REMARK    9  A    between atoms: C_18  and  C_19
REMARK   10  A    between atoms: C_19  and  C_20
REMARK   11  A    between atoms: C_20  and  C_21
REMARK   12  A    between atoms: C_21  and  N_22
REMARK   13  A    between atoms: C_26  and  C_27
REMARK   14  A    between atoms: C_32  and  O_33
REMARK                            x       y       z     vdW  Elec       q    Type
REMARK                         _______ _______ _______ _____ _____    ______ ____
ROOT
ATOM      1  C   UNL     1     -35.535  26.660   3.094  0.00  0.00    +0.153 C 
ENDROOT
BRANCH   1   3
ATOM      2  O   UNL     1     -32.779  25.799   3.403  0.00  0.00    -0.272 OA
ATOM      3  N   UNL     1     -34.448  27.400   3.684  0.00  0.00    -0.296 N 
ATOM      4  C   UNL     1     -33.158  26.903   3.787  0.00  0.00    +0.253 C 
ATOM      5  H   UNL     1     -34.631  28.303   4.029  0.00  0.00    +0.150 HD
BRANCH   4   7
ATOM      6  O   UNL     1     -32.911  28.951   5.055  0.00  0.00    -0.333 OA
ATOM      7  C   UNL     1     -32.214  27.890   4.420  0.00  0.00    +0.229 C 
ATOM      8  C   UNL     1     -32.209  28.026   5.896  0.00  0.00    +0.250 C 
BRANCH   8  10
ATOM      9  O   UNL     1     -30.996  29.784   6.905  0.00  0.00    -0.247 OA
ATOM     10  C   UNL     1     -31.034  28.616   6.547  0.00  0.00    +0.344 C 
BRANCH  10  11
ATOM     11  O   UNL     1     -30.026  27.724   6.698  0.00  0.00    -0.478 OA
ATOM     12  H   UNL     1     -29.883  27.314   7.529  0.00  0.00    +0.295 HD
ENDBRANCH  10  11
ENDBRANCH   8  10
ENDBRANCH   4   7
ENDBRANCH   1   3
BRANCH   1  15
ATOM     13  O   UNL     1     -37.398  27.342   1.701  0.00  0.00    -0.273 OA
ATOM     14  N   UNL     1     -35.715  28.882   2.144  0.00  0.00    -0.303 N 
ATOM     15  C   UNL     1     -36.325  27.633   2.225  0.00  0.00    +0.241 C 
ATOM     16  H   UNL     1     -34.853  29.010   2.602  0.00  0.00    +0.149 HD
BRANCH  14  17
ATOM     17  C   UNL     1     -36.276  29.995   1.428  0.00  0.00    +0.089 C 
BRANCH  17  18
ATOM     18  C   UNL     1     -36.145  31.292   2.218  0.00  0.00    +0.021 C 
BRANCH  18  19
ATOM     19  C   UNL     1     -36.692  32.481   1.430  0.00  0.00    -0.000 C 
BRANCH  19  20
ATOM     20  C   UNL     1     -38.150  32.771   1.797  0.00  0.00    -0.024 C 
BRANCH  20  21
ATOM     21  C   UNL     1     -38.495  34.241   1.569  0.00  0.00    -0.086 C 
BRANCH  21  22
ATOM     22  N   UNL     1     -39.060  34.823   2.781  0.00  0.00    +0.380 N 
ATOM     23  H   UNL     1     -39.984  35.202   2.578  0.00  0.00    -0.089 HD
ATOM     24  H   UNL     1     -38.451  35.571   3.114  0.00  0.00    -0.089 HD
ATOM     25  H   UNL     1     -39.137  34.104   3.499  0.00  0.00    -0.089 HD
ENDBRANCH  21  22
ENDBRANCH  20  21
ENDBRANCH  19  20
ENDBRANCH  18  19
ENDBRANCH  17  18
ENDBRANCH  14  17
ENDBRANCH   1  15
BRANCH   1  26
ATOM     26  C   UNL     1     -36.448  26.030   4.153  0.00  0.00    +0.055 C 
BRANCH  26  27
ATOM     27  C   UNL     1     -36.083  24.598   4.460  0.00  0.00    -0.020 C 
ATOM     28  C   UNL     1     -35.532  24.287   5.693  0.00  0.00    -0.001 C 
ATOM     29  C   UNL     1     -36.307  23.619   3.504  0.00  0.00    -0.001 C 
ATOM     30  C   UNL     1     -35.195  22.963   5.977  0.00  0.00    +0.036 C 
ATOM     31  C   UNL     1     -35.970  22.296   3.788  0.00  0.00    +0.036 C 
ATOM     32  C   UNL     1     -35.413  21.967   5.025  0.00  0.00    +0.134 C 
BRANCH  32  33
ATOM     33  O   UNL     1     -35.085  20.677   5.302  0.00  0.00    -0.506 OA
ATOM     34  H   UNL     1     -34.509  20.207   4.731  0.00  0.00    +0.292 HD
ENDBRANCH  32  33
ENDBRANCH  26  27
ENDBRANCH   1  26
TORSDOF 14
ENDMDL
MODEL 3
REMARK VINA RESULT:      -5.5      2.312      4.207
REMARK  Name = 21597399
REMARK  14 active torsions:
REMARK  status: ('A' for Active; 'I' for Inactive)
REMARK    1  A    between atoms: C_1  and  N_3
REMARK    2  A    between atoms: C_1  and  C_15
REMARK    3  A    between atoms: C_1  and  C_26
REMARK    4  A    between atoms: C_4  and  C_7
REMARK    5  A    between atoms: C_8  and  C_10
REMARK    6  A    between atoms: C_10  and  O_11
REMARK    7  A    between atoms: N_14  and  C_17
REMARK    8  A    between atoms: C_17  and  C_18
REMARK    9  A    between atoms: C_18  and  C_19
REMARK   10  A    between atoms: C_19  and  C_20
REMARK   11  A    between atoms: C_20  and  C_21
REMARK   12  A    between atoms: C_21  and  N_22
REMARK   13  A    between atoms: C_26  and  C_27
REMARK   14  A    between atoms: C_32  and  O_33
REMARK                            x       y       z     vdW  Elec       q    Type
REMARK                         _______ _______ _______ _____ _____    ______ ____
ROOT
ATOM      1  C   UNL     1     -35.581  26.414   2.868  0.00  0.00    +0.153 C 
ENDROOT
BRANCH   1   3
ATOM      2  O   UNL     1     -32.885  25.565   3.533  0.00  0.00    -0.272 OA
ATOM      3  N   UNL     1     -34.518  27.221   3.412  0.00  0.00    -0.296 N 
ATOM      4  C   UNL     1     -33.256  26.724   3.699  0.00  0.00    +0.253 C 
ATOM      5  H   UNL     1     -34.699  28.172   3.589  0.00  0.00    +0.150 HD
BRANCH   4   7
ATOM      6  O   UNL     1     -33.048  28.836   4.865  0.00  0.00    -0.333 OA
ATOM      7  C   UNL     1     -32.332  27.785   4.234  0.00  0.00    +0.229 C 
ATOM      8  C   UNL     1     -32.251  27.986   5.700  0.00  0.00    +0.250 C 
BRANCH   8  10
ATOM      9  O   UNL     1     -30.989  29.879   6.334  0.00  0.00    -0.247 OA
ATOM     10  C   UNL     1     -31.074  28.663   6.257  0.00  0.00    +0.344 C 
BRANCH  10  11
ATOM     11  O   UNL     1     -30.122  27.790   6.664  0.00  0.00    -0.478 OA
ATOM     12  H   UNL     1     -29.397  27.592   6.104  0.00  0.00    +0.295 HD
ENDBRANCH  10  11
ENDBRANCH   8  10
ENDBRANCH   4   7
ENDBRANCH   1   3
BRANCH   1  15
ATOM     13  O   UNL     1     -36.075  28.464   1.673  0.00  0.00    -0.273 OA
ATOM     14  N   UNL     1     -37.471  26.632   1.366  0.00  0.00    -0.303 N 
ATOM     15  C   UNL     1     -36.388  27.303   1.928  0.00  0.00    +0.241 C 
ATOM     16  H   UNL     1     -37.633  25.700   1.640  0.00  0.00    +0.149 HD
BRANCH  14  17
ATOM     17  C   UNL     1     -38.364  27.225   0.409  0.00  0.00    +0.089 C 
BRANCH  17  18
ATOM     18  C   UNL     1     -39.804  26.782   0.638  0.00  0.00    +0.021 C 
BRANCH  18  19
ATOM     19  C   UNL     1     -39.967  26.097   1.994  0.00  0.00    -0.000 C 
BRANCH  19  20
ATOM     20  C   UNL     1     -40.601  24.712   1.847  0.00  0.00    -0.024 C 
BRANCH  20  21
ATOM     21  C   UNL     1     -39.686  23.623   2.404  0.00  0.00    -0.086 C 
BRANCH  21  22
ATOM     22  N   UNL     1     -40.146  22.307   1.976  0.00  0.00    +0.380 N 
ATOM     23  H   UNL     1     -40.967  22.041   2.519  0.00  0.00    -0.089 HD
ATOM     24  H   UNL     1     -39.404  21.623   2.124  0.00  0.00    -0.089 HD
ATOM     25  H   UNL     1     -40.388  22.336   0.986  0.00  0.00    -0.089 HD
ENDBRANCH  21  22
ENDBRANCH  20  21
ENDBRANCH  19  20
ENDBRANCH  18  19
ENDBRANCH  17  18
ENDBRANCH  14  17
ENDBRANCH   1  15
BRANCH   1  26
ATOM     26  C   UNL     1     -36.486  25.834   3.960  0.00  0.00    +0.055 C 
BRANCH  26  27
ATOM     27  C   UNL     1     -36.095  24.431   4.359  0.00  0.00    -0.020 C 
ATOM     28  C   UNL     1     -36.170  23.413   3.421  0.00  0.00    -0.001 C 
ATOM     29  C   UNL     1     -35.668  24.186   5.654  0.00  0.00    -0.001 C 
ATOM     30  C   UNL     1     -35.808  22.117   3.789  0.00  0.00    +0.036 C 
ATOM     31  C   UNL     1     -35.307  22.890   6.021  0.00  0.00    +0.036 C 
ATOM     32  C   UNL     1     -35.377  21.855   5.089  0.00  0.00    +0.134 C 
BRANCH  32  33
ATOM     33  O   UNL     1     -35.025  20.591   5.448  0.00  0.00    -0.506 OA
ATOM     34  H   UNL     1     -34.321  20.157   5.006  0.00  0.00    +0.292 HD
ENDBRANCH  32  33
ENDBRANCH  26  27
ENDBRANCH   1  26
TORSDOF 14
ENDMDL
MODEL 4
REMARK VINA RESULT:      -5.5      1.110      1.588
REMARK  Name = 21597399
REMARK  14 active torsions:
REMARK  status: ('A' for Active; 'I' for Inactive)
REMARK    1  A    between atoms: C_1  and  N_3
REMARK    2  A    between atoms: C_1  and  C_15
REMARK    3  A    between atoms: C_1  and  C_26
REMARK    4  A    between atoms: C_4  and  C_7
REMARK    5  A    between atoms: C_8  and  C_10
REMARK    6  A    between atoms: C_10  and  O_11
REMARK    7  A    between atoms: N_14  and  C_17
REMARK    8  A    between atoms: C_17  and  C_18
REMARK    9  A    between atoms: C_18  and  C_19
REMARK   10  A    between atoms: C_19  and  C_20
REMARK   11  A    between atoms: C_20  and  C_21
REMARK   12  A    between atoms: C_21  and  N_22
REMARK   13  A    between atoms: C_26  and  C_27
REMARK   14  A    between atoms: C_32  and  O_33
REMARK                            x       y       z     vdW  Elec       q    Type
REMARK                         _______ _______ _______ _____ _____    ______ ____
ROOT
ATOM      1  C   UNL     1     -35.646  26.568   3.113  0.00  0.00    +0.153 C 
ENDROOT
BRANCH   1   3
ATOM      2  O   UNL     1     -32.921  25.792   3.746  0.00  0.00    -0.272 OA
ATOM      3  N   UNL     1     -34.711  27.268   3.957  0.00  0.00    -0.296 N 
ATOM      4  C   UNL     1     -33.422  26.817   4.201  0.00  0.00    +0.253 C 
ATOM      5  H   UNL     1     -35.001  28.107   4.380  0.00  0.00    +0.150 HD
BRANCH   4   7
ATOM      6  O   UNL     1     -31.257  27.701   4.828  0.00  0.00    -0.333 OA
ATOM      7  C   UNL     1     -32.650  27.749   5.096  0.00  0.00    +0.229 C 
ATOM      8  C   UNL     1     -31.953  28.906   4.486  0.00  0.00    +0.250 C 
BRANCH   8  10
ATOM      9  O   UNL     1     -32.417  30.672   5.986  0.00  0.00    -0.247 OA
ATOM     10  C   UNL     1     -31.591  30.043   5.341  0.00  0.00    +0.344 C 
BRANCH  10  11
ATOM     11  O   UNL     1     -30.260  30.298   5.324  0.00  0.00    -0.478 OA
ATOM     12  H   UNL     1     -29.950  31.177   5.419  0.00  0.00    +0.295 HD
ENDBRANCH  10  11
ENDBRANCH   8  10
ENDBRANCH   4   7
ENDBRANCH   1   3
BRANCH   1  15
ATOM     13  O   UNL     1     -37.320  27.374   1.556  0.00  0.00    -0.273 OA
ATOM     14  N   UNL     1     -35.674  28.845   2.282  0.00  0.00    -0.303 N 
ATOM     15  C   UNL     1     -36.311  27.608   2.217  0.00  0.00    +0.241 C 
ATOM     16  H   UNL     1     -34.870  28.925   2.844  0.00  0.00    +0.149 HD
BRANCH  14  17
ATOM     17  C   UNL     1     -36.128  30.010   1.574  0.00  0.00    +0.089 C 
BRANCH  17  18
ATOM     18  C   UNL     1     -35.888  31.283   2.378  0.00  0.00    +0.021 C 
BRANCH  18  19
ATOM     19  C   UNL     1     -34.641  31.161   3.253  0.00  0.00    -0.000 C 
BRANCH  19  20
ATOM     20  C   UNL     1     -33.445  31.879   2.624  0.00  0.00    -0.024 C 
BRANCH  20  21
ATOM     21  C   UNL     1     -33.897  33.072   1.784  0.00  0.00    -0.086 C 
BRANCH  21  22
ATOM     22  N   UNL     1     -33.389  34.315   2.355  0.00  0.00    +0.380 N 
ATOM     23  H   UNL     1     -33.234  34.993   1.610  0.00  0.00    -0.089 HD
ATOM     24  H   UNL     1     -32.509  34.132   2.838  0.00  0.00    -0.089 HD
ATOM     25  H   UNL     1     -34.069  34.686   3.018  0.00  0.00    -0.089 HD
ENDBRANCH  21  22
ENDBRANCH  20  21
ENDBRANCH  19  20
ENDBRANCH  18  19
ENDBRANCH  17  18
ENDBRANCH  14  17
ENDBRANCH   1  15
BRANCH   1  26
ATOM     26  C   UNL     1     -36.703  25.810   3.924  0.00  0.00    +0.055 C 
BRANCH  26  27
ATOM     27  C   UNL     1     -36.256  24.421   4.311  0.00  0.00    -0.020 C 
ATOM     28  C   UNL     1     -35.754  24.199   5.583  0.00  0.00    -0.001 C 
ATOM     29  C   UNL     1     -36.357  23.392   3.387  0.00  0.00    -0.001 C 
ATOM     30  C   UNL     1     -35.341  22.915   5.941  0.00  0.00    +0.036 C 
ATOM     31  C   UNL     1     -35.943  22.110   3.745  0.00  0.00    +0.036 C 
ATOM     32  C   UNL     1     -35.435  21.870   5.022  0.00  0.00    +0.134 C 
BRANCH  32  33
ATOM     33  O   UNL     1     -35.032  20.619   5.370  0.00  0.00    -0.506 OA
ATOM     34  H   UNL     1     -35.643  19.908   5.352  0.00  0.00    +0.292 HD
ENDBRANCH  32  33
ENDBRANCH  26  27
ENDBRANCH   1  26
TORSDOF 14
ENDMDL
MODEL 5
REMARK VINA RESULT:      -5.5      4.507      9.108
REMARK  Name = 21597399
REMARK  14 active torsions:
REMARK  status: ('A' for Active; 'I' for Inactive)
REMARK    1  A    between atoms: C_1  and  N_3
REMARK    2  A    between atoms: C_1  and  C_15
REMARK    3  A    between atoms: C_1  and  C_26
REMARK    4  A    between atoms: C_4  and  C_7
REMARK    5  A    between atoms: C_8  and  C_10
REMARK    6  A    between atoms: C_10  and  O_11
REMARK    7  A    between atoms: N_14  and  C_17
REMARK    8  A    between atoms: C_17  and  C_18
REMARK    9  A    between atoms: C_18  and  C_19
REMARK   10  A    between atoms: C_19  and  C_20
REMARK   11  A    between atoms: C_20  and  C_21
REMARK   12  A    between atoms: C_21  and  N_22
REMARK   13  A    between atoms: C_26  and  C_27
REMARK   14  A    between atoms: C_32  and  O_33
REMARK                            x       y       z     vdW  Elec       q    Type
REMARK                         _______ _______ _______ _____ _____    ______ ____
ROOT
ATOM      1  C   UNL     1     -36.694  21.231   1.891  0.00  0.00    +0.153 C 
ENDROOT
BRANCH   1   3
ATOM      2  O   UNL     1     -36.365  20.378  -0.865  0.00  0.00    -0.272 OA
ATOM      3  N   UNL     1     -37.075  19.966   1.315  0.00  0.00    -0.296 N 
ATOM      4  C   UNL     1     -36.876  19.647  -0.020  0.00  0.00    +0.253 C 
ATOM      5  H   UNL     1     -37.497  19.295   1.899  0.00  0.00    +0.150 HD
BRANCH   4   7
ATOM      6  O   UNL     1     -36.990  17.885  -1.675  0.00  0.00    -0.333 OA
ATOM      7  C   UNL     1     -37.341  18.255  -0.351  0.00  0.00    +0.229 C 
ATOM      8  C   UNL     1     -36.325  17.205  -0.602  0.00  0.00    +0.250 C 
BRANCH   8  10
ATOM      9  O   UNL     1     -37.329  15.204  -1.357  0.00  0.00    -0.247 OA
ATOM     10  C   UNL     1     -36.719  15.797  -0.479  0.00  0.00    +0.344 C 
BRANCH  10  11
ATOM     11  O   UNL     1     -36.329  15.254   0.699  0.00  0.00    -0.478 OA
ATOM     12  H   UNL     1     -35.946  14.399   0.717  0.00  0.00    +0.295 HD
ENDBRANCH  10  11
ENDBRANCH   8  10
ENDBRANCH   4   7
ENDBRANCH   1   3
BRANCH   1  15
ATOM     13  O   UNL     1     -34.735  20.186   2.863  0.00  0.00    -0.273 OA
ATOM     14  N   UNL     1     -35.978  21.653   4.168  0.00  0.00    -0.303 N 
ATOM     15  C   UNL     1     -35.697  20.937   3.007  0.00  0.00    +0.241 C 
ATOM     16  H   UNL     1     -36.777  22.228   4.178  0.00  0.00    +0.149 HD
BRANCH  14  17
ATOM     17  C   UNL     1     -35.166  21.597   5.352  0.00  0.00    +0.089 C 
BRANCH  17  18
ATOM     18  C   UNL     1     -35.329  22.851   6.203  0.00  0.00    +0.021 C 
BRANCH  18  19
ATOM     19  C   UNL     1     -35.656  24.069   5.340  0.00  0.00    -0.000 C 
BRANCH  19  20
ATOM     20  C   UNL     1     -34.596  25.163   5.495  0.00  0.00    -0.024 C 
BRANCH  20  21
ATOM     21  C   UNL     1     -34.531  26.049   4.252  0.00  0.00    -0.086 C 
BRANCH  21  22
ATOM     22  N   UNL     1     -35.384  27.220   4.421  0.00  0.00    +0.380 N 
ATOM     23  H   UNL     1     -36.361  26.946   4.326  0.00  0.00    -0.089 HD
ATOM     24  H   UNL     1     -35.154  27.913   3.708  0.00  0.00    -0.089 HD
ATOM     25  H   UNL     1     -35.231  27.621   5.345  0.00  0.00    -0.089 HD
ENDBRANCH  21  22
ENDBRANCH  20  21
ENDBRANCH  19  20
ENDBRANCH  18  19
ENDBRANCH  17  18
ENDBRANCH  14  17
ENDBRANCH   1  15
BRANCH   1  26
ATOM     26  C   UNL     1     -37.899  22.002   2.443  0.00  0.00    +0.055 C 
BRANCH  26  27
ATOM     27  C   UNL     1     -37.756  23.496   2.288  0.00  0.00    -0.020 C 
ATOM     28  C   UNL     1     -38.558  24.337   3.044  0.00  0.00    -0.001 C 
ATOM     29  C   UNL     1     -36.826  24.002   1.392  0.00  0.00    -0.001 C 
ATOM     30  C   UNL     1     -38.426  25.719   2.900  0.00  0.00    +0.036 C 
ATOM     31  C   UNL     1     -36.696  25.382   1.249  0.00  0.00    +0.036 C 
ATOM     32  C   UNL     1     -37.496  26.242   2.003  0.00  0.00    +0.134 C 
BRANCH  32  33
ATOM     33  O   UNL     1     -37.367  27.589   1.863  0.00  0.00    -0.506 OA
ATOM     34  H   UNL     1     -36.996  27.945   1.079  0.00  0.00    +0.292 HD
ENDBRANCH  32  33
ENDBRANCH  26  27
ENDBRANCH   1  26
TORSDOF 14
ENDMDL
MODEL 6
REMARK VINA RESULT:      -5.3      4.583      7.800
REMARK  Name = 21597399
REMARK  14 active torsions:
REMARK  status: ('A' for Active; 'I' for Inactive)
REMARK    1  A    between atoms: C_1  and  N_3
REMARK    2  A    between atoms: C_1  and  C_15
REMARK    3  A    between atoms: C_1  and  C_26
REMARK    4  A    between atoms: C_4  and  C_7
REMARK    5  A    between atoms: C_8  and  C_10
REMARK    6  A    between atoms: C_10  and  O_11
REMARK    7  A    between atoms: N_14  and  C_17
REMARK    8  A    between atoms: C_17  and  C_18
REMARK    9  A    between atoms: C_18  and  C_19
REMARK   10  A    between atoms: C_19  and  C_20
REMARK   11  A    between atoms: C_20  and  C_21
REMARK   12  A    between atoms: C_21  and  N_22
REMARK   13  A    between atoms: C_26  and  C_27
REMARK   14  A    between atoms: C_32  and  O_33
REMARK                            x       y       z     vdW  Elec       q    Type
REMARK                         _______ _______ _______ _____ _____    ______ ____
ROOT
ATOM      1  C   UNL     1     -36.237  21.148   2.409  0.00  0.00    +0.153 C 
ENDROOT
BRANCH   1   3
ATOM      2  O   UNL     1     -38.705  20.908   0.899  0.00  0.00    -0.272 OA
ATOM      3  N   UNL     1     -37.194  22.188   2.125  0.00  0.00    -0.296 N 
ATOM      4  C   UNL     1     -38.351  21.976   1.391  0.00  0.00    +0.253 C 
ATOM      5  H   UNL     1     -37.017  23.092   2.470  0.00  0.00    +0.150 HD
BRANCH   4   7
ATOM      6  O   UNL     1     -40.570  22.945   1.390  0.00  0.00    -0.333 OA
ATOM      7  C   UNL     1     -39.184  23.224   1.265  0.00  0.00    +0.229 C 
ATOM      8  C   UNL     1     -39.950  23.691   2.445  0.00  0.00    +0.250 C 
BRANCH   8  10
ATOM      9  O   UNL     1     -41.263  25.534   1.769  0.00  0.00    -0.247 OA
ATOM     10  C   UNL     1     -40.386  25.091   2.495  0.00  0.00    +0.344 C 
BRANCH  10  11
ATOM     11  O   UNL     1     -39.711  25.809   3.425  0.00  0.00    -0.478 OA
ATOM     12  H   UNL     1     -39.413  26.674   3.224  0.00  0.00    +0.295 HD
ENDBRANCH  10  11
ENDBRANCH   8  10
ENDBRANCH   4   7
ENDBRANCH   1   3
BRANCH   1  15
ATOM     13  O   UNL     1     -34.982  20.593   4.407  0.00  0.00    -0.273 OA
ATOM     14  N   UNL     1     -36.147  22.603   4.346  0.00  0.00    -0.303 N 
ATOM     15  C   UNL     1     -35.722  21.383   3.825  0.00  0.00    +0.241 C 
ATOM     16  H   UNL     1     -36.741  23.162   3.794  0.00  0.00    +0.149 HD
BRANCH  14  17
ATOM     17  C   UNL     1     -35.764  23.090   5.642  0.00  0.00    +0.089 C 
BRANCH  17  18
ATOM     18  C   UNL     1     -34.516  23.962   5.566  0.00  0.00    +0.021 C 
BRANCH  18  19
ATOM     19  C   UNL     1     -34.866  25.445   5.669  0.00  0.00    -0.000 C 
BRANCH  19  20
ATOM     20  C   UNL     1     -34.620  26.170   4.343  0.00  0.00    -0.024 C 
BRANCH  20  21
ATOM     21  C   UNL     1     -35.896  26.239   3.506  0.00  0.00    -0.086 C 
BRANCH  21  22
ATOM     22  N   UNL     1     -37.071  26.204   4.370  0.00  0.00    +0.380 N 
ATOM     23  H   UNL     1     -37.229  25.250   4.691  0.00  0.00    -0.089 HD
ATOM     24  H   UNL     1     -37.885  26.528   3.849  0.00  0.00    -0.089 HD
ATOM     25  H   UNL     1     -36.919  26.813   5.174  0.00  0.00    -0.089 HD
ENDBRANCH  21  22
ENDBRANCH  20  21
ENDBRANCH  19  20
ENDBRANCH  18  19
ENDBRANCH  17  18
ENDBRANCH  14  17
ENDBRANCH   1  15
BRANCH   1  26
ATOM     26  C   UNL     1     -35.072  21.145   1.413  0.00  0.00    +0.055 C 
BRANCH  26  27
ATOM     27  C   UNL     1     -34.668  19.754   0.991  0.00  0.00    -0.020 C 
ATOM     28  C   UNL     1     -33.463  19.232   1.437  0.00  0.00    -0.001 C 
ATOM     29  C   UNL     1     -35.508  19.022   0.167  0.00  0.00    -0.001 C 
ATOM     30  C   UNL     1     -33.090  17.946   1.047  0.00  0.00    +0.036 C 
ATOM     31  C   UNL     1     -35.133  17.736  -0.223  0.00  0.00    +0.036 C 
ATOM     32  C   UNL     1     -33.924  17.197   0.217  0.00  0.00    +0.134 C 
BRANCH  32  33
ATOM     33  O   UNL     1     -33.560  15.943  -0.162  0.00  0.00    -0.506 OA
ATOM     34  H   UNL     1     -33.211  15.796  -1.020  0.00  0.00    +0.292 HD
ENDBRANCH  32  33
ENDBRANCH  26  27
ENDBRANCH   1  26
TORSDOF 14
ENDMDL
MODEL 7
REMARK VINA RESULT:      -5.2      3.325      8.264
REMARK  Name = 21597399
REMARK  14 active torsions:
REMARK  status: ('A' for Active; 'I' for Inactive)
REMARK    1  A    between atoms: C_1  and  N_3
REMARK    2  A    between atoms: C_1  and  C_15
REMARK    3  A    between atoms: C_1  and  C_26
REMARK    4  A    between atoms: C_4  and  C_7
REMARK    5  A    between atoms: C_8  and  C_10
REMARK    6  A    between atoms: C_10  and  O_11
REMARK    7  A    between atoms: N_14  and  C_17
REMARK    8  A    between atoms: C_17  and  C_18
REMARK    9  A    between atoms: C_18  and  C_19
REMARK   10  A    between atoms: C_19  and  C_20
REMARK   11  A    between atoms: C_20  and  C_21
REMARK   12  A    between atoms: C_21  and  N_22
REMARK   13  A    between atoms: C_26  and  C_27
REMARK   14  A    between atoms: C_32  and  O_33
REMARK                            x       y       z     vdW  Elec       q    Type
REMARK                         _______ _______ _______ _____ _____    ______ ____
ROOT
ATOM      1  C   UNL     1     -36.153  24.588   4.411  0.00  0.00    +0.153 C 
ENDROOT
BRANCH   1   3
ATOM      2  O   UNL     1     -37.323  26.381   2.450  0.00  0.00    -0.272 OA
ATOM      3  N   UNL     1     -37.551  24.752   4.099  0.00  0.00    -0.296 N 
ATOM      4  C   UNL     1     -38.017  25.638   3.140  0.00  0.00    +0.253 C 
ATOM      5  H   UNL     1     -38.206  24.206   4.591  0.00  0.00    +0.150 HD
BRANCH   4   7
ATOM      6  O   UNL     1     -40.016  26.739   2.331  0.00  0.00    -0.333 OA
ATOM      7  C   UNL     1     -39.515  25.590   2.997  0.00  0.00    +0.229 C 
ATOM      8  C   UNL     1     -40.097  25.487   1.638  0.00  0.00    +0.250 C 
BRANCH   8  10
ATOM      9  O   UNL     1     -42.448  25.683   1.757  0.00  0.00    -0.247 OA
ATOM     10  C   UNL     1     -41.473  24.995   1.495  0.00  0.00    +0.344 C 
BRANCH  10  11
ATOM     11  O   UNL     1     -41.520  23.718   1.047  0.00  0.00    -0.478 OA
ATOM     12  H   UNL     1     -40.944  23.440   0.362  0.00  0.00    +0.295 HD
ENDBRANCH  10  11
ENDBRANCH   8  10
ENDBRANCH   4   7
ENDBRANCH   1   3
BRANCH   1  15
ATOM     13  O   UNL     1     -36.041  22.554   5.725  0.00  0.00    -0.273 OA
ATOM     14  N   UNL     1     -35.581  22.438   3.450  0.00  0.00    -0.303 N 
ATOM     15  C   UNL     1     -35.911  23.098   4.631  0.00  0.00    +0.241 C 
ATOM     16  H   UNL     1     -35.502  22.970   2.626  0.00  0.00    +0.149 HD
BRANCH  14  17
ATOM     17  C   UNL     1     -35.351  21.021   3.370  0.00  0.00    +0.089 C 
BRANCH  17  18
ATOM     18  C   UNL     1     -35.284  20.546   1.924  0.00  0.00    +0.021 C 
BRANCH  18  19
ATOM     19  C   UNL     1     -35.873  21.584   0.969  0.00  0.00    -0.000 C 
BRANCH  19  20
ATOM     20  C   UNL     1     -37.271  21.179   0.498  0.00  0.00    -0.024 C 
BRANCH  20  21
ATOM     21  C   UNL     1     -38.352  21.976   1.227  0.00  0.00    -0.086 C 
BRANCH  21  22
ATOM     22  N   UNL     1     -39.018  21.137   2.217  0.00  0.00    +0.380 N 
ATOM     23  H   UNL     1     -38.378  20.409   2.532  0.00  0.00    -0.089 HD
ATOM     24  H   UNL     1     -39.843  20.707   1.798  0.00  0.00    -0.089 HD
ATOM     25  H   UNL     1     -39.301  21.710   3.012  0.00  0.00    -0.089 HD
ENDBRANCH  21  22
ENDBRANCH  20  21
ENDBRANCH  19  20
ENDBRANCH  18  19
ENDBRANCH  17  18
ENDBRANCH  14  17
ENDBRANCH   1  15
BRANCH   1  26
ATOM     26  C   UNL     1     -35.741  25.384   5.655  0.00  0.00    +0.055 C 
BRANCH  26  27
ATOM     27  C   UNL     1     -34.541  26.267   5.411  0.00  0.00    -0.020 C 
ATOM     28  C   UNL     1     -33.650  26.502   6.447  0.00  0.00    -0.001 C 
ATOM     29  C   UNL     1     -34.351  26.826   4.157  0.00  0.00    -0.001 C 
ATOM     30  C   UNL     1     -32.541  27.318   6.222  0.00  0.00    +0.036 C 
ATOM     31  C   UNL     1     -33.243  27.641   3.934  0.00  0.00    +0.036 C 
ATOM     32  C   UNL     1     -32.337  27.888   4.966  0.00  0.00    +0.134 C 
BRANCH  32  33
ATOM     33  O   UNL     1     -31.255  28.683   4.747  0.00  0.00    -0.506 OA
ATOM     34  H   UNL     1     -31.346  29.471   4.247  0.00  0.00    +0.292 HD
ENDBRANCH  32  33
ENDBRANCH  26  27
ENDBRANCH   1  26
TORSDOF 14
ENDMDL
MODEL 8
REMARK VINA RESULT:      -5.1      4.217      7.650
REMARK  Name = 21597399
REMARK  14 active torsions:
REMARK  status: ('A' for Active; 'I' for Inactive)
REMARK    1  A    between atoms: C_1  and  N_3
REMARK    2  A    between atoms: C_1  and  C_15
REMARK    3  A    between atoms: C_1  and  C_26
REMARK    4  A    between atoms: C_4  and  C_7
REMARK    5  A    between atoms: C_8  and  C_10
REMARK    6  A    between atoms: C_10  and  O_11
REMARK    7  A    between atoms: N_14  and  C_17
REMARK    8  A    between atoms: C_17  and  C_18
REMARK    9  A    between atoms: C_18  and  C_19
REMARK   10  A    between atoms: C_19  and  C_20
REMARK   11  A    between atoms: C_20  and  C_21
REMARK   12  A    between atoms: C_21  and  N_22
REMARK   13  A    between atoms: C_26  and  C_27
REMARK   14  A    between atoms: C_32  and  O_33
REMARK                            x       y       z     vdW  Elec       q    Type
REMARK                         _______ _______ _______ _____ _____    ______ ____
ROOT
ATOM      1  C   UNL     1     -35.511  22.085   1.424  0.00  0.00    +0.153 C 
ENDROOT
BRANCH   1   3
ATOM      2  O   UNL     1     -38.130  21.469   2.517  0.00  0.00    -0.272 OA
ATOM      3  N   UNL     1     -36.790  22.539   0.941  0.00  0.00    -0.296 N 
ATOM      4  C   UNL     1     -37.995  22.190   1.532  0.00  0.00    +0.253 C 
ATOM      5  H   UNL     1     -36.809  23.126   0.151  0.00  0.00    +0.150 HD
BRANCH   4   7
ATOM      6  O   UNL     1     -40.403  22.279   1.301  0.00  0.00    -0.333 OA
ATOM      7  C   UNL     1     -39.175  22.821   0.843  0.00  0.00    +0.229 C 
ATOM      8  C   UNL     1     -40.114  23.640   1.645  0.00  0.00    +0.250 C 
BRANCH   8  10
ATOM      9  O   UNL     1     -40.590  25.715   0.622  0.00  0.00    -0.247 OA
ATOM     10  C   UNL     1     -40.977  24.605   0.955  0.00  0.00    +0.344 C 
BRANCH  10  11
ATOM     11  O   UNL     1     -42.224  24.120   0.739  0.00  0.00    -0.478 OA
ATOM     12  H   UNL     1     -42.813  24.003   1.459  0.00  0.00    +0.295 HD
ENDBRANCH  10  11
ENDBRANCH   8  10
ENDBRANCH   4   7
ENDBRANCH   1   3
BRANCH   1  15
ATOM     13  O   UNL     1     -34.482  24.183   2.067  0.00  0.00    -0.273 OA
ATOM     14  N   UNL     1     -35.256  22.765   3.737  0.00  0.00    -0.303 N 
ATOM     15  C   UNL     1     -35.007  23.128   2.416  0.00  0.00    +0.241 C 
ATOM     16  H   UNL     1     -35.682  21.894   3.907  0.00  0.00    +0.149 HD
BRANCH  14  17
ATOM     17  C   UNL     1     -34.926  23.593   4.864  0.00  0.00    +0.089 C 
BRANCH  17  18
ATOM     18  C   UNL     1     -36.106  24.461   5.285  0.00  0.00    +0.021 C 
BRANCH  18  19
ATOM     19  C   UNL     1     -35.671  25.902   5.549  0.00  0.00    -0.000 C 
BRANCH  19  20
ATOM     20  C   UNL     1     -34.164  26.075   5.345  0.00  0.00    -0.024 C 
BRANCH  20  21
ATOM     21  C   UNL     1     -33.869  27.013   4.176  0.00  0.00    -0.086 C 
BRANCH  21  22
ATOM     22  N   UNL     1     -35.085  27.702   3.760  0.00  0.00    +0.380 N 
ATOM     23  H   UNL     1     -35.028  28.684   4.029  0.00  0.00    -0.089 HD
ATOM     24  H   UNL     1     -35.891  27.271   4.213  0.00  0.00    -0.089 HD
ATOM     25  H   UNL     1     -35.187  27.631   2.748  0.00  0.00    -0.089 HD
ENDBRANCH  21  22
ENDBRANCH  20  21
ENDBRANCH  19  20
ENDBRANCH  18  19
ENDBRANCH  17  18
ENDBRANCH  14  17
ENDBRANCH   1  15
BRANCH   1  26
ATOM     26  C   UNL     1     -34.498  21.893   0.290  0.00  0.00    +0.055 C 
BRANCH  26  27
ATOM     27  C   UNL     1     -33.581  20.716   0.519  0.00  0.00    -0.020 C 
ATOM     28  C   UNL     1     -34.031  19.642   1.271  0.00  0.00    -0.001 C 
ATOM     29  C   UNL     1     -32.307  20.730  -0.027  0.00  0.00    -0.001 C 
ATOM     30  C   UNL     1     -33.184  18.554   1.482  0.00  0.00    +0.036 C 
ATOM     31  C   UNL     1     -31.461  19.642   0.185  0.00  0.00    +0.036 C 
ATOM     32  C   UNL     1     -31.899  18.553   0.940  0.00  0.00    +0.134 C 
BRANCH  32  33
ATOM     33  O   UNL     1     -31.073  17.492   1.146  0.00  0.00    -0.506 OA
ATOM     34  H   UNL     1     -30.844  17.239   2.019  0.00  0.00    +0.292 HD
ENDBRANCH  32  33
ENDBRANCH  26  27
ENDBRANCH   1  26
TORSDOF 14
ENDMDL
MODEL 9
REMARK VINA RESULT:      -5.1      4.641      7.031
REMARK  Name = 21597399
REMARK  14 active torsions:
REMARK  status: ('A' for Active; 'I' for Inactive)
REMARK    1  A    between atoms: C_1  and  N_3
REMARK    2  A    between atoms: C_1  and  C_15
REMARK    3  A    between atoms: C_1  and  C_26
REMARK    4  A    between atoms: C_4  and  C_7
REMARK    5  A    between atoms: C_8  and  C_10
REMARK    6  A    between atoms: C_10  and  O_11
REMARK    7  A    between atoms: N_14  and  C_17
REMARK    8  A    between atoms: C_17  and  C_18
REMARK    9  A    between atoms: C_18  and  C_19
REMARK   10  A    between atoms: C_19  and  C_20
REMARK   11  A    between atoms: C_20  and  C_21
REMARK   12  A    between atoms: C_21  and  N_22
REMARK   13  A    between atoms: C_26  and  C_27
REMARK   14  A    between atoms: C_32  and  O_33
REMARK                            x       y       z     vdW  Elec       q    Type
REMARK                         _______ _______ _______ _____ _____    ______ ____
ROOT
ATOM      1  C   UNL     1     -35.524  21.470   1.013  0.00  0.00    +0.153 C 
ENDROOT
BRANCH   1   3
ATOM      2  O   UNL     1     -34.071  23.963   1.337  0.00  0.00    -0.272 OA
ATOM      3  N   UNL     1     -35.851  22.566   1.889  0.00  0.00    -0.296 N 
ATOM      4  C   UNL     1     -35.093  23.724   1.975  0.00  0.00    +0.253 C 
ATOM      5  H   UNL     1     -36.654  22.489   2.453  0.00  0.00    +0.150 HD
BRANCH   4   7
ATOM      6  O   UNL     1     -36.420  24.075   3.970  0.00  0.00    -0.333 OA
ATOM      7  C   UNL     1     -35.673  24.716   2.948  0.00  0.00    +0.229 C 
ATOM      8  C   UNL     1     -35.190  24.705   4.349  0.00  0.00    +0.250 C 
BRANCH   8  10
ATOM      9  O   UNL     1     -34.454  26.551   5.625  0.00  0.00    -0.247 OA
ATOM     10  C   UNL     1     -35.386  25.904   5.173  0.00  0.00    +0.344 C 
BRANCH  10  11
ATOM     11  O   UNL     1     -36.696  26.192   5.359  0.00  0.00    -0.478 OA
ATOM     12  H   UNL     1     -37.153  26.722   4.736  0.00  0.00    +0.295 HD
ENDBRANCH  10  11
ENDBRANCH   8  10
ENDBRANCH   4   7
ENDBRANCH   1   3
BRANCH   1  15
ATOM     13  O   UNL     1     -36.817  20.415  -0.745  0.00  0.00    -0.273 OA
ATOM     14  N   UNL     1     -37.948  21.460   0.996  0.00  0.00    -0.303 N 
ATOM     15  C   UNL     1     -36.809  21.061   0.300  0.00  0.00    +0.241 C 
ATOM     16  H   UNL     1     -37.828  21.976   1.826  0.00  0.00    +0.149 HD
BRANCH  14  17
ATOM     17  C   UNL     1     -39.286  21.158   0.568  0.00  0.00    +0.089 C 
BRANCH  17  18
ATOM     18  C   UNL     1     -40.226  22.335   0.801  0.00  0.00    +0.021 C 
BRANCH  18  19
ATOM     19  C   UNL     1     -39.700  23.260   1.897  0.00  0.00    -0.000 C 
BRANCH  19  20
ATOM     20  C   UNL     1     -39.909  24.732   1.534  0.00  0.00    -0.024 C 
BRANCH  20  21
ATOM     21  C   UNL     1     -39.397  25.652   2.641  0.00  0.00    -0.086 C 
BRANCH  21  22
ATOM     22  N   UNL     1     -39.175  24.895   3.867  0.00  0.00    +0.380 N 
ATOM     23  H   UNL     1     -39.995  24.323   4.066  0.00  0.00    -0.089 HD
ATOM     24  H   UNL     1     -39.014  25.540   4.640  0.00  0.00    -0.089 HD
ATOM     25  H   UNL     1     -38.360  24.293   3.752  0.00  0.00    -0.089 HD
ENDBRANCH  21  22
ENDBRANCH  20  21
ENDBRANCH  19  20
ENDBRANCH  18  19
ENDBRANCH  17  18
ENDBRANCH  14  17
ENDBRANCH   1  15
BRANCH   1  26
ATOM     26  C   UNL     1     -34.934  20.277   1.774  0.00  0.00    +0.055 C 
BRANCH  26  27
ATOM     27  C   UNL     1     -33.605  19.828   1.217  0.00  0.00    -0.020 C 
ATOM     28  C   UNL     1     -32.915  20.664   0.353  0.00  0.00    -0.001 C 
ATOM     29  C   UNL     1     -33.098  18.591   1.580  0.00  0.00    -0.001 C 
ATOM     30  C   UNL     1     -31.686  20.250  -0.162  0.00  0.00    +0.036 C 
ATOM     31  C   UNL     1     -31.870  18.177   1.064  0.00  0.00    +0.036 C 
ATOM     32  C   UNL     1     -31.163  19.006   0.193  0.00  0.00    +0.134 C 
BRANCH  32  33
ATOM     33  O   UNL     1     -29.965  18.603  -0.309  0.00  0.00    -0.506 OA
ATOM     34  H   UNL     1     -29.856  18.496  -1.234  0.00  0.00    +0.292 HD
ENDBRANCH  32  33
ENDBRANCH  26  27
ENDBRANCH   1  26
TORSDOF 14
ENDMDL
