MODEL 1
REMARK VINA RESULT:      -6.0      0.000      0.000
REMARK  Name = 190983
REMARK  4 active torsions:
REMARK  status: ('A' for Active; 'I' for Inactive)
REMARK    1  A    between atoms: C_11  and  C_18
REMARK    2  A    between atoms: C_12  and  C_22
REMARK    3  A    between atoms: C_18  and  O_19
REMARK    4  A    between atoms: C_22  and  O_23
REMARK                            x       y       z     vdW  Elec       q    Type
REMARK                         _______ _______ _______ _____ _____    ______ ____
ROOT
ATOM      1  O   UNL     1     -35.209  23.091   5.991  0.00  0.00    -0.386 OA
ATOM      2  O   UNL     1     -35.549  26.279   1.219  0.00  0.00    -0.386 OA
ATOM      3  O   UNL     1     -35.213  25.400   5.823  0.00  0.00    -0.244 OA
ATOM      4  O   UNL     1     -35.383  27.014   3.406  0.00  0.00    -0.244 OA
ATOM      5  O   UNL     1     -35.256  20.840   5.473  0.00  0.00    -0.244 OA
ATOM      6  O   UNL     1     -35.694  24.931  -0.654  0.00  0.00    -0.244 OA
ATOM      7  C   UNL     1     -35.357  23.942   3.933  0.00  0.00    +0.089 A 
ATOM      8  C   UNL     1     -35.438  24.702   2.795  0.00  0.00    +0.089 A 
ATOM      9  C   UNL     1     -35.371  22.572   3.826  0.00  0.00    +0.089 A 
ATOM     10  C   UNL     1     -35.532  24.075   1.576  0.00  0.00    +0.089 A 
ATOM     11  C   UNL     1     -35.464  21.912   2.602  0.00  0.00    +0.088 A 
ATOM     12  C   UNL     1     -35.547  22.688   1.441  0.00  0.00    +0.088 A 
ATOM     13  C   UNL     1     -35.253  24.291   5.332  0.00  0.00    +0.348 A 
ATOM     14  C   UNL     1     -35.449  26.131   2.576  0.00  0.00    +0.348 A 
ATOM     15  C   UNL     1     -35.275  22.011   5.155  0.00  0.00    +0.348 A 
ATOM     16  C   UNL     1     -35.604  25.088   0.547  0.00  0.00    +0.348 A 
ENDROOT
BRANCH  11  18
ATOM     17  O   UNL     1     -34.493  19.747   2.302  0.00  0.00    -0.245 OA
ATOM     18  C   UNL     1     -35.475  20.457   2.532  0.00  0.00    +0.338 C 
BRANCH  18  19
ATOM     19  O   UNL     1     -36.712  19.938   2.752  0.00  0.00    -0.477 OA
ATOM     20  H   UNL     1     -36.812  19.172   3.283  0.00  0.00    +0.295 HD
ENDBRANCH  18  19
ENDBRANCH  11  18
BRANCH  12  22
ATOM     21  O   UNL     1     -34.696  21.635  -0.531  0.00  0.00    -0.245 OA
ATOM     22  C   UNL     1     -35.647  22.062   0.128  0.00  0.00    +0.338 C 
BRANCH  22  23
ATOM     23  O   UNL     1     -36.930  21.989  -0.314  0.00  0.00    -0.477 OA
ATOM     24  H   UNL     1     -37.634  22.256   0.243  0.00  0.00    +0.295 HD
ENDBRANCH  22  23
ENDBRANCH  12  22
TORSDOF 4
ENDMDL
MODEL 2
REMARK VINA RESULT:      -6.0      0.174      4.075
REMARK  Name = 190983
REMARK  4 active torsions:
REMARK  status: ('A' for Active; 'I' for Inactive)
REMARK    1  A    between atoms: C_11  and  C_18
REMARK    2  A    between atoms: C_12  and  C_22
REMARK    3  A    between atoms: C_18  and  O_19
REMARK    4  A    between atoms: C_22  and  O_23
REMARK                            x       y       z     vdW  Elec       q    Type
REMARK                         _______ _______ _______ _____ _____    ______ ____
ROOT
ATOM      1  O   UNL     1     -35.784  26.321   1.371  0.00  0.00    -0.386 OA
ATOM      2  O   UNL     1     -35.160  22.978   6.006  0.00  0.00    -0.386 OA
ATOM      3  O   UNL     1     -35.551  26.982   3.577  0.00  0.00    -0.244 OA
ATOM      4  O   UNL     1     -35.237  25.289   5.924  0.00  0.00    -0.244 OA
ATOM      5  O   UNL     1     -35.965  25.039  -0.542  0.00  0.00    -0.244 OA
ATOM      6  O   UNL     1     -35.162  20.745   5.407  0.00  0.00    -0.244 OA
ATOM      7  C   UNL     1     -35.565  24.694   2.883  0.00  0.00    +0.089 A 
ATOM      8  C   UNL     1     -35.417  23.897   3.987  0.00  0.00    +0.089 A 
ATOM      9  C   UNL     1     -35.689  24.108   1.646  0.00  0.00    +0.089 A 
ATOM     10  C   UNL     1     -35.394  22.531   3.831  0.00  0.00    +0.089 A 
ATOM     11  C   UNL     1     -35.670  22.727   1.460  0.00  0.00    +0.088 A 
ATOM     12  C   UNL     1     -35.517  21.914   2.588  0.00  0.00    +0.088 A 
ATOM     13  C   UNL     1     -35.625  26.129   2.717  0.00  0.00    +0.348 A 
ATOM     14  C   UNL     1     -35.265  24.198   5.393  0.00  0.00    +0.348 A 
ATOM     15  C   UNL     1     -35.832  25.155   0.659  0.00  0.00    +0.348 A 
ATOM     16  C   UNL     1     -35.227  21.926   5.133  0.00  0.00    +0.348 A 
ENDROOT
BRANCH  11  18
ATOM     17  O   UNL     1     -34.869  21.763  -0.578  0.00  0.00    -0.245 OA
ATOM     18  C   UNL     1     -35.804  22.145   0.131  0.00  0.00    +0.338 C 
BRANCH  18  19
ATOM     19  O   UNL     1     -37.101  22.059  -0.267  0.00  0.00    -0.477 OA
ATOM     20  H   UNL     1     -37.363  22.415  -1.094  0.00  0.00    +0.295 HD
ENDBRANCH  18  19
ENDBRANCH  11  18
BRANCH  12  22
ATOM     21  O   UNL     1     -34.495  19.789   2.182  0.00  0.00    -0.245 OA
ATOM     22  C   UNL     1     -35.490  20.461   2.465  0.00  0.00    +0.338 C 
BRANCH  22  23
ATOM     23  O   UNL     1     -36.704  19.899   2.702  0.00  0.00    -0.477 OA
ATOM     24  H   UNL     1     -37.177  19.490   2.003  0.00  0.00    +0.295 HD
ENDBRANCH  22  23
ENDBRANCH  12  22
TORSDOF 4
ENDMDL
MODEL 3
REMARK VINA RESULT:      -5.9      3.195      5.378
REMARK  Name = 190983
REMARK  4 active torsions:
REMARK  status: ('A' for Active; 'I' for Inactive)
REMARK    1  A    between atoms: C_11  and  C_18
REMARK    2  A    between atoms: C_12  and  C_22
REMARK    3  A    between atoms: C_18  and  O_19
REMARK    4  A    between atoms: C_22  and  O_23
REMARK                            x       y       z     vdW  Elec       q    Type
REMARK                         _______ _______ _______ _____ _____    ______ ____
ROOT
ATOM      1  O   UNL     1     -35.470  21.355   2.880  0.00  0.00    -0.386 OA
ATOM      2  O   UNL     1     -40.700  22.178   0.640  0.00  0.00    -0.386 OA
ATOM      3  O   UNL     1     -36.706  19.889   1.583  0.00  0.00    -0.244 OA
ATOM      4  O   UNL     1     -39.355  20.305   0.451  0.00  0.00    -0.244 OA
ATOM      5  O   UNL     1     -34.793  23.212   4.076  0.00  0.00    -0.244 OA
ATOM      6  O   UNL     1     -41.506  24.271   1.199  0.00  0.00    -0.244 OA
ATOM      7  C   UNL     1     -37.474  22.066   2.204  0.00  0.00    +0.089 A 
ATOM      8  C   UNL     1     -38.721  22.263   1.671  0.00  0.00    +0.089 A 
ATOM      9  C   UNL     1     -36.901  23.066   2.952  0.00  0.00    +0.089 A 
ATOM     10  C   UNL     1     -39.366  23.455   1.896  0.00  0.00    +0.089 A 
ATOM     11  C   UNL     1     -37.534  24.283   3.196  0.00  0.00    +0.088 A 
ATOM     12  C   UNL     1     -38.807  24.484   2.651  0.00  0.00    +0.088 A 
ATOM     13  C   UNL     1     -36.556  20.951   2.149  0.00  0.00    +0.348 A 
ATOM     14  C   UNL     1     -39.575  21.427   0.857  0.00  0.00    +0.348 A 
ATOM     15  C   UNL     1     -35.601  22.615   3.395  0.00  0.00    +0.348 A 
ATOM     16  C   UNL     1     -40.650  23.411   1.232  0.00  0.00    +0.348 A 
ENDROOT
BRANCH  11  18
ATOM     17  O   UNL     1     -36.297  26.301   3.544  0.00  0.00    -0.245 OA
ATOM     18  C   UNL     1     -36.892  25.318   3.995  0.00  0.00    +0.338 C 
BRANCH  18  19
ATOM     19  O   UNL     1     -37.015  25.093   5.330  0.00  0.00    -0.477 OA
ATOM     20  H   UNL     1     -36.923  25.802   5.936  0.00  0.00    +0.295 HD
ENDBRANCH  18  19
ENDBRANCH  11  18
BRANCH  12  22
ATOM     21  O   UNL     1     -39.377  26.764   2.206  0.00  0.00    -0.245 OA
ATOM     22  C   UNL     1     -39.525  25.733   2.867  0.00  0.00    +0.338 C 
BRANCH  22  23
ATOM     23  O   UNL     1     -40.406  25.651   3.900  0.00  0.00    -0.477 OA
ATOM     24  H   UNL     1     -40.604  26.413   4.409  0.00  0.00    +0.295 HD
ENDBRANCH  22  23
ENDBRANCH  12  22
TORSDOF 4
ENDMDL
MODEL 4
REMARK VINA RESULT:      -5.8      3.205      6.040
REMARK  Name = 190983
REMARK  4 active torsions:
REMARK  status: ('A' for Active; 'I' for Inactive)
REMARK    1  A    between atoms: C_11  and  C_18
REMARK    2  A    between atoms: C_12  and  C_22
REMARK    3  A    between atoms: C_18  and  O_19
REMARK    4  A    between atoms: C_22  and  O_23
REMARK                            x       y       z     vdW  Elec       q    Type
REMARK                         _______ _______ _______ _____ _____    ______ ____
ROOT
ATOM      1  O   UNL     1     -40.711  22.165   0.618  0.00  0.00    -0.386 OA
ATOM      2  O   UNL     1     -35.458  21.365   2.815  0.00  0.00    -0.386 OA
ATOM      3  O   UNL     1     -39.354  20.301   0.411  0.00  0.00    -0.244 OA
ATOM      4  O   UNL     1     -36.694  19.897   1.523  0.00  0.00    -0.244 OA
ATOM      5  O   UNL     1     -41.526  24.249   1.192  0.00  0.00    -0.244 OA
ATOM      6  O   UNL     1     -34.785  23.223   4.015  0.00  0.00    -0.244 OA
ATOM      7  C   UNL     1     -38.725  22.258   1.633  0.00  0.00    +0.089 A 
ATOM      8  C   UNL     1     -37.473  22.068   2.156  0.00  0.00    +0.089 A 
ATOM      9  C   UNL     1     -39.376  23.445   1.869  0.00  0.00    +0.089 A 
ATOM     10  C   UNL     1     -36.901  23.068   2.905  0.00  0.00    +0.089 A 
ATOM     11  C   UNL     1     -38.818  24.475   2.624  0.00  0.00    +0.088 A 
ATOM     12  C   UNL     1     -37.540  24.279   3.159  0.00  0.00    +0.088 A 
ATOM     13  C   UNL     1     -39.580  21.420   0.823  0.00  0.00    +0.348 A 
ATOM     14  C   UNL     1     -36.548  20.959   2.091  0.00  0.00    +0.348 A 
ATOM     15  C   UNL     1     -40.664  23.395   1.215  0.00  0.00    +0.348 A 
ATOM     16  C   UNL     1     -35.595  22.623   3.338  0.00  0.00    +0.348 A 
ENDROOT
BRANCH  11  18
ATOM     17  O   UNL     1     -39.407  26.752   2.191  0.00  0.00    -0.245 OA
ATOM     18  C   UNL     1     -39.542  25.718   2.851  0.00  0.00    +0.338 C 
BRANCH  18  19
ATOM     19  O   UNL     1     -40.411  25.628   3.892  0.00  0.00    -0.477 OA
ATOM     20  H   UNL     1     -40.890  26.384   4.170  0.00  0.00    +0.295 HD
ENDBRANCH  18  19
ENDBRANCH  11  18
BRANCH  12  22
ATOM     21  O   UNL     1     -36.311  26.303   3.506  0.00  0.00    -0.245 OA
ATOM     22  C   UNL     1     -36.897  25.315   3.958  0.00  0.00    +0.338 C 
BRANCH  22  23
ATOM     23  O   UNL     1     -37.011  25.085   5.293  0.00  0.00    -0.477 OA
ATOM     24  H   UNL     1     -36.244  25.062   5.832  0.00  0.00    +0.295 HD
ENDBRANCH  22  23
ENDBRANCH  12  22
TORSDOF 4
ENDMDL
MODEL 5
REMARK VINA RESULT:      -5.8      3.493      5.283
REMARK  Name = 190983
REMARK  4 active torsions:
REMARK  status: ('A' for Active; 'I' for Inactive)
REMARK    1  A    between atoms: C_11  and  C_18
REMARK    2  A    between atoms: C_12  and  C_22
REMARK    3  A    between atoms: C_18  and  O_19
REMARK    4  A    between atoms: C_22  and  O_23
REMARK                            x       y       z     vdW  Elec       q    Type
REMARK                         _______ _______ _______ _____ _____    ______ ____
ROOT
ATOM      1  O   UNL     1     -40.109  20.507  -0.508  0.00  0.00    -0.386 OA
ATOM      2  O   UNL     1     -39.975  25.125   2.914  0.00  0.00    -0.386 OA
ATOM      3  O   UNL     1     -41.729  22.142  -0.266  0.00  0.00    -0.244 OA
ATOM      4  O   UNL     1     -41.662  24.480   1.467  0.00  0.00    -0.244 OA
ATOM      5  O   UNL     1     -38.173  19.267  -0.280  0.00  0.00    -0.244 OA
ATOM      6  O   UNL     1     -38.000  25.196   4.111  0.00  0.00    -0.244 OA
ATOM      7  C   UNL     1     -39.664  22.148   0.939  0.00  0.00    +0.089 A 
ATOM      8  C   UNL     1     -39.632  23.248   1.755  0.00  0.00    +0.089 A 
ATOM      9  C   UNL     1     -38.594  21.285   0.936  0.00  0.00    +0.089 A 
ATOM     10  C   UNL     1     -38.531  23.462   2.549  0.00  0.00    +0.089 A 
ATOM     11  C   UNL     1     -37.467  21.479   1.732  0.00  0.00    +0.088 A 
ATOM     12  C   UNL     1     -37.434  22.603   2.564  0.00  0.00    +0.088 A 
ATOM     13  C   UNL     1     -40.652  21.654   0.007  0.00  0.00    +0.348 A 
ATOM     14  C   UNL     1     -40.575  24.320   1.982  0.00  0.00    +0.348 A 
ATOM     15  C   UNL     1     -38.873  20.218   0.002  0.00  0.00    +0.348 A 
ATOM     16  C   UNL     1     -38.743  24.677   3.304  0.00  0.00    +0.348 A 
ENDROOT
BRANCH  11  18
ATOM     17  O   UNL     1     -35.324  20.677   1.031  0.00  0.00    -0.245 OA
ATOM     18  C   UNL     1     -36.353  20.540   1.699  0.00  0.00    +0.338 C 
BRANCH  18  19
ATOM     19  O   UNL     1     -36.560  19.463   2.502  0.00  0.00    -0.477 OA
ATOM     20  H   UNL     1     -37.343  18.955   2.413  0.00  0.00    +0.295 HD
ENDBRANCH  18  19
ENDBRANCH  11  18
BRANCH  12  22
ATOM     21  O   UNL     1     -35.236  23.405   3.062  0.00  0.00    -0.245 OA
ATOM     22  C   UNL     1     -36.285  22.866   3.422  0.00  0.00    +0.338 C 
BRANCH  22  23
ATOM     23  O   UNL     1     -36.488  22.449   4.700  0.00  0.00    -0.477 OA
ATOM     24  H   UNL     1     -35.793  22.039   5.176  0.00  0.00    +0.295 HD
ENDBRANCH  22  23
ENDBRANCH  12  22
TORSDOF 4
ENDMDL
MODEL 6
REMARK VINA RESULT:      -5.7      3.038      5.570
REMARK  Name = 190983
REMARK  4 active torsions:
REMARK  status: ('A' for Active; 'I' for Inactive)
REMARK    1  A    between atoms: C_11  and  C_18
REMARK    2  A    between atoms: C_12  and  C_22
REMARK    3  A    between atoms: C_18  and  O_19
REMARK    4  A    between atoms: C_22  and  O_23
REMARK                            x       y       z     vdW  Elec       q    Type
REMARK                         _______ _______ _______ _____ _____    ______ ____
ROOT
ATOM      1  O   UNL     1     -34.782  29.190   1.961  0.00  0.00    -0.386 OA
ATOM      2  O   UNL     1     -34.537  24.858   5.732  0.00  0.00    -0.386 OA
ATOM      3  O   UNL     1     -33.181  28.815   3.590  0.00  0.00    -0.244 OA
ATOM      4  O   UNL     1     -33.058  26.623   5.500  0.00  0.00    -0.244 OA
ATOM      5  O   UNL     1     -36.638  28.983   0.600  0.00  0.00    -0.244 OA
ATOM      6  O   UNL     1     -36.323  23.421   5.441  0.00  0.00    -0.244 OA
ATOM      7  C   UNL     1     -35.056  27.375   3.231  0.00  0.00    +0.089 A 
ATOM      8  C   UNL     1     -34.998  26.343   4.130  0.00  0.00    +0.089 A 
ATOM      9  C   UNL     1     -36.095  27.424   2.333  0.00  0.00    +0.089 A 
ATOM     10  C   UNL     1     -35.980  25.381   4.110  0.00  0.00    +0.089 A 
ATOM     11  C   UNL     1     -37.103  26.462   2.293  0.00  0.00    +0.088 A 
ATOM     12  C   UNL     1     -37.043  25.408   3.211  0.00  0.00    +0.088 A 
ATOM     13  C   UNL     1     -34.198  28.515   2.999  0.00  0.00    +0.348 A 
ATOM     14  C   UNL     1     -34.057  26.014   5.177  0.00  0.00    +0.348 A 
ATOM     15  C   UNL     1     -35.927  28.597   1.505  0.00  0.00    +0.348 A 
ATOM     16  C   UNL     1     -35.690  24.414   5.145  0.00  0.00    +0.348 A 
ENDROOT
BRANCH  11  18
ATOM     17  O   UNL     1     -39.320  26.984   1.559  0.00  0.00    -0.245 OA
ATOM     18  C   UNL     1     -38.188  26.550   1.325  0.00  0.00    +0.338 C 
BRANCH  18  19
ATOM     19  O   UNL     1     -37.824  26.096   0.097  0.00  0.00    -0.477 OA
ATOM     20  H   UNL     1     -37.603  25.193  -0.023  0.00  0.00    +0.295 HD
ENDBRANCH  18  19
ENDBRANCH  11  18
BRANCH  12  22
ATOM     21  O   UNL     1     -37.964  23.263   2.686  0.00  0.00    -0.245 OA
ATOM     22  C   UNL     1     -38.065  24.369   3.224  0.00  0.00    +0.338 C 
BRANCH  22  23
ATOM     23  O   UNL     1     -39.176  24.745   3.911  0.00  0.00    -0.477 OA
ATOM     24  H   UNL     1     -39.813  25.300   3.506  0.00  0.00    +0.295 HD
ENDBRANCH  22  23
ENDBRANCH  12  22
TORSDOF 4
ENDMDL
MODEL 7
REMARK VINA RESULT:      -5.7      1.570      4.221
REMARK  Name = 190983
REMARK  4 active torsions:
REMARK  status: ('A' for Active; 'I' for Inactive)
REMARK    1  A    between atoms: C_11  and  C_18
REMARK    2  A    between atoms: C_12  and  C_22
REMARK    3  A    between atoms: C_18  and  O_19
REMARK    4  A    between atoms: C_22  and  O_23
REMARK                            x       y       z     vdW  Elec       q    Type
REMARK                         _______ _______ _______ _____ _____    ______ ____
ROOT
ATOM      1  O   UNL     1     -33.033  26.482   1.126  0.00  0.00    -0.386 OA
ATOM      2  O   UNL     1     -35.168  24.612   6.125  0.00  0.00    -0.386 OA
ATOM      3  O   UNL     1     -33.023  27.570   3.169  0.00  0.00    -0.244 OA
ATOM      4  O   UNL     1     -34.106  26.623   5.700  0.00  0.00    -0.244 OA
ATOM      5  O   UNL     1     -33.363  24.916  -0.539  0.00  0.00    -0.244 OA
ATOM      6  O   UNL     1     -36.103  22.512   5.878  0.00  0.00    -0.244 OA
ATOM      7  C   UNL     1     -33.973  25.401   2.837  0.00  0.00    +0.089 A 
ATOM      8  C   UNL     1     -34.483  24.955   4.028  0.00  0.00    +0.089 A 
ATOM      9  C   UNL     1     -34.076  24.602   1.724  0.00  0.00    +0.089 A 
ATOM     10  C   UNL     1     -35.082  23.719   4.080  0.00  0.00    +0.089 A 
ATOM     11  C   UNL     1     -34.680  23.346   1.749  0.00  0.00    +0.088 A 
ATOM     12  C   UNL     1     -35.199  22.890   2.966  0.00  0.00    +0.088 A 
ATOM     13  C   UNL     1     -33.298  26.623   2.462  0.00  0.00    +0.348 A 
ATOM     14  C   UNL     1     -34.532  25.543   5.348  0.00  0.00    +0.348 A 
ATOM     15  C   UNL     1     -33.469  25.294   0.609  0.00  0.00    +0.348 A 
ATOM     16  C   UNL     1     -35.529  23.487   5.435  0.00  0.00    +0.348 A 
ENDROOT
BRANCH  11  18
ATOM     17  O   UNL     1     -35.763  22.432  -0.178  0.00  0.00    -0.245 OA
ATOM     18  C   UNL     1     -34.768  22.529   0.546  0.00  0.00    +0.338 C 
BRANCH  18  19
ATOM     19  O   UNL     1     -33.612  21.863   0.287  0.00  0.00    -0.477 OA
ATOM     20  H   UNL     1     -32.945  21.808   0.943  0.00  0.00    +0.295 HD
ENDBRANCH  18  19
ENDBRANCH  11  18
BRANCH  12  22
ATOM     21  O   UNL     1     -35.258  20.512   3.221  0.00  0.00    -0.245 OA
ATOM     22  C   UNL     1     -35.844  21.587   3.064  0.00  0.00    +0.338 C 
BRANCH  22  23
ATOM     23  O   UNL     1     -37.197  21.670   2.964  0.00  0.00    -0.477 OA
ATOM     24  H   UNL     1     -37.632  21.339   2.203  0.00  0.00    +0.295 HD
ENDBRANCH  22  23
ENDBRANCH  12  22
TORSDOF 4
ENDMDL
MODEL 8
REMARK VINA RESULT:      -5.7      1.205      4.285
REMARK  Name = 190983
REMARK  4 active torsions:
REMARK  status: ('A' for Active; 'I' for Inactive)
REMARK    1  A    between atoms: C_11  and  C_18
REMARK    2  A    between atoms: C_12  and  C_22
REMARK    3  A    between atoms: C_18  and  O_19
REMARK    4  A    between atoms: C_22  and  O_23
REMARK                            x       y       z     vdW  Elec       q    Type
REMARK                         _______ _______ _______ _____ _____    ______ ____
ROOT
ATOM      1  O   UNL     1     -35.339  21.674   4.895  0.00  0.00    -0.386 OA
ATOM      2  O   UNL     1     -36.174  23.520  -0.485  0.00  0.00    -0.386 OA
ATOM      3  O   UNL     1     -35.544  20.401   2.973  0.00  0.00    -0.244 OA
ATOM      4  O   UNL     1     -35.968  21.335   0.249  0.00  0.00    -0.244 OA
ATOM      5  O   UNL     1     -35.221  23.457   6.360  0.00  0.00    -0.244 OA
ATOM      6  O   UNL     1     -36.291  25.827  -0.547  0.00  0.00    -0.244 OA
ATOM      7  C   UNL     1     -35.657  22.789   2.988  0.00  0.00    +0.089 A 
ATOM      8  C   UNL     1     -35.856  23.229   1.706  0.00  0.00    +0.089 A 
ATOM      9  C   UNL     1     -35.560  23.709   4.004  0.00  0.00    +0.089 A 
ATOM     10  C   UNL     1     -35.953  24.580   1.468  0.00  0.00    +0.089 A 
ATOM     11  C   UNL     1     -35.655  25.083   3.790  0.00  0.00    +0.088 A 
ATOM     12  C   UNL     1     -35.858  25.532   2.480  0.00  0.00    +0.088 A 
ATOM     13  C   UNL     1     -35.515  21.466   3.553  0.00  0.00    +0.348 A 
ATOM     14  C   UNL     1     -35.997  22.532   0.447  0.00  0.00    +0.348 A 
ATOM     15  C   UNL     1     -35.354  22.996   5.245  0.00  0.00    +0.348 A 
ATOM     16  C   UNL     1     -36.158  24.779   0.051  0.00  0.00    +0.348 A 
ENDROOT
BRANCH  11  18
ATOM     17  O   UNL     1     -34.512  26.600   5.243  0.00  0.00    -0.245 OA
ATOM     18  C   UNL     1     -35.547  26.025   4.895  0.00  0.00    +0.338 C 
BRANCH  18  19
ATOM     19  O   UNL     1     -36.734  26.220   5.528  0.00  0.00    -0.477 OA
ATOM     20  H   UNL     1     -36.750  26.547   6.406  0.00  0.00    +0.295 HD
ENDBRANCH  18  19
ENDBRANCH  11  18
BRANCH  12  22
ATOM     21  O   UNL     1     -35.016  27.724   2.023  0.00  0.00    -0.245 OA
ATOM     22  C   UNL     1     -35.967  26.955   2.186  0.00  0.00    +0.338 C 
BRANCH  22  23
ATOM     23  O   UNL     1     -37.259  27.368   2.101  0.00  0.00    -0.477 OA
ATOM     24  H   UNL     1     -37.521  28.175   2.501  0.00  0.00    +0.295 HD
ENDBRANCH  22  23
ENDBRANCH  12  22
TORSDOF 4
ENDMDL
MODEL 9
REMARK VINA RESULT:      -5.7      1.255      5.863
REMARK  Name = 190983
REMARK  4 active torsions:
REMARK  status: ('A' for Active; 'I' for Inactive)
REMARK    1  A    between atoms: C_11  and  C_18
REMARK    2  A    between atoms: C_12  and  C_22
REMARK    3  A    between atoms: C_18  and  O_19
REMARK    4  A    between atoms: C_22  and  O_23
REMARK                            x       y       z     vdW  Elec       q    Type
REMARK                         _______ _______ _______ _____ _____    ______ ____
ROOT
ATOM      1  O   UNL     1     -36.419  23.501  -0.512  0.00  0.00    -0.386 OA
ATOM      2  O   UNL     1     -35.320  21.707   4.839  0.00  0.00    -0.386 OA
ATOM      3  O   UNL     1     -36.155  21.324   0.230  0.00  0.00    -0.244 OA
ATOM      4  O   UNL     1     -35.596  20.416   2.939  0.00  0.00    -0.244 OA
ATOM      5  O   UNL     1     -36.567  25.805  -0.585  0.00  0.00    -0.244 OA
ATOM      6  O   UNL     1     -35.157  23.504   6.284  0.00  0.00    -0.244 OA
ATOM      7  C   UNL     1     -35.998  23.231   1.664  0.00  0.00    +0.089 A 
ATOM      8  C   UNL     1     -35.736  22.804   2.939  0.00  0.00    +0.089 A 
ATOM      9  C   UNL     1     -36.122  24.578   1.421  0.00  0.00    +0.089 A 
ATOM     10  C   UNL     1     -35.605  23.733   3.944  0.00  0.00    +0.089 A 
ATOM     11  C   UNL     1     -35.992  25.540   2.421  0.00  0.00    +0.088 A 
ATOM     12  C   UNL     1     -35.726  25.103   3.723  0.00  0.00    +0.088 A 
ATOM     13  C   UNL     1     -36.189  22.523   0.419  0.00  0.00    +0.348 A 
ATOM     14  C   UNL     1     -35.554  21.487   3.507  0.00  0.00    +0.348 A 
ATOM     15  C   UNL     1     -36.395  24.764   0.014  0.00  0.00    +0.348 A 
ATOM     16  C   UNL     1     -35.335  23.033   5.179  0.00  0.00    +0.348 A 
ENDROOT
BRANCH  11  18
ATOM     17  O   UNL     1     -35.196  27.747   1.952  0.00  0.00    -0.245 OA
ATOM     18  C   UNL     1     -36.131  26.959   2.122  0.00  0.00    +0.338 C 
BRANCH  18  19
ATOM     19  O   UNL     1     -37.432  27.346   2.043  0.00  0.00    -0.477 OA
ATOM     20  H   UNL     1     -37.816  27.846   2.737  0.00  0.00    +0.295 HD
ENDBRANCH  18  19
ENDBRANCH  11  18
BRANCH  12  22
ATOM     21  O   UNL     1     -34.532  26.638   5.118  0.00  0.00    -0.245 OA
ATOM     22  C   UNL     1     -35.578  26.056   4.817  0.00  0.00    +0.338 C 
BRANCH  22  23
ATOM     23  O   UNL     1     -36.740  26.251   5.493  0.00  0.00    -0.477 OA
ATOM     24  H   UNL     1     -37.562  26.100   5.068  0.00  0.00    +0.295 HD
ENDBRANCH  22  23
ENDBRANCH  12  22
TORSDOF 4
ENDMDL
