MODEL 1
REMARK VINA RESULT:      -6.0      0.000      0.000
REMARK  Name = 5494430
REMARK  5 active torsions:
REMARK  status: ('A' for Active; 'I' for Inactive)
REMARK    1  A    between atoms: N_2  and  C1*_16
REMARK    2  A    between atoms: C2*_17  and  O2*_20
REMARK    3  A    between atoms: C3*_18  and  O3*_22
REMARK    4  A    between atoms: C4*_19  and  C5*_24
REMARK    5  A    between atoms: C5*_24  and  O5*_25
REMARK                            x       y       z     vdW  Elec       q    Type
REMARK                         _______ _______ _______ _____ _____    ______ ____
ROOT
ATOM      1  S   UNL     1     -31.646  29.841   4.285  0.00  0.00    +0.022 S 
ATOM      2  N   UNL     1     -34.747  25.890   4.610  0.00  0.00    -0.246 N 
ATOM      3  N   UNL     1     -33.224  27.115   5.561  0.00  0.00    -0.237 NA
ATOM      4  N   UNL     1     -34.910  27.092   2.443  0.00  0.00    -0.315 NA
ATOM      5  N   UNL     1     -33.362  29.001   2.377  0.00  0.00    -0.287 NA
ATOM      6  N   UNL     1     -34.762  28.486   0.560  0.00  0.00    -0.283 N 
ATOM      7  C   UNL     1     -34.409  26.878   3.711  0.00  0.00    +0.206 C 
ATOM      8  C   UNL     1     -34.019  26.050   5.725  0.00  0.00    +0.173 C 
ATOM      9  C   UNL     1     -33.435  27.662   4.317  0.00  0.00    +0.215 C 
ATOM     10  C   UNL     1     -32.302  27.567   6.586  0.00  0.00    +0.092 C 
ATOM     11  C   UNL     1     -32.903  28.744   3.635  0.00  0.00    +0.053 C 
ATOM     12  C   UNL     1     -34.322  28.174   1.866  0.00  0.00    +0.205 C 
ATOM     13  H   UNL     1     -35.452  27.933   0.127  0.00  0.00    +0.156 HD
ATOM     14  H   UNL     1     -34.380  29.257   0.082  0.00  0.00    +0.156 HD
ENDROOT
BRANCH   2  16
ATOM     15  O4* UNL     1     -36.002  24.120   5.616  0.00  0.00    -0.333 OA
ATOM     16  C1* UNL     1     -35.737  24.836   4.395  0.00  0.00    +0.225 C 
ATOM     17  C2* UNL     1     -35.271  23.796   3.392  0.00  0.00    +0.187 C 
ATOM     18  C3* UNL     1     -36.079  22.583   3.804  0.00  0.00    +0.171 C 
ATOM     19  C4* UNL     1     -36.092  22.707   5.324  0.00  0.00    +0.175 C 
BRANCH  17  20
ATOM     20  O2* UNL     1     -35.518  24.202   2.060  0.00  0.00    -0.378 OA
ATOM     21  H2* UNL     1     -34.751  24.691   1.724  0.00  0.00    +0.211 HD
ENDBRANCH  17  20
BRANCH  18  22
ATOM     22  O3* UNL     1     -37.415  22.713   3.319  0.00  0.00    -0.379 OA
ATOM     23  H3* UNL     1     -37.618  21.974   2.725  0.00  0.00    +0.211 HD
ENDBRANCH  18  22
BRANCH  19  24
ATOM     24  C5* UNL     1     -34.917  22.003   5.988  0.00  0.00    +0.169 C 
BRANCH  24  25
ATOM     25  O5* UNL     1     -35.131  20.604   5.923  0.00  0.00    -0.379 OA
ATOM     26  H5* UNL     1     -34.667  20.241   5.153  0.00  0.00    +0.211 HD
ENDBRANCH  24  25
ENDBRANCH  19  24
ENDBRANCH   2  16
TORSDOF 5
ENDMDL
MODEL 2
REMARK VINA RESULT:      -5.9      4.655      6.563
REMARK  Name = 5494430
REMARK  5 active torsions:
REMARK  status: ('A' for Active; 'I' for Inactive)
REMARK    1  A    between atoms: N_2  and  C1*_16
REMARK    2  A    between atoms: C2*_17  and  O2*_20
REMARK    3  A    between atoms: C3*_18  and  O3*_22
REMARK    4  A    between atoms: C4*_19  and  C5*_24
REMARK    5  A    between atoms: C5*_24  and  O5*_25
REMARK                            x       y       z     vdW  Elec       q    Type
REMARK                         _______ _______ _______ _____ _____    ______ ____
ROOT
ATOM      1  S   UNL     1     -36.002  21.872  -2.653  0.00  0.00    +0.022 S 
ATOM      2  N   UNL     1     -36.255  22.733   2.300  0.00  0.00    -0.246 N 
ATOM      3  N   UNL     1     -35.906  23.535   0.310  0.00  0.00    -0.237 NA
ATOM      4  N   UNL     1     -36.713  20.370   1.688  0.00  0.00    -0.315 NA
ATOM      5  N   UNL     1     -36.566  20.047  -0.744  0.00  0.00    -0.287 NA
ATOM      6  N   UNL     1     -37.080  18.270   0.707  0.00  0.00    -0.283 N 
ATOM      7  C   UNL     1     -36.404  21.687   1.415  0.00  0.00    +0.206 C 
ATOM      8  C   UNL     1     -35.955  23.844   1.611  0.00  0.00    +0.173 C 
ATOM      9  C   UNL     1     -36.180  22.197   0.143  0.00  0.00    +0.215 C 
ATOM     10  C   UNL     1     -35.604  24.515  -0.716  0.00  0.00    +0.092 C 
ATOM     11  C   UNL     1     -36.264  21.360  -0.957  0.00  0.00    +0.053 C 
ATOM     12  C   UNL     1     -36.769  19.638   0.544  0.00  0.00    +0.205 C 
ATOM     13  H   UNL     1     -37.239  17.904   1.607  0.00  0.00    +0.156 HD
ATOM     14  H   UNL     1     -37.138  17.680  -0.080  0.00  0.00    +0.156 HD
ENDROOT
BRANCH   2  16
ATOM     15  O4* UNL     1     -36.561  23.969   4.326  0.00  0.00    -0.333 OA
ATOM     16  C1* UNL     1     -36.402  22.656   3.752  0.00  0.00    +0.225 C 
ATOM     17  C2* UNL     1     -35.186  22.048   4.429  0.00  0.00    +0.187 C 
ATOM     18  C3* UNL     1     -35.277  22.638   5.821  0.00  0.00    +0.171 C 
ATOM     19  C4* UNL     1     -35.779  24.050   5.539  0.00  0.00    +0.175 C 
BRANCH  17  20
ATOM     20  O2* UNL     1     -35.232  20.635   4.420  0.00  0.00    -0.378 OA
ATOM     21  H2* UNL     1     -35.875  20.337   3.758  0.00  0.00    +0.211 HD
ENDBRANCH  17  20
BRANCH  18  22
ATOM     22  O3* UNL     1     -36.268  21.938   6.571  0.00  0.00    -0.379 OA
ATOM     23  H3* UNL     1     -36.792  21.380   5.975  0.00  0.00    +0.211 HD
ENDBRANCH  18  22
BRANCH  19  24
ATOM     24  C5* UNL     1     -34.651  25.048   5.317  0.00  0.00    +0.169 C 
BRANCH  24  25
ATOM     25  O5* UNL     1     -35.135  26.350   5.597  0.00  0.00    -0.379 OA
ATOM     26  H5* UNL     1     -35.794  26.601   4.931  0.00  0.00    +0.211 HD
ENDBRANCH  24  25
ENDBRANCH  19  24
ENDBRANCH   2  16
TORSDOF 5
ENDMDL
MODEL 3
REMARK VINA RESULT:      -5.6      3.728      6.314
REMARK  Name = 5494430
REMARK  5 active torsions:
REMARK  status: ('A' for Active; 'I' for Inactive)
REMARK    1  A    between atoms: N_2  and  C1*_16
REMARK    2  A    between atoms: C2*_17  and  O2*_20
REMARK    3  A    between atoms: C3*_18  and  O3*_22
REMARK    4  A    between atoms: C4*_19  and  C5*_24
REMARK    5  A    between atoms: C5*_24  and  O5*_25
REMARK                            x       y       z     vdW  Elec       q    Type
REMARK                         _______ _______ _______ _____ _____    ______ ____
ROOT
ATOM      1  S   UNL     1     -38.497  24.652   2.719  0.00  0.00    +0.022 S 
ATOM      2  N   UNL     1     -34.127  26.877   3.852  0.00  0.00    -0.246 N 
ATOM      3  N   UNL     1     -35.946  26.897   2.662  0.00  0.00    -0.237 NA
ATOM      4  N   UNL     1     -34.544  24.807   5.159  0.00  0.00    -0.315 NA
ATOM      5  N   UNL     1     -36.696  23.793   4.538  0.00  0.00    -0.287 NA
ATOM      6  N   UNL     1     -35.305  22.831   6.171  0.00  0.00    -0.283 N 
ATOM      7  C   UNL     1     -34.859  25.770   4.222  0.00  0.00    +0.206 C 
ATOM      8  C   UNL     1     -34.801  27.547   2.906  0.00  0.00    +0.173 C 
ATOM      9  C   UNL     1     -36.021  25.780   3.462  0.00  0.00    +0.215 C 
ATOM     10  C   UNL     1     -36.914  27.358   1.686  0.00  0.00    +0.092 C 
ATOM     11  C   UNL     1     -36.957  24.772   3.625  0.00  0.00    +0.053 C 
ATOM     12  C   UNL     1     -35.525  23.869   5.238  0.00  0.00    +0.205 C 
ATOM     13  H   UNL     1     -34.482  22.819   6.712  0.00  0.00    +0.156 HD
ATOM     14  H   UNL     1     -35.975  22.117   6.281  0.00  0.00    +0.156 HD
ENDROOT
BRANCH   2  16
ATOM     15  O4* UNL     1     -32.936  28.472   5.179  0.00  0.00    -0.333 OA
ATOM     16  C1* UNL     1     -32.827  27.268   4.396  0.00  0.00    +0.225 C 
ATOM     17  C2* UNL     1     -31.807  27.564   3.311  0.00  0.00    +0.187 C 
ATOM     18  C3* UNL     1     -30.857  28.502   4.026  0.00  0.00    +0.171 C 
ATOM     19  C4* UNL     1     -31.808  29.327   4.887  0.00  0.00    +0.175 C 
BRANCH  17  20
ATOM     20  O2* UNL     1     -31.179  26.387   2.845  0.00  0.00    -0.378 OA
ATOM     21  H2* UNL     1     -30.383  26.622   2.342  0.00  0.00    +0.211 HD
ENDBRANCH  17  20
BRANCH  18  22
ATOM     22  O3* UNL     1     -29.997  27.750   4.880  0.00  0.00    -0.379 OA
ATOM     23  H3* UNL     1     -30.347  26.851   4.982  0.00  0.00    +0.211 HD
ENDBRANCH  18  22
BRANCH  19  24
ATOM     24  C5* UNL     1     -32.320  30.574   4.180  0.00  0.00    +0.169 C 
BRANCH  24  25
ATOM     25  O5* UNL     1     -33.691  30.743   4.494  0.00  0.00    -0.379 OA
ATOM     26  H5* UNL     1     -34.234  30.315   3.814  0.00  0.00    +0.211 HD
ENDBRANCH  24  25
ENDBRANCH  19  24
ENDBRANCH   2  16
TORSDOF 5
ENDMDL
MODEL 4
REMARK VINA RESULT:      -5.5      4.195      5.692
REMARK  Name = 5494430
REMARK  5 active torsions:
REMARK  status: ('A' for Active; 'I' for Inactive)
REMARK    1  A    between atoms: N_2  and  C1*_16
REMARK    2  A    between atoms: C2*_17  and  O2*_20
REMARK    3  A    between atoms: C3*_18  and  O3*_22
REMARK    4  A    between atoms: C4*_19  and  C5*_24
REMARK    5  A    between atoms: C5*_24  and  O5*_25
REMARK                            x       y       z     vdW  Elec       q    Type
REMARK                         _______ _______ _______ _____ _____    ______ ____
ROOT
ATOM      1  S   UNL     1     -39.568  25.971  -0.940  0.00  0.00    +0.022 S 
ATOM      2  N   UNL     1     -37.239  23.330   2.656  0.00  0.00    -0.246 N 
ATOM      3  N   UNL     1     -37.354  23.868   0.553  0.00  0.00    -0.237 NA
ATOM      4  N   UNL     1     -39.138  24.685   3.506  0.00  0.00    -0.315 NA
ATOM      5  N   UNL     1     -40.211  25.937   1.682  0.00  0.00    -0.287 NA
ATOM      6  N   UNL     1     -40.977  26.089   3.900  0.00  0.00    -0.283 N 
ATOM      7  C   UNL     1     -38.292  24.209   2.525  0.00  0.00    +0.206 C 
ATOM      8  C   UNL     1     -36.683  23.136   1.450  0.00  0.00    +0.173 C 
ATOM      9  C   UNL     1     -38.368  24.554   1.182  0.00  0.00    +0.215 C 
ATOM     10  C   UNL     1     -37.009  23.887  -0.856  0.00  0.00    +0.092 C 
ATOM     11  C   UNL     1     -39.347  25.435   0.754  0.00  0.00    +0.053 C 
ATOM     12  C   UNL     1     -40.056  25.539   2.980  0.00  0.00    +0.205 C 
ATOM     13  H   UNL     1     -40.927  25.847   4.853  0.00  0.00    +0.156 HD
ATOM     14  H   UNL     1     -41.670  26.716   3.588  0.00  0.00    +0.156 HD
ENDROOT
BRANCH   2  16
ATOM     15  O4* UNL     1     -36.459  23.701   4.887  0.00  0.00    -0.333 OA
ATOM     16  C1* UNL     1     -36.791  22.705   3.899  0.00  0.00    +0.225 C 
ATOM     17  C2* UNL     1     -35.538  21.868   3.712  0.00  0.00    +0.187 C 
ATOM     18  C3* UNL     1     -34.944  21.883   5.105  0.00  0.00    +0.171 C 
ATOM     19  C4* UNL     1     -35.250  23.302   5.570  0.00  0.00    +0.175 C 
BRANCH  17  20
ATOM     20  O2* UNL     1     -35.840  20.566   3.251  0.00  0.00    -0.378 OA
ATOM     21  H2* UNL     1     -36.313  20.079   3.944  0.00  0.00    +0.211 HD
ENDBRANCH  17  20
BRANCH  18  22
ATOM     22  O3* UNL     1     -35.651  20.962   5.935  0.00  0.00    -0.379 OA
ATOM     23  H3* UNL     1     -36.603  21.141   5.879  0.00  0.00    +0.211 HD
ENDBRANCH  18  22
BRANCH  19  24
ATOM     24  C5* UNL     1     -34.149  24.293   5.218  0.00  0.00    +0.169 C 
BRANCH  24  25
ATOM     25  O5* UNL     1     -34.545  25.583   5.650  0.00  0.00    -0.379 OA
ATOM     26  H5* UNL     1     -34.144  25.773   6.512  0.00  0.00    +0.211 HD
ENDBRANCH  24  25
ENDBRANCH  19  24
ENDBRANCH   2  16
TORSDOF 5
ENDMDL
MODEL 5
REMARK VINA RESULT:      -5.5      4.378      6.044
REMARK  Name = 5494430
REMARK  5 active torsions:
REMARK  status: ('A' for Active; 'I' for Inactive)
REMARK    1  A    between atoms: N_2  and  C1*_16
REMARK    2  A    between atoms: C2*_17  and  O2*_20
REMARK    3  A    between atoms: C3*_18  and  O3*_22
REMARK    4  A    between atoms: C4*_19  and  C5*_24
REMARK    5  A    between atoms: C5*_24  and  O5*_25
REMARK                            x       y       z     vdW  Elec       q    Type
REMARK                         _______ _______ _______ _____ _____    ______ ____
ROOT
ATOM      1  S   UNL     1     -41.074  24.637  -0.469  0.00  0.00    +0.022 S 
ATOM      2  N   UNL     1     -37.098  25.452   2.509  0.00  0.00    -0.246 N 
ATOM      3  N   UNL     1     -38.547  26.272   1.111  0.00  0.00    -0.237 NA
ATOM      4  N   UNL     1     -37.882  23.096   2.538  0.00  0.00    -0.315 NA
ATOM      5  N   UNL     1     -39.822  22.795   1.057  0.00  0.00    -0.287 NA
ATOM      6  N   UNL     1     -38.921  21.006   2.287  0.00  0.00    -0.283 N 
ATOM      7  C   UNL     1     -37.924  24.414   2.134  0.00  0.00    +0.206 C 
ATOM      8  C   UNL     1     -37.492  26.569   1.879  0.00  0.00    +0.173 C 
ATOM      9  C   UNL     1     -38.850  24.936   1.240  0.00  0.00    +0.215 C 
ATOM     10  C   UNL     1     -39.220  27.261   0.291  0.00  0.00    +0.092 C 
ATOM     11  C   UNL     1     -39.817  24.109   0.693  0.00  0.00    +0.053 C 
ATOM     12  C   UNL     1     -38.870  22.375   1.944  0.00  0.00    +0.205 C 
ATOM     13  H   UNL     1     -38.266  20.632   2.921  0.00  0.00    +0.156 HD
ATOM     14  H   UNL     1     -39.611  20.424   1.894  0.00  0.00    +0.156 HD
ENDROOT
BRANCH   2  16
ATOM     15  O4* UNL     1     -35.232  24.144   3.237  0.00  0.00    -0.333 OA
ATOM     16  C1* UNL     1     -35.976  25.362   3.441  0.00  0.00    +0.225 C 
ATOM     17  C2* UNL     1     -36.423  25.342   4.891  0.00  0.00    +0.187 C 
ATOM     18  C3* UNL     1     -35.266  24.633   5.563  0.00  0.00    +0.171 C 
ATOM     19  C4* UNL     1     -34.883  23.585   4.524  0.00  0.00    +0.175 C 
BRANCH  17  20
ATOM     20  O2* UNL     1     -36.642  26.646   5.392  0.00  0.00    -0.378 OA
ATOM     21  H2* UNL     1     -37.021  26.590   6.283  0.00  0.00    +0.211 HD
ENDBRANCH  17  20
BRANCH  18  22
ATOM     22  O3* UNL     1     -34.179  25.542   5.724  0.00  0.00    -0.379 OA
ATOM     23  H3* UNL     1     -33.353  25.111   5.454  0.00  0.00    +0.211 HD
ENDBRANCH  18  22
BRANCH  19  24
ATOM     24  C5* UNL     1     -35.634  22.273   4.697  0.00  0.00    +0.169 C 
BRANCH  24  25
ATOM     25  O5* UNL     1     -36.020  22.147   6.055  0.00  0.00    -0.379 OA
ATOM     26  H5* UNL     1     -35.230  22.052   6.608  0.00  0.00    +0.211 HD
ENDBRANCH  24  25
ENDBRANCH  19  24
ENDBRANCH   2  16
TORSDOF 5
ENDMDL
MODEL 6
REMARK VINA RESULT:      -5.4      4.497      6.180
REMARK  Name = 5494430
REMARK  5 active torsions:
REMARK  status: ('A' for Active; 'I' for Inactive)
REMARK    1  A    between atoms: N_2  and  C1*_16
REMARK    2  A    between atoms: C2*_17  and  O2*_20
REMARK    3  A    between atoms: C3*_18  and  O3*_22
REMARK    4  A    between atoms: C4*_19  and  C5*_24
REMARK    5  A    between atoms: C5*_24  and  O5*_25
REMARK                            x       y       z     vdW  Elec       q    Type
REMARK                         _______ _______ _______ _____ _____    ______ ____
ROOT
ATOM      1  S   UNL     1     -37.807  23.727  -2.566  0.00  0.00    +0.022 S 
ATOM      2  N   UNL     1     -36.674  23.301   2.320  0.00  0.00    -0.246 N 
ATOM      3  N   UNL     1     -36.102  24.041   0.358  0.00  0.00    -0.237 NA
ATOM      4  N   UNL     1     -38.835  22.237   1.715  0.00  0.00    -0.315 NA
ATOM      5  N   UNL     1     -39.302  22.496  -0.684  0.00  0.00    -0.287 NA
ATOM      6  N   UNL     1     -40.787  21.367   0.746  0.00  0.00    -0.283 N 
ATOM      7  C   UNL     1     -37.676  22.936   1.447  0.00  0.00    +0.206 C 
ATOM      8  C   UNL     1     -35.730  23.970   1.642  0.00  0.00    +0.173 C 
ATOM      9  C   UNL     1     -37.312  23.407   0.192  0.00  0.00    +0.215 C 
ATOM     10  C   UNL     1     -35.300  24.703  -0.653  0.00  0.00    +0.092 C 
ATOM     11  C   UNL     1     -38.142  23.182  -0.893  0.00  0.00    +0.053 C 
ATOM     12  C   UNL     1     -39.574  22.072   0.586  0.00  0.00    +0.205 C 
ATOM     13  H   UNL     1     -41.049  21.031   1.634  0.00  0.00    +0.156 HD
ATOM     14  H   UNL     1     -41.373  21.211  -0.030  0.00  0.00    +0.156 HD
ENDROOT
BRANCH   2  16
ATOM     15  O4* UNL     1     -36.655  24.231   4.524  0.00  0.00    -0.333 OA
ATOM     16  C1* UNL     1     -36.638  23.014   3.753  0.00  0.00    +0.225 C 
ATOM     17  C2* UNL     1     -35.378  22.274   4.166  0.00  0.00    +0.187 C 
ATOM     18  C3* UNL     1     -35.260  22.653   5.628  0.00  0.00    +0.171 C 
ATOM     19  C4* UNL     1     -35.721  24.107   5.621  0.00  0.00    +0.175 C 
BRANCH  17  20
ATOM     20  O2* UNL     1     -35.496  20.880   3.961  0.00  0.00    -0.378 OA
ATOM     21  H2* UNL     1     -34.745  20.567   3.433  0.00  0.00    +0.211 HD
ENDBRANCH  17  20
BRANCH  18  22
ATOM     22  O3* UNL     1     -36.182  21.880   6.396  0.00  0.00    -0.379 OA
ATOM     23  H3* UNL     1     -36.382  22.344   7.224  0.00  0.00    +0.211 HD
ENDBRANCH  18  22
BRANCH  19  24
ATOM     24  C5* UNL     1     -34.582  25.090   5.396  0.00  0.00    +0.169 C 
BRANCH  24  25
ATOM     25  O5* UNL     1     -35.103  26.407   5.442  0.00  0.00    -0.379 OA
ATOM     26  H5* UNL     1     -35.735  26.531   4.717  0.00  0.00    +0.211 HD
ENDBRANCH  24  25
ENDBRANCH  19  24
ENDBRANCH   2  16
TORSDOF 5
ENDMDL
MODEL 7
REMARK VINA RESULT:      -5.4      4.315      6.405
REMARK  Name = 5494430
REMARK  5 active torsions:
REMARK  status: ('A' for Active; 'I' for Inactive)
REMARK    1  A    between atoms: N_2  and  C1*_16
REMARK    2  A    between atoms: C2*_17  and  O2*_20
REMARK    3  A    between atoms: C3*_18  and  O3*_22
REMARK    4  A    between atoms: C4*_19  and  C5*_24
REMARK    5  A    between atoms: C5*_24  and  O5*_25
REMARK                            x       y       z     vdW  Elec       q    Type
REMARK                         _______ _______ _______ _____ _____    ______ ____
ROOT
ATOM      1  S   UNL     1     -35.580  19.968  -0.859  0.00  0.00    +0.022 S 
ATOM      2  N   UNL     1     -35.607  23.982   2.178  0.00  0.00    -0.246 N 
ATOM      3  N   UNL     1     -34.545  22.815   0.682  0.00  0.00    -0.237 NA
ATOM      4  N   UNL     1     -37.670  22.610   2.343  0.00  0.00    -0.315 NA
ATOM      5  N   UNL     1     -37.565  20.677   0.828  0.00  0.00    -0.287 NA
ATOM      6  N   UNL     1     -39.432  21.066   2.203  0.00  0.00    -0.283 N 
ATOM      7  C   UNL     1     -36.419  22.919   1.849  0.00  0.00    +0.206 C 
ATOM      8  C   UNL     1     -34.476  23.901   1.461  0.00  0.00    +0.173 C 
ATOM      9  C   UNL     1     -35.742  22.171   0.894  0.00  0.00    +0.215 C 
ATOM     10  C   UNL     1     -33.479  22.434  -0.224  0.00  0.00    +0.092 C 
ATOM     11  C   UNL     1     -36.329  21.029   0.374  0.00  0.00    +0.053 C 
ATOM     12  C   UNL     1     -38.152  21.476   1.769  0.00  0.00    +0.205 C 
ATOM     13  H   UNL     1     -39.916  21.593   2.880  0.00  0.00    +0.156 HD
ATOM     14  H   UNL     1     -39.843  20.253   1.829  0.00  0.00    +0.156 HD
ENDROOT
BRANCH   2  16
ATOM     15  O4* UNL     1     -35.262  26.266   2.797  0.00  0.00    -0.333 OA
ATOM     16  C1* UNL     1     -35.917  25.031   3.147  0.00  0.00    +0.225 C 
ATOM     17  C2* UNL     1     -35.443  24.688   4.548  0.00  0.00    +0.187 C 
ATOM     18  C3* UNL     1     -35.280  26.062   5.166  0.00  0.00    +0.171 C 
ATOM     19  C4* UNL     1     -34.737  26.877   3.998  0.00  0.00    +0.175 C 
BRANCH  17  20
ATOM     20  O2* UNL     1     -36.376  23.877   5.234  0.00  0.00    -0.378 OA
ATOM     21  H2* UNL     1     -37.242  23.947   4.804  0.00  0.00    +0.211 HD
ENDBRANCH  17  20
BRANCH  18  22
ATOM     22  O3* UNL     1     -36.561  26.574   5.531  0.00  0.00    -0.379 OA
ATOM     23  H3* UNL     1     -36.471  27.146   6.309  0.00  0.00    +0.211 HD
ENDBRANCH  18  22
BRANCH  19  24
ATOM     24  C5* UNL     1     -33.217  26.862   3.918  0.00  0.00    +0.169 C 
BRANCH  24  25
ATOM     25  O5* UNL     1     -32.692  27.020   5.225  0.00  0.00    -0.379 OA
ATOM     26  H5* UNL     1     -31.755  27.262   5.171  0.00  0.00    +0.211 HD
ENDBRANCH  24  25
ENDBRANCH  19  24
ENDBRANCH   2  16
TORSDOF 5
ENDMDL
MODEL 8
REMARK VINA RESULT:      -5.3      5.231      7.296
REMARK  Name = 5494430
REMARK  5 active torsions:
REMARK  status: ('A' for Active; 'I' for Inactive)
REMARK    1  A    between atoms: N_2  and  C1*_16
REMARK    2  A    between atoms: C2*_17  and  O2*_20
REMARK    3  A    between atoms: C3*_18  and  O3*_22
REMARK    4  A    between atoms: C4*_19  and  C5*_24
REMARK    5  A    between atoms: C5*_24  and  O5*_25
REMARK                            x       y       z     vdW  Elec       q    Type
REMARK                         _______ _______ _______ _____ _____    ______ ____
ROOT
ATOM      1  S   UNL     1     -37.187  18.199  -0.989  0.00  0.00    +0.022 S 
ATOM      2  N   UNL     1     -36.525  21.872   2.389  0.00  0.00    -0.246 N 
ATOM      3  N   UNL     1     -35.667  20.194   1.305  0.00  0.00    -0.237 NA
ATOM      4  N   UNL     1     -38.816  21.817   1.433  0.00  0.00    -0.315 NA
ATOM      5  N   UNL     1     -39.044  19.995  -0.201  0.00  0.00    -0.287 NA
ATOM      6  N   UNL     1     -40.837  21.429   0.304  0.00  0.00    -0.283 N 
ATOM      7  C   UNL     1     -37.517  21.373   1.573  0.00  0.00    +0.206 C 
ATOM      8  C   UNL     1     -35.411  21.144   2.213  0.00  0.00    +0.173 C 
ATOM      9  C   UNL     1     -36.971  20.301   0.880  0.00  0.00    +0.215 C 
ATOM     10  C   UNL     1     -34.670  19.229   0.881  0.00  0.00    +0.092 C 
ATOM     11  C   UNL     1     -37.751  19.599  -0.025  0.00  0.00    +0.053 C 
ATOM     12  C   UNL     1     -39.491  21.062   0.526  0.00  0.00    +0.205 C 
ATOM     13  H   UNL     1     -41.228  22.189   0.793  0.00  0.00    +0.156 HD
ATOM     14  H   UNL     1     -41.385  20.926  -0.341  0.00  0.00    +0.156 HD
ENDROOT
BRANCH   2  16
ATOM     15  O4* UNL     1     -36.373  24.248   2.623  0.00  0.00    -0.333 OA
ATOM     16  C1* UNL     1     -36.653  23.007   3.300  0.00  0.00    +0.225 C 
ATOM     17  C2* UNL     1     -35.677  22.935   4.462  0.00  0.00    +0.187 C 
ATOM     18  C3* UNL     1     -35.542  24.394   4.845  0.00  0.00    +0.171 C 
ATOM     19  C4* UNL     1     -35.577  25.088   3.488  0.00  0.00    +0.175 C 
BRANCH  17  20
ATOM     20  O2* UNL     1     -36.168  22.127   5.512  0.00  0.00    -0.378 OA
ATOM     21  H2* UNL     1     -36.995  22.505   5.850  0.00  0.00    +0.211 HD
ENDBRANCH  17  20
BRANCH  18  22
ATOM     22  O3* UNL     1     -36.686  24.795   5.598  0.00  0.00    -0.379 OA
ATOM     23  H3* UNL     1     -37.492  24.577   5.105  0.00  0.00    +0.211 HD
ENDBRANCH  18  22
BRANCH  19  24
ATOM     24  C5* UNL     1     -34.196  25.246   2.866  0.00  0.00    +0.169 C 
BRANCH  24  25
ATOM     25  O5* UNL     1     -33.236  25.319   3.906  0.00  0.00    -0.379 OA
ATOM     26  H5* UNL     1     -32.512  24.701   3.721  0.00  0.00    +0.211 HD
ENDBRANCH  24  25
ENDBRANCH  19  24
ENDBRANCH   2  16
TORSDOF 5
ENDMDL
MODEL 9
REMARK VINA RESULT:      -5.2      4.742      6.628
REMARK  Name = 5494430
REMARK  5 active torsions:
REMARK  status: ('A' for Active; 'I' for Inactive)
REMARK    1  A    between atoms: N_2  and  C1*_16
REMARK    2  A    between atoms: C2*_17  and  O2*_20
REMARK    3  A    between atoms: C3*_18  and  O3*_22
REMARK    4  A    between atoms: C4*_19  and  C5*_24
REMARK    5  A    between atoms: C5*_24  and  O5*_25
REMARK                            x       y       z     vdW  Elec       q    Type
REMARK                         _______ _______ _______ _____ _____    ______ ____
ROOT
ATOM      1  S   UNL     1     -32.687  19.927  -1.221  0.00  0.00    +0.022 S 
ATOM      2  N   UNL     1     -35.529  23.211   1.323  0.00  0.00    -0.246 N 
ATOM      3  N   UNL     1     -33.716  22.848   0.179  0.00  0.00    -0.237 NA
ATOM      4  N   UNL     1     -36.497  20.925   1.246  0.00  0.00    -0.315 NA
ATOM      5  N   UNL     1     -35.043  19.396  -0.013  0.00  0.00    -0.287 NA
ATOM      6  N   UNL     1     -37.062  18.667   0.945  0.00  0.00    -0.283 N 
ATOM      7  C   UNL     1     -35.543  21.881   0.963  0.00  0.00    +0.206 C 
ATOM      8  C   UNL     1     -34.415  23.780   0.840  0.00  0.00    +0.173 C 
ATOM      9  C   UNL     1     -34.385  21.647   0.232  0.00  0.00    +0.215 C 
ATOM     10  C   UNL     1     -32.451  23.133  -0.470  0.00  0.00    +0.092 C 
ATOM     11  C   UNL     1     -34.132  20.379  -0.265  0.00  0.00    +0.053 C 
ATOM     12  C   UNL     1     -36.152  19.723   0.714  0.00  0.00    +0.205 C 
ATOM     13  H   UNL     1     -37.884  18.829   1.463  0.00  0.00    +0.156 HD
ATOM     14  H   UNL     1     -36.876  17.768   0.589  0.00  0.00    +0.156 HD
ENDROOT
BRANCH   2  16
ATOM     15  O4* UNL     1     -36.527  25.318   1.855  0.00  0.00    -0.333 OA
ATOM     16  C1* UNL     1     -36.555  23.900   2.104  0.00  0.00    +0.225 C 
ATOM     17  C2* UNL     1     -36.359  23.732   3.600  0.00  0.00    +0.187 C 
ATOM     18  C3* UNL     1     -37.060  24.959   4.144  0.00  0.00    +0.171 C 
ATOM     19  C4* UNL     1     -36.704  26.019   3.107  0.00  0.00    +0.175 C 
BRANCH  17  20
ATOM     20  O2* UNL     1     -36.915  22.520   4.071  0.00  0.00    -0.378 OA
ATOM     21  H2* UNL     1     -36.476  21.773   3.635  0.00  0.00    +0.211 HD
ENDBRANCH  17  20
BRANCH  18  22
ATOM     22  O3* UNL     1     -38.471  24.750   4.125  0.00  0.00    -0.379 OA
ATOM     23  H3* UNL     1     -38.922  25.593   3.960  0.00  0.00    +0.211 HD
ENDBRANCH  18  22
BRANCH  19  24
ATOM     24  C5* UNL     1     -35.413  26.758   3.431  0.00  0.00    +0.169 C 
BRANCH  24  25
ATOM     25  O5* UNL     1     -35.366  27.000   4.826  0.00  0.00    -0.379 OA
ATOM     26  H5* UNL     1     -35.554  27.935   4.999  0.00  0.00    +0.211 HD
ENDBRANCH  24  25
ENDBRANCH  19  24
ENDBRANCH   2  16
TORSDOF 5
ENDMDL
