MODEL 1
REMARK VINA RESULT:      -6.7      0.000      0.000
REMARK  Name = 5491960
REMARK  7 active torsions:
REMARK  status: ('A' for Active; 'I' for Inactive)
REMARK    1  A    between atoms: C_5  and  C_18
REMARK    2  A    between atoms: C_9  and  N_17
REMARK    3  A    between atoms: C_18  and  N_19
REMARK    4  A    between atoms: N_19  and  C_22
REMARK    5  A    between atoms: C_22  and  P_23
REMARK    6  A    between atoms: P_23  and  O_25
REMARK    7  A    between atoms: P_23  and  O_27
REMARK                            x       y       z     vdW  Elec       q    Type
REMARK                         _______ _______ _______ _____ _____    ______ ____
ROOT
ATOM      1  O   UNL     1     -39.802  24.173   3.029  0.00  0.00    -0.262 OA
ATOM      2  O   UNL     1     -39.452  26.497   1.809  0.00  0.00    -0.262 OA
ATOM      3  N   UNL     1     -37.711  24.298   4.003  0.00  0.00    -0.316 N 
ATOM      4  N   UNL     1     -37.345  26.732   2.727  0.00  0.00    -0.316 N 
ATOM      5  C   UNL     1     -35.509  24.475   5.000  0.00  0.00    -0.025 C 
ATOM      6  C   UNL     1     -36.512  24.998   4.184  0.00  0.00    +0.069 A 
ATOM      7  C   UNL     1     -36.329  26.220   3.542  0.00  0.00    +0.076 A 
ATOM      8  C   UNL     1     -34.319  25.184   5.171  0.00  0.00    +0.019 C 
ATOM      9  C   UNL     1     -34.135  26.409   4.527  0.00  0.00    +0.144 C 
ATOM     10  C   UNL     1     -35.140  26.931   3.712  0.00  0.00    +0.043 C 
ATOM     11  C   UNL     1     -38.741  24.757   3.211  0.00  0.00    +0.314 A 
ATOM     12  C   UNL     1     -38.541  26.082   2.516  0.00  0.00    +0.314 A 
ATOM     13  H   UNL     1     -37.822  23.436   4.464  0.00  0.00    +0.169 HD
ATOM     14  H   UNL     1     -37.197  27.597   2.282  0.00  0.00    +0.169 HD
ENDROOT
BRANCH   9  17
ATOM     15  O   UNL     1     -32.790  27.854   5.717  0.00  0.00    -0.126 OA
ATOM     16  O   UNL     1     -32.016  27.011   3.844  0.00  0.00    -0.126 OA
ATOM     17  N   UNL     1     -32.922  27.126   4.705  0.00  0.00    +0.058 N 
ENDBRANCH   9  17
BRANCH   5  18
ATOM     18  C   UNL     1     -35.665  23.167   5.706  0.00  0.00    -0.052 C 
BRANCH  18  19
ATOM     19  N   UNL     1     -36.204  22.125   4.832  0.00  0.00    +0.394 N 
ATOM     20  H   UNL     1     -36.820  22.553   4.140  0.00  0.00    -0.083 HD
ATOM     21  H   UNL     1     -36.721  21.455   5.399  0.00  0.00    -0.083 HD
BRANCH  19  22
ATOM     22  C   UNL     1     -35.129  21.428   4.146  0.00  0.00    +0.038 C 
BRANCH  22  23
ATOM     23  P   UNL     1     -35.805  21.130   2.522  0.00  0.00    +0.316 P 
ATOM     24  O   UNL     1     -36.505  22.321   1.933  0.00  0.00    -0.260 OA
BRANCH  23  25
ATOM     25  O   UNL     1     -36.740  19.822   2.699  0.00  0.00    -0.325 OA
ATOM     26  H   UNL     1     -37.021  19.505   1.827  0.00  0.00    +0.220 HD
ENDBRANCH  23  25
BRANCH  23  27
ATOM     27  O   UNL     1     -34.553  20.590   1.650  0.00  0.00    -0.325 OA
ATOM     28  H   UNL     1     -34.877  20.000   0.951  0.00  0.00    +0.220 HD
ENDBRANCH  23  27
ENDBRANCH  22  23
ENDBRANCH  19  22
ENDBRANCH  18  19
ENDBRANCH   5  18
TORSDOF 7
ENDMDL
MODEL 2
REMARK VINA RESULT:      -6.5      1.500      1.891
REMARK  Name = 5491960
REMARK  7 active torsions:
REMARK  status: ('A' for Active; 'I' for Inactive)
REMARK    1  A    between atoms: C_5  and  C_18
REMARK    2  A    between atoms: C_9  and  N_17
REMARK    3  A    between atoms: C_18  and  N_19
REMARK    4  A    between atoms: N_19  and  C_22
REMARK    5  A    between atoms: C_22  and  P_23
REMARK    6  A    between atoms: P_23  and  O_25
REMARK    7  A    between atoms: P_23  and  O_27
REMARK                            x       y       z     vdW  Elec       q    Type
REMARK                         _______ _______ _______ _____ _____    ______ ____
ROOT
ATOM      1  O   UNL     1     -40.138  23.425   2.348  0.00  0.00    -0.262 OA
ATOM      2  O   UNL     1     -40.350  26.043   2.680  0.00  0.00    -0.262 OA
ATOM      3  N   UNL     1     -37.979  23.433   3.170  0.00  0.00    -0.316 N 
ATOM      4  N   UNL     1     -38.202  26.173   3.520  0.00  0.00    -0.316 N 
ATOM      5  C   UNL     1     -35.717  23.492   4.038  0.00  0.00    -0.025 C 
ATOM      6  C   UNL     1     -36.898  24.151   3.694  0.00  0.00    +0.069 A 
ATOM      7  C   UNL     1     -37.011  25.527   3.870  0.00  0.00    +0.076 A 
ATOM      8  C   UNL     1     -34.648  24.221   4.560  0.00  0.00    +0.019 C 
ATOM      9  C   UNL     1     -34.760  25.602   4.735  0.00  0.00    +0.144 C 
ATOM     10  C   UNL     1     -35.943  26.259   4.391  0.00  0.00    +0.043 C 
ATOM     11  C   UNL     1     -39.172  24.020   2.809  0.00  0.00    +0.314 A 
ATOM     12  C   UNL     1     -39.292  25.512   2.999  0.00  0.00    +0.314 A 
ATOM     13  H   UNL     1     -37.881  22.460   3.053  0.00  0.00    +0.169 HD
ATOM     14  H   UNL     1     -38.263  27.147   3.651  0.00  0.00    +0.169 HD
ENDROOT
BRANCH   9  17
ATOM     15  O   UNL     1     -33.665  26.624   6.488  0.00  0.00    -0.126 OA
ATOM     16  O   UNL     1     -32.737  26.684   4.500  0.00  0.00    -0.126 OA
ATOM     17  N   UNL     1     -33.669  26.339   5.266  0.00  0.00    +0.058 N 
ENDBRANCH   9  17
BRANCH   5  18
ATOM     18  C   UNL     1     -35.555  22.017   3.866  0.00  0.00    -0.052 C 
BRANCH  18  19
ATOM     19  N   UNL     1     -35.218  21.653   2.490  0.00  0.00    +0.394 N 
ATOM     20  H   UNL     1     -34.204  21.662   2.379  0.00  0.00    -0.083 HD
ATOM     21  H   UNL     1     -35.649  22.325   1.857  0.00  0.00    -0.083 HD
BRANCH  19  22
ATOM     22  C   UNL     1     -35.719  20.325   2.175  0.00  0.00    +0.038 C 
BRANCH  22  23
ATOM     23  P   UNL     1     -37.114  20.655   1.113  0.00  0.00    +0.316 P 
ATOM     24  O   UNL     1     -37.284  19.650   0.012  0.00  0.00    -0.260 OA
BRANCH  23  25
ATOM     25  O   UNL     1     -36.894  22.175   0.606  0.00  0.00    -0.325 OA
ATOM     26  H   UNL     1     -37.408  22.324  -0.202  0.00  0.00    +0.220 HD
ENDBRANCH  23  25
BRANCH  23  27
ATOM     27  O   UNL     1     -38.377  20.767   2.119  0.00  0.00    -0.325 OA
ATOM     28  H   UNL     1     -38.159  20.334   2.960  0.00  0.00    +0.220 HD
ENDBRANCH  23  27
ENDBRANCH  22  23
ENDBRANCH  19  22
ENDBRANCH  18  19
ENDBRANCH   5  18
TORSDOF 7
ENDMDL
MODEL 3
REMARK VINA RESULT:      -6.4      3.408      6.054
REMARK  Name = 5491960
REMARK  7 active torsions:
REMARK  status: ('A' for Active; 'I' for Inactive)
REMARK    1  A    between atoms: C_5  and  C_18
REMARK    2  A    between atoms: C_9  and  N_17
REMARK    3  A    between atoms: C_18  and  N_19
REMARK    4  A    between atoms: N_19  and  C_22
REMARK    5  A    between atoms: C_22  and  P_23
REMARK    6  A    between atoms: P_23  and  O_25
REMARK    7  A    between atoms: P_23  and  O_27
REMARK                            x       y       z     vdW  Elec       q    Type
REMARK                         _______ _______ _______ _____ _____    ______ ____
ROOT
ATOM      1  O   UNL     1     -40.258  22.765   2.356  0.00  0.00    -0.262 OA
ATOM      2  O   UNL     1     -40.690  21.126   0.323  0.00  0.00    -0.262 OA
ATOM      3  N   UNL     1     -38.080  22.026   2.570  0.00  0.00    -0.316 N 
ATOM      4  N   UNL     1     -38.532  20.310   0.440  0.00  0.00    -0.316 N 
ATOM      5  C   UNL     1     -35.803  21.217   2.756  0.00  0.00    -0.025 C 
ATOM      6  C   UNL     1     -37.049  21.189   2.128  0.00  0.00    +0.069 A 
ATOM      7  C   UNL     1     -37.277  20.327   1.059  0.00  0.00    +0.076 A 
ATOM      8  C   UNL     1     -34.784  20.376   2.304  0.00  0.00    +0.019 C 
ATOM      9  C   UNL     1     -35.013  19.512   1.232  0.00  0.00    +0.144 C 
ATOM     10  C   UNL     1     -36.260  19.485   0.606  0.00  0.00    +0.043 C 
ATOM     11  C   UNL     1     -39.332  22.048   1.997  0.00  0.00    +0.314 A 
ATOM     12  C   UNL     1     -39.578  21.113   0.838  0.00  0.00    +0.314 A 
ATOM     13  H   UNL     1     -37.900  22.628   3.328  0.00  0.00    +0.169 HD
ATOM     14  H   UNL     1     -38.674  19.695  -0.314  0.00  0.00    +0.169 HD
ENDROOT
BRANCH   9  17
ATOM     15  O   UNL     1     -34.075  18.126  -0.354  0.00  0.00    -0.126 OA
ATOM     16  O   UNL     1     -32.980  18.461   1.519  0.00  0.00    -0.126 OA
ATOM     17  N   UNL     1     -33.973  18.659   0.777  0.00  0.00    +0.058 N 
ENDBRANCH   9  17
BRANCH   5  18
ATOM     18  C   UNL     1     -35.516  22.126   3.906  0.00  0.00    -0.052 C 
BRANCH  18  19
ATOM     19  N   UNL     1     -35.132  23.469   3.470  0.00  0.00    +0.394 N 
ATOM     20  H   UNL     1     -35.776  23.782   2.743  0.00  0.00    -0.083 HD
ATOM     21  H   UNL     1     -34.179  23.437   3.109  0.00  0.00    -0.083 HD
BRANCH  19  22
ATOM     22  C   UNL     1     -35.181  24.401   4.584  0.00  0.00    +0.038 C 
BRANCH  22  23
ATOM     23  P   UNL     1     -36.471  25.539   4.110  0.00  0.00    +0.316 P 
ATOM     24  O   UNL     1     -36.278  26.133   2.744  0.00  0.00    -0.260 OA
BRANCH  23  25
ATOM     25  O   UNL     1     -36.527  26.622   5.310  0.00  0.00    -0.325 OA
ATOM     26  H   UNL     1     -35.630  26.783   5.642  0.00  0.00    +0.220 HD
ENDBRANCH  23  25
BRANCH  23  27
ATOM     27  O   UNL     1     -37.843  24.700   4.287  0.00  0.00    -0.325 OA
ATOM     28  H   UNL     1     -38.307  24.655   3.436  0.00  0.00    +0.220 HD
ENDBRANCH  23  27
ENDBRANCH  22  23
ENDBRANCH  19  22
ENDBRANCH  18  19
ENDBRANCH   5  18
TORSDOF 7
ENDMDL
MODEL 4
REMARK VINA RESULT:      -6.3      3.549      7.117
REMARK  Name = 5491960
REMARK  7 active torsions:
REMARK  status: ('A' for Active; 'I' for Inactive)
REMARK    1  A    between atoms: C_5  and  C_18
REMARK    2  A    between atoms: C_9  and  N_17
REMARK    3  A    between atoms: C_18  and  N_19
REMARK    4  A    between atoms: N_19  and  C_22
REMARK    5  A    between atoms: C_22  and  P_23
REMARK    6  A    between atoms: P_23  and  O_25
REMARK    7  A    between atoms: P_23  and  O_27
REMARK                            x       y       z     vdW  Elec       q    Type
REMARK                         _______ _______ _______ _____ _____    ______ ____
ROOT
ATOM      1  O   UNL     1     -32.771  18.717   1.397  0.00  0.00    -0.262 OA
ATOM      2  O   UNL     1     -34.220  17.633  -0.535  0.00  0.00    -0.262 OA
ATOM      3  N   UNL     1     -34.526  20.077   2.036  0.00  0.00    -0.316 N 
ATOM      4  N   UNL     1     -36.044  18.941   0.014  0.00  0.00    -0.316 N 
ATOM      5  C   UNL     1     -36.395  21.483   2.669  0.00  0.00    -0.025 C 
ATOM      6  C   UNL     1     -35.847  20.498   1.846  0.00  0.00    +0.069 A 
ATOM      7  C   UNL     1     -36.609  19.927   0.831  0.00  0.00    +0.076 A 
ATOM      8  C   UNL     1     -37.714  21.893   2.467  0.00  0.00    +0.019 C 
ATOM      9  C   UNL     1     -38.478  21.321   1.449  0.00  0.00    +0.144 C 
ATOM     10  C   UNL     1     -37.928  20.336   0.627  0.00  0.00    +0.043 C 
ATOM     11  C   UNL     1     -33.922  19.111   1.261  0.00  0.00    +0.314 A 
ATOM     12  C   UNL     1     -34.749  18.493   0.160  0.00  0.00    +0.314 A 
ATOM     13  H   UNL     1     -34.002  20.492   2.759  0.00  0.00    +0.169 HD
ATOM     14  H   UNL     1     -36.598  18.549  -0.699  0.00  0.00    +0.169 HD
ENDROOT
BRANCH   9  17
ATOM     15  O   UNL     1     -40.661  20.911   0.834  0.00  0.00    -0.126 OA
ATOM     16  O   UNL     1     -40.125  22.935   1.492  0.00  0.00    -0.126 OA
ATOM     17  N   UNL     1     -39.819  21.743   1.248  0.00  0.00    +0.058 N 
ENDBRANCH   9  17
BRANCH   5  18
ATOM     18  C   UNL     1     -35.612  22.121   3.770  0.00  0.00    -0.052 C 
BRANCH  18  19
ATOM     19  N   UNL     1     -36.469  22.831   4.719  0.00  0.00    +0.394 N 
ATOM     20  H   UNL     1     -36.720  22.201   5.481  0.00  0.00    -0.083 HD
ATOM     21  H   UNL     1     -37.306  23.150   4.233  0.00  0.00    -0.083 HD
BRANCH  19  22
ATOM     22  C   UNL     1     -35.777  23.987   5.266  0.00  0.00    +0.038 C 
BRANCH  22  23
ATOM     23  P   UNL     1     -36.511  25.356   4.390  0.00  0.00    +0.316 P 
ATOM     24  O   UNL     1     -35.805  25.702   3.111  0.00  0.00    -0.260 OA
BRANCH  23  25
ATOM     25  O   UNL     1     -36.564  26.557   5.472  0.00  0.00    -0.325 OA
ATOM     26  H   UNL     1     -37.343  26.449   6.038  0.00  0.00    +0.220 HD
ENDBRANCH  23  25
BRANCH  23  27
ATOM     27  O   UNL     1     -38.064  24.939   4.206  0.00  0.00    -0.325 OA
ATOM     28  H   UNL     1     -38.451  24.744   5.074  0.00  0.00    +0.220 HD
ENDBRANCH  23  27
ENDBRANCH  22  23
ENDBRANCH  19  22
ENDBRANCH  18  19
ENDBRANCH   5  18
TORSDOF 7
ENDMDL
MODEL 5
REMARK VINA RESULT:      -6.3      2.247      4.940
REMARK  Name = 5491960
REMARK  7 active torsions:
REMARK  status: ('A' for Active; 'I' for Inactive)
REMARK    1  A    between atoms: C_5  and  C_18
REMARK    2  A    between atoms: C_9  and  N_17
REMARK    3  A    between atoms: C_18  and  N_19
REMARK    4  A    between atoms: N_19  and  C_22
REMARK    5  A    between atoms: C_22  and  P_23
REMARK    6  A    between atoms: P_23  and  O_25
REMARK    7  A    between atoms: P_23  and  O_27
REMARK                            x       y       z     vdW  Elec       q    Type
REMARK                         _______ _______ _______ _____ _____    ______ ____
ROOT
ATOM      1  O   UNL     1     -35.152  23.354   5.669  0.00  0.00    -0.262 OA
ATOM      2  O   UNL     1     -35.352  25.980   5.946  0.00  0.00    -0.262 OA
ATOM      3  N   UNL     1     -36.787  23.339   4.037  0.00  0.00    -0.316 N 
ATOM      4  N   UNL     1     -36.995  26.088   4.326  0.00  0.00    -0.316 N 
ATOM      5  C   UNL     1     -38.508  23.374   2.331  0.00  0.00    -0.025 C 
ATOM      6  C   UNL     1     -37.704  24.047   3.252  0.00  0.00    +0.069 A 
ATOM      7  C   UNL     1     -37.808  25.428   3.398  0.00  0.00    +0.076 A 
ATOM      8  C   UNL     1     -39.418  24.094   1.555  0.00  0.00    +0.019 C 
ATOM      9  C   UNL     1     -39.523  25.478   1.702  0.00  0.00    +0.144 C 
ATOM     10  C   UNL     1     -38.718  26.150   2.623  0.00  0.00    +0.043 C 
ATOM     11  C   UNL     1     -35.965  23.940   4.965  0.00  0.00    +0.314 A 
ATOM     12  C   UNL     1     -36.079  25.437   5.122  0.00  0.00    +0.314 A 
ATOM     13  H   UNL     1     -36.727  22.363   3.920  0.00  0.00    +0.169 HD
ATOM     14  H   UNL     1     -37.083  27.064   4.415  0.00  0.00    +0.169 HD
ENDROOT
BRANCH   9  17
ATOM     15  O   UNL     1     -41.052  25.613  -0.019  0.00  0.00    -0.126 OA
ATOM     16  O   UNL     1     -40.644  27.419   1.161  0.00  0.00    -0.126 OA
ATOM     17  N   UNL     1     -40.451  26.205   0.909  0.00  0.00    +0.058 N 
ENDBRANCH   9  17
BRANCH   5  18
ATOM     18  C   UNL     1     -38.427  21.894   2.143  0.00  0.00    -0.052 C 
BRANCH  18  19
ATOM     19  N   UNL     1     -37.391  21.512   1.185  0.00  0.00    +0.394 N 
ATOM     20  H   UNL     1     -36.640  22.202   1.210  0.00  0.00    -0.083 HD
ATOM     21  H   UNL     1     -37.803  21.472   0.253  0.00  0.00    -0.083 HD
BRANCH  19  22
ATOM     22  C   UNL     1     -36.848  20.204   1.513  0.00  0.00    +0.038 C 
BRANCH  22  23
ATOM     23  P   UNL     1     -35.262  20.589   2.236  0.00  0.00    +0.316 P 
ATOM     24  O   UNL     1     -34.179  19.619   1.862  0.00  0.00    -0.260 OA
BRANCH  23  25
ATOM     25  O   UNL     1     -35.549  20.694   3.824  0.00  0.00    -0.325 OA
ATOM     26  H   UNL     1     -36.036  21.511   4.012  0.00  0.00    +0.220 HD
ENDBRANCH  23  25
BRANCH  23  27
ATOM     27  O   UNL     1     -34.973  22.119   1.797  0.00  0.00    -0.325 OA
ATOM     28  H   UNL     1     -34.161  22.430   2.228  0.00  0.00    +0.220 HD
ENDBRANCH  23  27
ENDBRANCH  22  23
ENDBRANCH  19  22
ENDBRANCH  18  19
ENDBRANCH   5  18
TORSDOF 7
ENDMDL
MODEL 6
REMARK VINA RESULT:      -6.3      2.757      5.669
REMARK  Name = 5491960
REMARK  7 active torsions:
REMARK  status: ('A' for Active; 'I' for Inactive)
REMARK    1  A    between atoms: C_5  and  C_18
REMARK    2  A    between atoms: C_9  and  N_17
REMARK    3  A    between atoms: C_18  and  N_19
REMARK    4  A    between atoms: N_19  and  C_22
REMARK    5  A    between atoms: C_22  and  P_23
REMARK    6  A    between atoms: P_23  and  O_25
REMARK    7  A    between atoms: P_23  and  O_27
REMARK                            x       y       z     vdW  Elec       q    Type
REMARK                         _______ _______ _______ _____ _____    ______ ____
ROOT
ATOM      1  O   UNL     1     -37.080  28.277   1.210  0.00  0.00    -0.262 OA
ATOM      2  O   UNL     1     -39.173  26.658   1.312  0.00  0.00    -0.262 OA
ATOM      3  N   UNL     1     -35.834  26.849   2.531  0.00  0.00    -0.316 N 
ATOM      4  N   UNL     1     -38.025  25.154   2.636  0.00  0.00    -0.316 N 
ATOM      5  C   UNL     1     -34.567  25.319   3.919  0.00  0.00    -0.025 C 
ATOM      6  C   UNL     1     -35.747  25.654   3.255  0.00  0.00    +0.069 A 
ATOM      7  C   UNL     1     -36.848  24.803   3.307  0.00  0.00    +0.076 A 
ATOM      8  C   UNL     1     -34.495  24.125   4.638  0.00  0.00    +0.019 C 
ATOM      9  C   UNL     1     -35.599  23.272   4.691  0.00  0.00    +0.144 C 
ATOM     10  C   UNL     1     -36.779  23.609   4.025  0.00  0.00    +0.043 C 
ATOM     11  C   UNL     1     -36.968  27.240   1.853  0.00  0.00    +0.314 A 
ATOM     12  C   UNL     1     -38.161  26.317   1.911  0.00  0.00    +0.314 A 
ATOM     13  H   UNL     1     -35.045  27.438   2.505  0.00  0.00    +0.169 HD
ATOM     14  H   UNL     1     -38.793  24.540   2.684  0.00  0.00    +0.169 HD
ENDROOT
BRANCH   9  17
ATOM     15  O   UNL     1     -35.848  22.057   6.634  0.00  0.00    -0.126 OA
ATOM     16  O   UNL     1     -35.128  21.020   4.839  0.00  0.00    -0.126 OA
ATOM     17  N   UNL     1     -35.521  22.058   5.424  0.00  0.00    +0.058 N 
ENDBRANCH   9  17
BRANCH   5  18
ATOM     18  C   UNL     1     -33.363  26.203   3.888  0.00  0.00    -0.052 C 
BRANCH  18  19
ATOM     19  N   UNL     1     -33.360  27.175   4.982  0.00  0.00    +0.394 N 
ATOM     20  H   UNL     1     -33.278  26.681   5.870  0.00  0.00    -0.083 HD
ATOM     21  H   UNL     1     -34.230  27.706   4.952  0.00  0.00    -0.083 HD
BRANCH  19  22
ATOM     22  C   UNL     1     -32.245  28.097   4.844  0.00  0.00    +0.038 C 
BRANCH  22  23
ATOM     23  P   UNL     1     -31.707  28.344   6.527  0.00  0.00    +0.316 P 
ATOM     24  O   UNL     1     -31.782  29.774   6.980  0.00  0.00    -0.260 OA
BRANCH  23  25
ATOM     25  O   UNL     1     -30.225  27.699   6.585  0.00  0.00    -0.325 OA
ATOM     26  H   UNL     1     -29.776  27.844   5.738  0.00  0.00    +0.220 HD
ENDBRANCH  23  25
BRANCH  23  27
ATOM     27  O   UNL     1     -32.605  27.318   7.399  0.00  0.00    -0.325 OA
ATOM     28  H   UNL     1     -32.578  26.438   6.990  0.00  0.00    +0.220 HD
ENDBRANCH  23  27
ENDBRANCH  22  23
ENDBRANCH  19  22
ENDBRANCH  18  19
ENDBRANCH   5  18
TORSDOF 7
ENDMDL
MODEL 7
REMARK VINA RESULT:      -6.2      2.698      5.348
REMARK  Name = 5491960
REMARK  7 active torsions:
REMARK  status: ('A' for Active; 'I' for Inactive)
REMARK    1  A    between atoms: C_5  and  C_18
REMARK    2  A    between atoms: C_9  and  N_17
REMARK    3  A    between atoms: C_18  and  N_19
REMARK    4  A    between atoms: N_19  and  C_22
REMARK    5  A    between atoms: C_22  and  P_23
REMARK    6  A    between atoms: P_23  and  O_25
REMARK    7  A    between atoms: P_23  and  O_27
REMARK                            x       y       z     vdW  Elec       q    Type
REMARK                         _______ _______ _______ _____ _____    ______ ____
ROOT
ATOM      1  O   UNL     1     -40.088  25.278   3.425  0.00  0.00    -0.262 OA
ATOM      2  O   UNL     1     -41.020  23.908   1.360  0.00  0.00    -0.262 OA
ATOM      3  N   UNL     1     -38.188  23.967   3.516  0.00  0.00    -0.316 N 
ATOM      4  N   UNL     1     -39.163  22.535   1.352  0.00  0.00    -0.316 N 
ATOM      5  C   UNL     1     -36.212  22.565   3.571  0.00  0.00    -0.025 C 
ATOM      6  C   UNL     1     -37.440  22.903   3.000  0.00  0.00    +0.069 A 
ATOM      7  C   UNL     1     -37.930  22.183   1.914  0.00  0.00    +0.076 A 
ATOM      8  C   UNL     1     -35.478  21.500   3.047  0.00  0.00    +0.019 C 
ATOM      9  C   UNL     1     -35.969  20.778   1.958  0.00  0.00    +0.144 C 
ATOM     10  C   UNL     1     -37.198  21.118   1.388  0.00  0.00    +0.043 C 
ATOM     11  C   UNL     1     -39.406  24.353   3.001  0.00  0.00    +0.314 A 
ATOM     12  C   UNL     1     -39.937  23.572   1.823  0.00  0.00    +0.314 A 
ATOM     13  H   UNL     1     -37.825  24.464   4.284  0.00  0.00    +0.169 HD
ATOM     14  H   UNL     1     -39.494  22.014   0.585  0.00  0.00    +0.169 HD
ENDROOT
BRANCH   9  17
ATOM     15  O   UNL     1     -35.729  18.982   0.533  0.00  0.00    -0.126 OA
ATOM     16  O   UNL     1     -34.062  19.485   1.869  0.00  0.00    -0.126 OA
ATOM     17  N   UNL     1     -35.218  19.696   1.428  0.00  0.00    +0.058 N 
ENDBRANCH   9  17
BRANCH   5  18
ATOM     18  C   UNL     1     -35.650  23.310   4.737  0.00  0.00    -0.052 C 
BRANCH  18  19
ATOM     19  N   UNL     1     -34.438  24.053   4.389  0.00  0.00    +0.394 N 
ATOM     20  H   UNL     1     -33.785  23.427   3.917  0.00  0.00    -0.083 HD
ATOM     21  H   UNL     1     -34.021  24.421   5.243  0.00  0.00    -0.083 HD
BRANCH  19  22
ATOM     22  C   UNL     1     -34.756  25.163   3.507  0.00  0.00    +0.038 C 
BRANCH  22  23
ATOM     23  P   UNL     1     -35.212  26.466   4.637  0.00  0.00    +0.316 P 
ATOM     24  O   UNL     1     -34.377  26.503   5.884  0.00  0.00    -0.260 OA
BRANCH  23  25
ATOM     25  O   UNL     1     -36.794  26.250   4.896  0.00  0.00    -0.325 OA
ATOM     26  H   UNL     1     -37.185  27.076   5.220  0.00  0.00    +0.220 HD
ENDBRANCH  23  25
BRANCH  23  27
ATOM     27  O   UNL     1     -35.151  27.818   3.750  0.00  0.00    -0.325 OA
ATOM     28  H   UNL     1     -34.540  27.690   3.007  0.00  0.00    +0.220 HD
ENDBRANCH  23  27
ENDBRANCH  22  23
ENDBRANCH  19  22
ENDBRANCH  18  19
ENDBRANCH   5  18
TORSDOF 7
ENDMDL
MODEL 8
REMARK VINA RESULT:      -6.2      3.656      7.294
REMARK  Name = 5491960
REMARK  7 active torsions:
REMARK  status: ('A' for Active; 'I' for Inactive)
REMARK    1  A    between atoms: C_5  and  C_18
REMARK    2  A    between atoms: C_9  and  N_17
REMARK    3  A    between atoms: C_18  and  N_19
REMARK    4  A    between atoms: N_19  and  C_22
REMARK    5  A    between atoms: C_22  and  P_23
REMARK    6  A    between atoms: P_23  and  O_25
REMARK    7  A    between atoms: P_23  and  O_27
REMARK                            x       y       z     vdW  Elec       q    Type
REMARK                         _______ _______ _______ _____ _____    ______ ____
ROOT
ATOM      1  O   UNL     1     -35.971  26.410   5.653  0.00  0.00    -0.262 OA
ATOM      2  O   UNL     1     -34.773  24.049   5.623  0.00  0.00    -0.262 OA
ATOM      3  N   UNL     1     -37.565  25.690   4.145  0.00  0.00    -0.316 N 
ATOM      4  N   UNL     1     -36.313  23.218   4.114  0.00  0.00    -0.316 N 
ATOM      5  C   UNL     1     -39.215  24.890   2.561  0.00  0.00    -0.025 C 
ATOM      6  C   UNL     1     -38.080  24.667   3.341  0.00  0.00    +0.069 A 
ATOM      7  C   UNL     1     -37.451  23.425   3.326  0.00  0.00    +0.076 A 
ATOM      8  C   UNL     1     -39.717  23.860   1.764  0.00  0.00    +0.019 C 
ATOM      9  C   UNL     1     -39.085  22.615   1.748  0.00  0.00    +0.144 C 
ATOM     10  C   UNL     1     -37.950  22.394   2.530  0.00  0.00    +0.043 C 
ATOM     11  C   UNL     1     -36.449  25.539   4.938  0.00  0.00    +0.314 A 
ATOM     12  C   UNL     1     -35.767  24.192   4.921  0.00  0.00    +0.314 A 
ATOM     13  H   UNL     1     -38.024  26.562   4.143  0.00  0.00    +0.169 HD
ATOM     14  H   UNL     1     -35.881  22.333   4.090  0.00  0.00    +0.169 HD
ENDROOT
BRANCH   9  17
ATOM     15  O   UNL     1     -40.732  21.098   1.197  0.00  0.00    -0.126 OA
ATOM     16  O   UNL     1     -38.909  21.149  -0.024  0.00  0.00    -0.126 OA
ATOM     17  N   UNL     1     -39.600  21.570   0.935  0.00  0.00    +0.058 N 
ENDBRANCH   9  17
BRANCH   5  18
ATOM     18  C   UNL     1     -39.921  26.207   2.548  0.00  0.00    -0.052 C 
BRANCH  18  19
ATOM     19  N   UNL     1     -40.901  26.321   3.628  0.00  0.00    +0.394 N 
ATOM     20  H   UNL     1     -40.666  27.126   4.209  0.00  0.00    -0.083 HD
ATOM     21  H   UNL     1     -40.880  25.466   4.183  0.00  0.00    -0.083 HD
BRANCH  19  22
ATOM     22  C   UNL     1     -42.239  26.497   3.088  0.00  0.00    +0.038 C 
BRANCH  22  23
ATOM     23  P   UNL     1     -42.724  28.098   3.709  0.00  0.00    +0.316 P 
ATOM     24  O   UNL     1     -44.127  28.138   4.241  0.00  0.00    -0.260 OA
BRANCH  23  25
ATOM     25  O   UNL     1     -42.442  29.117   2.484  0.00  0.00    -0.325 OA
ATOM     26  H   UNL     1     -41.488  29.181   2.329  0.00  0.00    +0.220 HD
ENDBRANCH  23  25
BRANCH  23  27
ATOM     27  O   UNL     1     -41.585  28.479   4.793  0.00  0.00    -0.325 OA
ATOM     28  H   UNL     1     -40.713  28.452   4.368  0.00  0.00    +0.220 HD
ENDBRANCH  23  27
ENDBRANCH  22  23
ENDBRANCH  19  22
ENDBRANCH  18  19
ENDBRANCH   5  18
TORSDOF 7
ENDMDL
MODEL 9
REMARK VINA RESULT:      -6.2      2.524      3.160
REMARK  Name = 5491960
REMARK  7 active torsions:
REMARK  status: ('A' for Active; 'I' for Inactive)
REMARK    1  A    between atoms: C_5  and  C_18
REMARK    2  A    between atoms: C_9  and  N_17
REMARK    3  A    between atoms: C_18  and  N_19
REMARK    4  A    between atoms: N_19  and  C_22
REMARK    5  A    between atoms: C_22  and  P_23
REMARK    6  A    between atoms: P_23  and  O_25
REMARK    7  A    between atoms: P_23  and  O_27
REMARK                            x       y       z     vdW  Elec       q    Type
REMARK                         _______ _______ _______ _____ _____    ______ ____
ROOT
ATOM      1  O   UNL     1     -39.872  21.008   1.165  0.00  0.00    -0.262 OA
ATOM      2  O   UNL     1     -40.929  23.405   1.553  0.00  0.00    -0.262 OA
ATOM      3  N   UNL     1     -37.921  21.627   2.237  0.00  0.00    -0.316 N 
ATOM      4  N   UNL     1     -39.028  24.135   2.645  0.00  0.00    -0.316 N 
ATOM      5  C   UNL     1     -35.894  22.322   3.369  0.00  0.00    -0.025 C 
ATOM      6  C   UNL     1     -37.181  22.606   2.909  0.00  0.00    +0.069 A 
ATOM      7  C   UNL     1     -37.737  23.866   3.113  0.00  0.00    +0.076 A 
ATOM      8  C   UNL     1     -35.168  23.309   4.037  0.00  0.00    +0.019 C 
ATOM      9  C   UNL     1     -35.725  24.572   4.241  0.00  0.00    +0.144 C 
ATOM     10  C   UNL     1     -37.012  24.854   3.780  0.00  0.00    +0.043 C 
ATOM     11  C   UNL     1     -39.194  21.840   1.756  0.00  0.00    +0.314 A 
ATOM     12  C   UNL     1     -39.797  23.206   1.978  0.00  0.00    +0.314 A 
ATOM     13  H   UNL     1     -37.511  20.741   2.102  0.00  0.00    +0.169 HD
ATOM     14  H   UNL     1     -39.405  25.031   2.799  0.00  0.00    +0.169 HD
ENDROOT
BRANCH   9  17
ATOM     15  O   UNL     1     -35.562  26.625   5.277  0.00  0.00    -0.126 OA
ATOM     16  O   UNL     1     -33.763  25.376   5.147  0.00  0.00    -0.126 OA
ATOM     17  N   UNL     1     -34.981  25.573   4.921  0.00  0.00    +0.058 N 
ENDBRANCH   9  17
BRANCH   5  18
ATOM     18  C   UNL     1     -35.260  20.984   3.171  0.00  0.00    -0.052 C 
BRANCH  18  19
ATOM     19  N   UNL     1     -34.591  20.873   1.875  0.00  0.00    +0.394 N 
ATOM     20  H   UNL     1     -33.657  21.277   1.944  0.00  0.00    -0.083 HD
ATOM     21  H   UNL     1     -35.142  21.373   1.177  0.00  0.00    -0.083 HD
BRANCH  19  22
ATOM     22  C   UNL     1     -34.480  19.480   1.474  0.00  0.00    +0.038 C 
BRANCH  22  23
ATOM     23  P   UNL     1     -35.784  19.295   0.270  0.00  0.00    +0.316 P 
ATOM     24  O   UNL     1     -35.418  18.404  -0.881  0.00  0.00    -0.260 OA
BRANCH  23  25
ATOM     25  O   UNL     1     -36.174  20.808  -0.150  0.00  0.00    -0.325 OA
ATOM     26  H   UNL     1     -35.548  21.428   0.255  0.00  0.00    +0.220 HD
ENDBRANCH  23  25
BRANCH  23  27
ATOM     27  O   UNL     1     -37.062  18.794   1.125  0.00  0.00    -0.325 OA
ATOM     28  H   UNL     1     -37.236  17.859   0.928  0.00  0.00    +0.220 HD
ENDBRANCH  23  27
ENDBRANCH  22  23
ENDBRANCH  19  22
ENDBRANCH  18  19
ENDBRANCH   5  18
TORSDOF 7
ENDMDL
