MODEL 1
REMARK VINA RESULT:      -5.2      0.000      0.000
REMARK  Name = 5487661
REMARK  12 active torsions:
REMARK  status: ('A' for Active; 'I' for Inactive)
REMARK    1  A    between atoms: N_2  and  C_18
REMARK    2  A    between atoms: C_3  and  C_5
REMARK    3  A    between atoms: C_5  and  N_8
REMARK    4  A    between atoms: C_9  and  C_11
REMARK    5  A    between atoms: C_11  and  C_12
REMARK    6  A    between atoms: C_12  and  C_13
REMARK    7  A    between atoms: C_13  and  C_15
REMARK    8  A    between atoms: C_15  and  O_16
REMARK    9  A    between atoms: C_18  and  C_23
REMARK   10  A    between atoms: C_24  and  C_26
REMARK   11  A    between atoms: C_26  and  N_28
REMARK   12  A    between atoms: N_28  and  C_31
REMARK                            x       y       z     vdW  Elec       q    Type
REMARK                         _______ _______ _______ _____ _____    ______ ____
ROOT
ATOM      1  O   UNL     1     -36.534  23.151   0.078  0.00  0.00    -0.273 OA
ATOM      2  N   UNL     1     -36.377  24.446   1.998  0.00  0.00    -0.297 N 
ATOM      3  C   UNL     1     -36.707  23.299   1.286  0.00  0.00    +0.241 C 
ATOM      4  H   UNL     1     -36.555  24.468   2.966  0.00  0.00    +0.150 HD
ENDROOT
BRANCH   3   5
ATOM      5  C   UNL     1     -37.273  22.205   2.184  0.00  0.00    +0.149 C 
ATOM      6  C   UNL     1     -38.781  22.345   2.325  0.00  0.00    +0.031 C 
BRANCH   5   8
ATOM      7  O   UNL     1     -35.186  20.493   3.156  0.00  0.00    -0.275 OA
ATOM      8  N   UNL     1     -36.617  22.295   3.461  0.00  0.00    -0.298 N 
ATOM      9  C   UNL     1     -35.611  21.416   3.845  0.00  0.00    +0.223 C 
ATOM     10  H   UNL     1     -36.890  23.005   4.086  0.00  0.00    +0.150 HD
BRANCH   9  11
ATOM     11  C   UNL     1     -35.109  21.710   5.249  0.00  0.00    +0.086 C 
BRANCH  11  12
ATOM     12  C   UNL     1     -35.720  22.964   5.870  0.00  0.00    +0.021 C 
BRANCH  12  13
ATOM     13  C   UNL     1     -34.920  24.226   5.541  0.00  0.00    +0.110 C 
BRANCH  13  15
ATOM     14  O   UNL     1     -35.491  26.573   5.229  0.00  0.00    -0.250 OA
ATOM     15  C   UNL     1     -35.823  25.395   5.219  0.00  0.00    +0.314 C 
BRANCH  15  16
ATOM     16  O   UNL     1     -37.078  24.981   4.903  0.00  0.00    -0.480 OA
ATOM     17  H   UNL     1     -37.206  24.153   4.483  0.00  0.00    +0.295 HD
ENDBRANCH  15  16
ENDBRANCH  13  15
ENDBRANCH  12  13
ENDBRANCH  11  12
ENDBRANCH   9  11
ENDBRANCH   5   8
ENDBRANCH   3   5
BRANCH   2  18
ATOM     18  C   UNL     1     -35.785  25.604   1.382  0.00  0.00    +0.149 C 
ATOM     19  C   UNL     1     -36.473  26.880   1.842  0.00  0.00    +0.031 C 
BRANCH  18  23
ATOM     20  O   UNL     1     -33.520  24.740   1.399  0.00  0.00    -0.273 OA
ATOM     21  O   UNL     1     -31.704  26.304   2.846  0.00  0.00    -0.277 OA
ATOM     22  N   UNL     1     -33.968  26.744   2.503  0.00  0.00    -0.256 N 
ATOM     23  C   UNL     1     -34.302  25.628   1.731  0.00  0.00    +0.246 C 
ATOM     24  C   UNL     1     -32.694  27.013   3.011  0.00  0.00    +0.208 C 
ATOM     25  H   UNL     1     -34.683  27.389   2.703  0.00  0.00    +0.157 HD
BRANCH  24  26
ATOM     26  C   UNL     1     -32.662  28.298   3.826  0.00  0.00    +0.017 C 
ATOM     27  C   UNL     1     -32.295  28.034   5.281  0.00  0.00    -0.014 C 
BRANCH  26  28
ATOM     28  N   UNL     1     -34.001  28.877   3.751  0.00  0.00    +0.391 N 
ATOM     29  H   UNL     1     -34.365  29.000   4.696  0.00  0.00    -0.084 HD
ATOM     30  H   UNL     1     -34.600  28.247   3.218  0.00  0.00    -0.084 HD
BRANCH  28  31
ATOM     31  C   UNL     1     -33.969  30.168   3.081  0.00  0.00    -0.081 C 
ATOM     32  C   UNL     1     -32.554  30.720   3.020  0.00  0.00    -0.026 C 
ENDBRANCH  28  31
ENDBRANCH  26  28
ENDBRANCH  24  26
ENDBRANCH  18  23
ENDBRANCH   2  18
TORSDOF 12
ENDMDL
MODEL 2
REMARK VINA RESULT:      -5.2      2.755      6.570
REMARK  Name = 5487661
REMARK  12 active torsions:
REMARK  status: ('A' for Active; 'I' for Inactive)
REMARK    1  A    between atoms: N_2  and  C_18
REMARK    2  A    between atoms: C_3  and  C_5
REMARK    3  A    between atoms: C_5  and  N_8
REMARK    4  A    between atoms: C_9  and  C_11
REMARK    5  A    between atoms: C_11  and  C_12
REMARK    6  A    between atoms: C_12  and  C_13
REMARK    7  A    between atoms: C_13  and  C_15
REMARK    8  A    between atoms: C_15  and  O_16
REMARK    9  A    between atoms: C_18  and  C_23
REMARK   10  A    between atoms: C_24  and  C_26
REMARK   11  A    between atoms: C_26  and  N_28
REMARK   12  A    between atoms: N_28  and  C_31
REMARK                            x       y       z     vdW  Elec       q    Type
REMARK                         _______ _______ _______ _____ _____    ______ ____
ROOT
ATOM      1  O   UNL     1     -35.352  20.651   3.549  0.00  0.00    -0.273 OA
ATOM      2  N   UNL     1     -36.962  22.318   3.415  0.00  0.00    -0.297 N 
ATOM      3  C   UNL     1     -35.818  21.722   3.934  0.00  0.00    +0.241 C 
ATOM      4  H   UNL     1     -37.257  23.179   3.792  0.00  0.00    +0.150 HD
ENDROOT
BRANCH   3   5
ATOM      5  C   UNL     1     -35.165  22.571   5.016  0.00  0.00    +0.149 C 
ATOM      6  C   UNL     1     -35.501  22.041   6.401  0.00  0.00    +0.031 C 
BRANCH   5   8
ATOM      7  O   UNL     1     -33.521  24.875   4.540  0.00  0.00    -0.275 OA
ATOM      8  N   UNL     1     -35.617  23.928   4.851  0.00  0.00    -0.298 N 
ATOM      9  C   UNL     1     -34.741  24.982   4.622  0.00  0.00    +0.223 C 
ATOM     10  H   UNL     1     -36.583  24.114   4.901  0.00  0.00    +0.150 HD
BRANCH   9  11
ATOM     11  C   UNL     1     -35.473  26.310   4.515  0.00  0.00    +0.086 C 
BRANCH  11  12
ATOM     12  C   UNL     1     -35.813  26.710   3.081  0.00  0.00    +0.021 C 
BRANCH  12  13
ATOM     13  C   UNL     1     -36.802  25.743   2.426  0.00  0.00    +0.110 C 
BRANCH  13  15
ATOM     14  O   UNL     1     -39.080  26.582   2.616  0.00  0.00    -0.250 OA
ATOM     15  C   UNL     1     -38.184  25.859   3.028  0.00  0.00    +0.314 C 
BRANCH  15  16
ATOM     16  O   UNL     1     -38.325  25.043   4.106  0.00  0.00    -0.480 OA
ATOM     17  H   UNL     1     -39.168  24.700   4.326  0.00  0.00    +0.295 HD
ENDBRANCH  15  16
ENDBRANCH  13  15
ENDBRANCH  12  13
ENDBRANCH  11  12
ENDBRANCH   9  11
ENDBRANCH   5   8
ENDBRANCH   3   5
BRANCH   2  18
ATOM     18  C   UNL     1     -37.735  21.731   2.352  0.00  0.00    +0.149 C 
ATOM     19  C   UNL     1     -39.084  22.421   2.211  0.00  0.00    +0.031 C 
BRANCH  18  23
ATOM     20  O   UNL     1     -36.927  22.843   0.355  0.00  0.00    -0.273 OA
ATOM     21  O   UNL     1     -35.282  21.254  -1.260  0.00  0.00    -0.277 OA
ATOM     22  N   UNL     1     -36.256  20.650   0.770  0.00  0.00    -0.256 N 
ATOM     23  C   UNL     1     -36.932  21.837   1.062  0.00  0.00    +0.246 C 
ATOM     24  C   UNL     1     -35.476  20.431  -0.368  0.00  0.00    +0.208 C 
ATOM     25  H   UNL     1     -36.335  19.912   1.416  0.00  0.00    +0.157 HD
BRANCH  24  26
ATOM     26  C   UNL     1     -34.888  19.027  -0.399  0.00  0.00    +0.017 C 
ATOM     27  C   UNL     1     -35.912  17.998  -0.864  0.00  0.00    -0.014 C 
BRANCH  26  28
ATOM     28  N   UNL     1     -34.462  18.720   0.963  0.00  0.00    +0.391 N 
ATOM     29  H   UNL     1     -34.515  17.712   1.111  0.00  0.00    -0.084 HD
ATOM     30  H   UNL     1     -35.074  19.208   1.616  0.00  0.00    -0.084 HD
BRANCH  28  31
ATOM     31  C   UNL     1     -33.094  19.163   1.189  0.00  0.00    -0.081 C 
ATOM     32  C   UNL     1     -32.136  17.984   1.234  0.00  0.00    -0.026 C 
ENDBRANCH  28  31
ENDBRANCH  26  28
ENDBRANCH  24  26
ENDBRANCH  18  23
ENDBRANCH   2  18
TORSDOF 12
ENDMDL
MODEL 3
REMARK VINA RESULT:      -5.2      1.502      2.023
REMARK  Name = 5487661
REMARK  12 active torsions:
REMARK  status: ('A' for Active; 'I' for Inactive)
REMARK    1  A    between atoms: N_2  and  C_18
REMARK    2  A    between atoms: C_3  and  C_5
REMARK    3  A    between atoms: C_5  and  N_8
REMARK    4  A    between atoms: C_9  and  C_11
REMARK    5  A    between atoms: C_11  and  C_12
REMARK    6  A    between atoms: C_12  and  C_13
REMARK    7  A    between atoms: C_13  and  C_15
REMARK    8  A    between atoms: C_15  and  O_16
REMARK    9  A    between atoms: C_18  and  C_23
REMARK   10  A    between atoms: C_24  and  C_26
REMARK   11  A    between atoms: C_26  and  N_28
REMARK   12  A    between atoms: N_28  and  C_31
REMARK                            x       y       z     vdW  Elec       q    Type
REMARK                         _______ _______ _______ _____ _____    ______ ____
ROOT
ATOM      1  O   UNL     1     -35.764  22.814   0.622  0.00  0.00    -0.273 OA
ATOM      2  N   UNL     1     -37.226  24.464   1.346  0.00  0.00    -0.297 N 
ATOM      3  C   UNL     1     -36.713  23.173   1.317  0.00  0.00    +0.241 C 
ATOM      4  H   UNL     1     -37.991  24.653   1.937  0.00  0.00    +0.150 HD
ENDROOT
BRANCH   3   5
ATOM      5  C   UNL     1     -37.430  22.243   2.287  0.00  0.00    +0.149 C 
ATOM      6  C   UNL     1     -38.883  22.655   2.461  0.00  0.00    +0.031 C 
BRANCH   5   8
ATOM      7  O   UNL     1     -35.288  20.508   3.087  0.00  0.00    -0.275 OA
ATOM      8  N   UNL     1     -36.722  22.276   3.540  0.00  0.00    -0.298 N 
ATOM      9  C   UNL     1     -35.693  21.391   3.838  0.00  0.00    +0.223 C 
ATOM     10  H   UNL     1     -36.976  22.952   4.209  0.00  0.00    +0.150 HD
BRANCH   9  11
ATOM     11  C   UNL     1     -35.137  21.621   5.233  0.00  0.00    +0.086 C 
BRANCH  11  12
ATOM     12  C   UNL     1     -35.672  22.881   5.908  0.00  0.00    +0.021 C 
BRANCH  12  13
ATOM     13  C   UNL     1     -34.885  24.133   5.513  0.00  0.00    +0.110 C 
BRANCH  13  15
ATOM     14  O   UNL     1     -35.698  26.403   5.850  0.00  0.00    -0.250 OA
ATOM     15  C   UNL     1     -35.793  25.321   5.289  0.00  0.00    +0.314 C 
BRANCH  15  16
ATOM     16  O   UNL     1     -36.750  25.045   4.365  0.00  0.00    -0.480 OA
ATOM     17  H   UNL     1     -37.071  24.170   4.269  0.00  0.00    +0.295 HD
ENDBRANCH  15  16
ENDBRANCH  13  15
ENDBRANCH  12  13
ENDBRANCH  11  12
ENDBRANCH   9  11
ENDBRANCH   5   8
ENDBRANCH   3   5
BRANCH   2  18
ATOM     18  C   UNL     1     -36.690  25.537   0.551  0.00  0.00    +0.149 C 
ATOM     19  C   UNL     1     -37.634  25.899  -0.586  0.00  0.00    +0.031 C 
BRANCH  18  23
ATOM     20  O   UNL     1     -37.287  27.615   1.646  0.00  0.00    -0.273 OA
ATOM     21  O   UNL     1     -35.242  28.720   3.208  0.00  0.00    -0.277 OA
ATOM     22  N   UNL     1     -35.164  26.722   2.008  0.00  0.00    -0.256 N 
ATOM     23  C   UNL     1     -36.450  26.734   1.462  0.00  0.00    +0.246 C 
ATOM     24  C   UNL     1     -34.640  27.712   2.844  0.00  0.00    +0.208 C 
ATOM     25  H   UNL     1     -34.583  25.959   1.787  0.00  0.00    +0.157 HD
BRANCH  24  26
ATOM     26  C   UNL     1     -33.205  27.413   3.256  0.00  0.00    +0.017 C 
ATOM     27  C   UNL     1     -32.815  25.975   2.938  0.00  0.00    -0.014 C 
BRANCH  26  28
ATOM     28  N   UNL     1     -33.125  27.641   4.696  0.00  0.00    +0.391 N 
ATOM     29  H   UNL     1     -32.853  26.773   5.157  0.00  0.00    -0.084 HD
ATOM     30  H   UNL     1     -34.038  27.950   5.030  0.00  0.00    -0.084 HD
BRANCH  28  31
ATOM     31  C   UNL     1     -32.143  28.671   5.003  0.00  0.00    -0.081 C 
ATOM     32  C   UNL     1     -31.812  28.690   6.486  0.00  0.00    -0.026 C 
ENDBRANCH  28  31
ENDBRANCH  26  28
ENDBRANCH  24  26
ENDBRANCH  18  23
ENDBRANCH   2  18
TORSDOF 12
ENDMDL
MODEL 4
REMARK VINA RESULT:      -5.1      4.814      8.825
REMARK  Name = 5487661
REMARK  12 active torsions:
REMARK  status: ('A' for Active; 'I' for Inactive)
REMARK    1  A    between atoms: N_2  and  C_18
REMARK    2  A    between atoms: C_3  and  C_5
REMARK    3  A    between atoms: C_5  and  N_8
REMARK    4  A    between atoms: C_9  and  C_11
REMARK    5  A    between atoms: C_11  and  C_12
REMARK    6  A    between atoms: C_12  and  C_13
REMARK    7  A    between atoms: C_13  and  C_15
REMARK    8  A    between atoms: C_15  and  O_16
REMARK    9  A    between atoms: C_18  and  C_23
REMARK   10  A    between atoms: C_24  and  C_26
REMARK   11  A    between atoms: C_26  and  N_28
REMARK   12  A    between atoms: N_28  and  C_31
REMARK                            x       y       z     vdW  Elec       q    Type
REMARK                         _______ _______ _______ _____ _____    ______ ____
ROOT
ATOM      1  O   UNL     1     -34.125  21.248   0.988  0.00  0.00    -0.273 OA
ATOM      2  N   UNL     1     -34.616  19.027   1.449  0.00  0.00    -0.297 N 
ATOM      3  C   UNL     1     -34.793  20.400   1.577  0.00  0.00    +0.241 C 
ATOM      4  H   UNL     1     -35.203  18.426   1.965  0.00  0.00    +0.150 HD
ENDROOT
BRANCH   3   5
ATOM      5  C   UNL     1     -35.952  20.750   2.501  0.00  0.00    +0.149 C 
ATOM      6  C   UNL     1     -37.217  21.028   1.706  0.00  0.00    +0.031 C 
BRANCH   5   8
ATOM      7  O   UNL     1     -35.143  20.739   5.255  0.00  0.00    -0.275 OA
ATOM      8  N   UNL     1     -35.565  21.893   3.286  0.00  0.00    -0.298 N 
ATOM      9  C   UNL     1     -35.186  21.788   4.619  0.00  0.00    +0.223 C 
ATOM     10  H   UNL     1     -35.567  22.782   2.862  0.00  0.00    +0.150 HD
BRANCH   9  11
ATOM     11  C   UNL     1     -34.855  23.144   5.221  0.00  0.00    +0.086 C 
BRANCH  11  12
ATOM     12  C   UNL     1     -35.119  24.315   4.278  0.00  0.00    +0.021 C 
BRANCH  12  13
ATOM     13  C   UNL     1     -36.269  25.203   4.759  0.00  0.00    +0.110 C 
BRANCH  13  15
ATOM     14  O   UNL     1     -37.969  23.929   3.570  0.00  0.00    -0.250 OA
ATOM     15  C   UNL     1     -37.516  25.007   3.928  0.00  0.00    +0.314 C 
BRANCH  15  16
ATOM     16  O   UNL     1     -38.098  26.196   3.619  0.00  0.00    -0.480 OA
ATOM     17  H   UNL     1     -38.426  26.748   4.301  0.00  0.00    +0.295 HD
ENDBRANCH  15  16
ENDBRANCH  13  15
ENDBRANCH  12  13
ENDBRANCH  11  12
ENDBRANCH   9  11
ENDBRANCH   5   8
ENDBRANCH   3   5
BRANCH   2  18
ATOM     18  C   UNL     1     -33.613  18.444   0.598  0.00  0.00    +0.149 C 
ATOM     19  C   UNL     1     -32.261  18.403   1.295  0.00  0.00    +0.031 C 
BRANCH  18  23
ATOM     20  O   UNL     1     -33.305  16.081   0.152  0.00  0.00    -0.273 OA
ATOM     21  O   UNL     1     -35.623  14.760  -0.697  0.00  0.00    -0.277 OA
ATOM     22  N   UNL     1     -35.429  17.007  -0.106  0.00  0.00    -0.256 N 
ATOM     23  C   UNL     1     -34.069  17.043   0.211  0.00  0.00    +0.246 C 
ATOM     24  C   UNL     1     -36.120  15.873  -0.540  0.00  0.00    +0.208 C 
ATOM     25  H   UNL     1     -35.938  17.845  -0.018  0.00  0.00    +0.157 HD
BRANCH  24  26
ATOM     26  C   UNL     1     -37.587  16.168  -0.820  0.00  0.00    +0.017 C 
ATOM     27  C   UNL     1     -37.935  17.623  -0.527  0.00  0.00    -0.014 C 
BRANCH  26  28
ATOM     28  N   UNL     1     -38.366  15.289   0.049  0.00  0.00    +0.391 N 
ATOM     29  H   UNL     1     -38.631  15.800   0.891  0.00  0.00    -0.084 HD
ATOM     30  H   UNL     1     -37.797  14.478   0.289  0.00  0.00    -0.084 HD
BRANCH  28  31
ATOM     31  C   UNL     1     -39.570  14.830  -0.628  0.00  0.00    -0.081 C 
ATOM     32  C   UNL     1     -39.240  14.199  -1.969  0.00  0.00    -0.026 C 
ENDBRANCH  28  31
ENDBRANCH  26  28
ENDBRANCH  24  26
ENDBRANCH  18  23
ENDBRANCH   2  18
TORSDOF 12
ENDMDL
MODEL 5
REMARK VINA RESULT:      -5.1      5.917      7.897
REMARK  Name = 5487661
REMARK  12 active torsions:
REMARK  status: ('A' for Active; 'I' for Inactive)
REMARK    1  A    between atoms: N_2  and  C_18
REMARK    2  A    between atoms: C_3  and  C_5
REMARK    3  A    between atoms: C_5  and  N_8
REMARK    4  A    between atoms: C_9  and  C_11
REMARK    5  A    between atoms: C_11  and  C_12
REMARK    6  A    between atoms: C_12  and  C_13
REMARK    7  A    between atoms: C_13  and  C_15
REMARK    8  A    between atoms: C_15  and  O_16
REMARK    9  A    between atoms: C_18  and  C_23
REMARK   10  A    between atoms: C_24  and  C_26
REMARK   11  A    between atoms: C_26  and  N_28
REMARK   12  A    between atoms: N_28  and  C_31
REMARK                            x       y       z     vdW  Elec       q    Type
REMARK                         _______ _______ _______ _____ _____    ______ ____
ROOT
ATOM      1  O   UNL     1     -41.598  27.380   3.930  0.00  0.00    -0.273 OA
ATOM      2  N   UNL     1     -40.924  25.942   2.238  0.00  0.00    -0.297 N 
ATOM      3  C   UNL     1     -41.670  26.989   2.767  0.00  0.00    +0.241 C 
ATOM      4  H   UNL     1     -41.053  25.701   1.292  0.00  0.00    +0.150 HD
ENDROOT
BRANCH   3   5
ATOM      5  C   UNL     1     -42.567  27.643   1.724  0.00  0.00    +0.149 C 
ATOM      6  C   UNL     1     -41.741  28.402   0.696  0.00  0.00    +0.031 C 
BRANCH   5   8
ATOM      7  O   UNL     1     -45.426  27.412   1.789  0.00  0.00    -0.275 OA
ATOM      8  N   UNL     1     -43.482  28.517   2.410  0.00  0.00    -0.298 N 
ATOM      9  C   UNL     1     -44.858  28.323   2.384  0.00  0.00    +0.223 C 
ATOM     10  H   UNL     1     -43.119  29.279   2.917  0.00  0.00    +0.150 HD
BRANCH   9  11
ATOM     11  C   UNL     1     -45.595  29.401   3.162  0.00  0.00    +0.086 C 
BRANCH  11  12
ATOM     12  C   UNL     1     -45.455  29.270   4.676  0.00  0.00    +0.021 C 
BRANCH  12  13
ATOM     13  C   UNL     1     -44.773  30.487   5.306  0.00  0.00    +0.110 C 
BRANCH  13  15
ATOM     14  O   UNL     1     -43.382  30.226   7.287  0.00  0.00    -0.250 OA
ATOM     15  C   UNL     1     -43.534  30.100   6.080  0.00  0.00    +0.314 C 
BRANCH  15  16
ATOM     16  O   UNL     1     -42.582  29.577   5.263  0.00  0.00    -0.480 OA
ATOM     17  H   UNL     1     -42.787  28.847   4.712  0.00  0.00    +0.295 HD
ENDBRANCH  15  16
ENDBRANCH  13  15
ENDBRANCH  12  13
ENDBRANCH  11  12
ENDBRANCH   9  11
ENDBRANCH   5   8
ENDBRANCH   3   5
BRANCH   2  18
ATOM     18  C   UNL     1     -39.971  25.192   3.014  0.00  0.00    +0.149 C 
ATOM     19  C   UNL     1     -39.862  23.760   2.512  0.00  0.00    +0.031 C 
BRANCH  18  23
ATOM     20  O   UNL     1     -38.328  26.677   2.029  0.00  0.00    -0.273 OA
ATOM     21  O   UNL     1     -35.885  26.757   3.394  0.00  0.00    -0.277 OA
ATOM     22  N   UNL     1     -37.775  25.524   3.977  0.00  0.00    -0.256 N 
ATOM     23  C   UNL     1     -38.625  25.901   2.934  0.00  0.00    +0.246 C 
ATOM     24  C   UNL     1     -36.462  25.973   4.143  0.00  0.00    +0.208 C 
ATOM     25  H   UNL     1     -38.128  24.894   4.646  0.00  0.00    +0.157 HD
BRANCH  24  26
ATOM     26  C   UNL     1     -35.798  25.361   5.368  0.00  0.00    +0.017 C 
ATOM     27  C   UNL     1     -34.280  25.485   5.307  0.00  0.00    -0.014 C 
BRANCH  26  28
ATOM     28  N   UNL     1     -36.178  23.951   5.393  0.00  0.00    +0.391 N 
ATOM     29  H   UNL     1     -36.766  23.749   4.584  0.00  0.00    -0.084 HD
ATOM     30  H   UNL     1     -36.686  23.764   6.257  0.00  0.00    -0.084 HD
BRANCH  28  31
ATOM     31  C   UNL     1     -35.000  23.097   5.351  0.00  0.00    -0.081 C 
ATOM     32  C   UNL     1     -35.211  21.831   6.163  0.00  0.00    -0.026 C 
ENDBRANCH  28  31
ENDBRANCH  26  28
ENDBRANCH  24  26
ENDBRANCH  18  23
ENDBRANCH   2  18
TORSDOF 12
ENDMDL
MODEL 6
REMARK VINA RESULT:      -5.0      2.268      7.083
REMARK  Name = 5487661
REMARK  12 active torsions:
REMARK  status: ('A' for Active; 'I' for Inactive)
REMARK    1  A    between atoms: N_2  and  C_18
REMARK    2  A    between atoms: C_3  and  C_5
REMARK    3  A    between atoms: C_5  and  N_8
REMARK    4  A    between atoms: C_9  and  C_11
REMARK    5  A    between atoms: C_11  and  C_12
REMARK    6  A    between atoms: C_12  and  C_13
REMARK    7  A    between atoms: C_13  and  C_15
REMARK    8  A    between atoms: C_15  and  O_16
REMARK    9  A    between atoms: C_18  and  C_23
REMARK   10  A    between atoms: C_24  and  C_26
REMARK   11  A    between atoms: C_26  and  N_28
REMARK   12  A    between atoms: N_28  and  C_31
REMARK                            x       y       z     vdW  Elec       q    Type
REMARK                         _______ _______ _______ _____ _____    ______ ____
ROOT
ATOM      1  O   UNL     1     -34.947  26.695   5.360  0.00  0.00    -0.273 OA
ATOM      2  N   UNL     1     -35.919  25.708   3.498  0.00  0.00    -0.297 N 
ATOM      3  C   UNL     1     -35.003  26.532   4.143  0.00  0.00    +0.241 C 
ATOM      4  H   UNL     1     -35.885  25.644   2.516  0.00  0.00    +0.150 HD
ENDROOT
BRANCH   3   5
ATOM      5  C   UNL     1     -34.030  27.187   3.171  0.00  0.00    +0.149 C 
ATOM      6  C   UNL     1     -32.798  26.319   2.968  0.00  0.00    +0.031 C 
BRANCH   5   8
ATOM      7  O   UNL     1     -34.232  29.701   1.802  0.00  0.00    -0.275 OA
ATOM      8  N   UNL     1     -33.680  28.480   3.697  0.00  0.00    -0.298 N 
ATOM      9  C   UNL     1     -33.813  29.647   2.955  0.00  0.00    +0.223 C 
ATOM     10  H   UNL     1     -33.333  28.539   4.617  0.00  0.00    +0.150 HD
BRANCH   9  11
ATOM     11  C   UNL     1     -33.346  30.867   3.732  0.00  0.00    +0.086 C 
BRANCH  11  12
ATOM     12  C   UNL     1     -31.958  30.709   4.347  0.00  0.00    +0.021 C 
BRANCH  12  13
ATOM     13  C   UNL     1     -32.007  30.586   5.872  0.00  0.00    +0.110 C 
BRANCH  13  15
ATOM     14  O   UNL     1     -30.326  29.017   6.674  0.00  0.00    -0.250 OA
ATOM     15  C   UNL     1     -31.481  29.250   6.346  0.00  0.00    +0.314 C 
BRANCH  15  16
ATOM     16  O   UNL     1     -32.463  28.311   6.371  0.00  0.00    -0.480 OA
ATOM     17  H   UNL     1     -32.305  27.458   6.017  0.00  0.00    +0.295 HD
ENDBRANCH  15  16
ENDBRANCH  13  15
ENDBRANCH  12  13
ENDBRANCH  11  12
ENDBRANCH   9  11
ENDBRANCH   5   8
ENDBRANCH   3   5
BRANCH   2  18
ATOM     18  C   UNL     1     -36.915  24.945   4.203  0.00  0.00    +0.149 C 
ATOM     19  C   UNL     1     -38.121  24.670   3.317  0.00  0.00    +0.031 C 
BRANCH  18  23
ATOM     20  O   UNL     1     -35.880  23.470   5.824  0.00  0.00    -0.273 OA
ATOM     21  O   UNL     1     -35.091  20.992   4.785  0.00  0.00    -0.277 OA
ATOM     22  N   UNL     1     -36.164  22.715   3.637  0.00  0.00    -0.256 N 
ATOM     23  C   UNL     1     -36.278  23.644   4.674  0.00  0.00    +0.246 C 
ATOM     24  C   UNL     1     -35.580  21.450   3.755  0.00  0.00    +0.208 C 
ATOM     25  H   UNL     1     -36.523  22.969   2.757  0.00  0.00    +0.157 HD
BRANCH  24  26
ATOM     26  C   UNL     1     -35.596  20.686   2.439  0.00  0.00    +0.017 C 
ATOM     27  C   UNL     1     -35.215  21.579   1.264  0.00  0.00    -0.014 C 
BRANCH  26  28
ATOM     28  N   UNL     1     -36.957  20.188   2.259  0.00  0.00    +0.391 N 
ATOM     29  H   UNL     1     -37.500  20.387   3.100  0.00  0.00    -0.084 HD
ATOM     30  H   UNL     1     -36.919  19.183   2.090  0.00  0.00    -0.084 HD
BRANCH  28  31
ATOM     31  C   UNL     1     -37.596  20.828   1.119  0.00  0.00    -0.081 C 
ATOM     32  C   UNL     1     -38.914  21.470   1.516  0.00  0.00    -0.026 C 
ENDBRANCH  28  31
ENDBRANCH  26  28
ENDBRANCH  24  26
ENDBRANCH  18  23
ENDBRANCH   2  18
TORSDOF 12
ENDMDL
MODEL 7
REMARK VINA RESULT:      -5.0      2.508      7.621
REMARK  Name = 5487661
REMARK  12 active torsions:
REMARK  status: ('A' for Active; 'I' for Inactive)
REMARK    1  A    between atoms: N_2  and  C_18
REMARK    2  A    between atoms: C_3  and  C_5
REMARK    3  A    between atoms: C_5  and  N_8
REMARK    4  A    between atoms: C_9  and  C_11
REMARK    5  A    between atoms: C_11  and  C_12
REMARK    6  A    between atoms: C_12  and  C_13
REMARK    7  A    between atoms: C_13  and  C_15
REMARK    8  A    between atoms: C_15  and  O_16
REMARK    9  A    between atoms: C_18  and  C_23
REMARK   10  A    between atoms: C_24  and  C_26
REMARK   11  A    between atoms: C_26  and  N_28
REMARK   12  A    between atoms: N_28  and  C_31
REMARK                            x       y       z     vdW  Elec       q    Type
REMARK                         _______ _______ _______ _____ _____    ______ ____
ROOT
ATOM      1  O   UNL     1     -31.763  26.661   2.994  0.00  0.00    -0.273 OA
ATOM      2  N   UNL     1     -33.185  27.639   4.546  0.00  0.00    -0.297 N 
ATOM      3  C   UNL     1     -32.360  27.645   3.427  0.00  0.00    +0.241 C 
ATOM      4  H   UNL     1     -33.620  28.481   4.814  0.00  0.00    +0.150 HD
ENDROOT
BRANCH   3   5
ATOM      5  C   UNL     1     -32.310  29.010   2.752  0.00  0.00    +0.149 C 
ATOM      6  C   UNL     1     -31.982  28.874   1.274  0.00  0.00    +0.031 C 
BRANCH   5   8
ATOM      7  O   UNL     1     -32.739  30.621   5.088  0.00  0.00    -0.275 OA
ATOM      8  N   UNL     1     -31.326  29.807   3.436  0.00  0.00    -0.298 N 
ATOM      9  C   UNL     1     -31.629  30.557   4.566  0.00  0.00    +0.223 C 
ATOM     10  H   UNL     1     -30.404  29.820   3.091  0.00  0.00    +0.150 HD
BRANCH   9  11
ATOM     11  C   UNL     1     -30.422  31.328   5.073  0.00  0.00    +0.086 C 
BRANCH  11  12
ATOM     12  C   UNL     1     -29.239  30.439   5.450  0.00  0.00    +0.021 C 
BRANCH  12  13
ATOM     13  C   UNL     1     -29.597  29.423   6.538  0.00  0.00    +0.110 C 
BRANCH  13  15
ATOM     14  O   UNL     1     -28.848  27.132   6.879  0.00  0.00    -0.250 OA
ATOM     15  C   UNL     1     -29.243  28.012   6.128  0.00  0.00    +0.314 C 
BRANCH  15  16
ATOM     16  O   UNL     1     -29.421  27.824   4.794  0.00  0.00    -0.480 OA
ATOM     17  H   UNL     1     -30.014  28.372   4.318  0.00  0.00    +0.295 HD
ENDBRANCH  15  16
ENDBRANCH  13  15
ENDBRANCH  12  13
ENDBRANCH  11  12
ENDBRANCH   9  11
ENDBRANCH   5   8
ENDBRANCH   3   5
BRANCH   2  18
ATOM     18  C   UNL     1     -33.431  26.458   5.330  0.00  0.00    +0.149 C 
ATOM     19  C   UNL     1     -33.206  26.727   6.810  0.00  0.00    +0.031 C 
BRANCH  18  23
ATOM     20  O   UNL     1     -35.819  26.768   5.060  0.00  0.00    -0.273 OA
ATOM     21  O   UNL     1     -37.245  24.396   4.629  0.00  0.00    -0.277 OA
ATOM     22  N   UNL     1     -34.939  24.615   4.897  0.00  0.00    -0.256 N 
ATOM     23  C   UNL     1     -34.860  25.999   5.070  0.00  0.00    +0.246 C 
ATOM     24  C   UNL     1     -36.122  23.901   4.688  0.00  0.00    +0.208 C 
ATOM     25  H   UNL     1     -34.098  24.105   4.924  0.00  0.00    +0.157 HD
BRANCH  24  26
ATOM     26  C   UNL     1     -35.872  22.405   4.554  0.00  0.00    +0.017 C 
ATOM     27  C   UNL     1     -35.000  21.876   5.686  0.00  0.00    -0.014 C 
BRANCH  26  28
ATOM     28  N   UNL     1     -35.196  22.205   3.275  0.00  0.00    +0.391 N 
ATOM     29  H   UNL     1     -34.227  21.936   3.447  0.00  0.00    -0.084 HD
ATOM     30  H   UNL     1     -35.235  23.075   2.744  0.00  0.00    -0.084 HD
BRANCH  28  31
ATOM     31  C   UNL     1     -35.850  21.159   2.503  0.00  0.00    -0.081 C 
ATOM     32  C   UNL     1     -34.849  20.120   2.026  0.00  0.00    -0.026 C 
ENDBRANCH  28  31
ENDBRANCH  26  28
ENDBRANCH  24  26
ENDBRANCH  18  23
ENDBRANCH   2  18
TORSDOF 12
ENDMDL
MODEL 8
REMARK VINA RESULT:      -5.0      2.530      5.255
REMARK  Name = 5487661
REMARK  12 active torsions:
REMARK  status: ('A' for Active; 'I' for Inactive)
REMARK    1  A    between atoms: N_2  and  C_18
REMARK    2  A    between atoms: C_3  and  C_5
REMARK    3  A    between atoms: C_5  and  N_8
REMARK    4  A    between atoms: C_9  and  C_11
REMARK    5  A    between atoms: C_11  and  C_12
REMARK    6  A    between atoms: C_12  and  C_13
REMARK    7  A    between atoms: C_13  and  C_15
REMARK    8  A    between atoms: C_15  and  O_16
REMARK    9  A    between atoms: C_18  and  C_23
REMARK   10  A    between atoms: C_24  and  C_26
REMARK   11  A    between atoms: C_26  and  N_28
REMARK   12  A    between atoms: N_28  and  C_31
REMARK                            x       y       z     vdW  Elec       q    Type
REMARK                         _______ _______ _______ _____ _____    ______ ____
ROOT
ATOM      1  O   UNL     1     -36.879  24.940   4.727  0.00  0.00    -0.273 OA
ATOM      2  N   UNL     1     -34.692  24.758   5.483  0.00  0.00    -0.297 N 
ATOM      3  C   UNL     1     -35.925  24.253   5.087  0.00  0.00    +0.241 C 
ATOM      4  H   UNL     1     -33.989  24.125   5.756  0.00  0.00    +0.150 HD
ENDROOT
BRANCH   3   5
ATOM      5  C   UNL     1     -35.957  22.730   5.102  0.00  0.00    +0.149 C 
ATOM      6  C   UNL     1     -35.316  22.185   6.369  0.00  0.00    +0.031 C 
BRANCH   5   8
ATOM      7  O   UNL     1     -37.174  21.862   2.652  0.00  0.00    -0.275 OA
ATOM      8  N   UNL     1     -35.275  22.259   3.925  0.00  0.00    -0.298 N 
ATOM      9  C   UNL     1     -35.953  21.859   2.781  0.00  0.00    +0.223 C 
ATOM     10  H   UNL     1     -34.291  22.220   3.932  0.00  0.00    +0.150 HD
BRANCH   9  11
ATOM     11  C   UNL     1     -35.001  21.380   1.697  0.00  0.00    +0.086 C 
BRANCH  11  12
ATOM     12  C   UNL     1     -34.618  19.908   1.824  0.00  0.00    +0.021 C 
BRANCH  12  13
ATOM     13  C   UNL     1     -33.324  19.576   1.076  0.00  0.00    +0.110 C 
BRANCH  13  15
ATOM     14  O   UNL     1     -33.750  17.245   0.517  0.00  0.00    -0.250 OA
ATOM     15  C   UNL     1     -33.050  18.089   1.058  0.00  0.00    +0.314 C 
BRANCH  15  16
ATOM     16  O   UNL     1     -31.906  17.788   1.726  0.00  0.00    -0.480 OA
ATOM     17  H   UNL     1     -31.630  18.319   2.446  0.00  0.00    +0.295 HD
ENDBRANCH  15  16
ENDBRANCH  13  15
ENDBRANCH  12  13
ENDBRANCH  11  12
ENDBRANCH   9  11
ENDBRANCH   5   8
ENDBRANCH   3   5
BRANCH   2  18
ATOM     18  C   UNL     1     -34.398  26.167   5.512  0.00  0.00    +0.149 C 
ATOM     19  C   UNL     1     -33.365  26.488   6.581  0.00  0.00    +0.031 C 
BRANCH  18  23
ATOM     20  O   UNL     1     -32.710  26.635   3.836  0.00  0.00    -0.273 OA
ATOM     21  O   UNL     1     -33.734  27.551   1.397  0.00  0.00    -0.277 OA
ATOM     22  N   UNL     1     -34.955  26.929   3.283  0.00  0.00    -0.256 N 
ATOM     23  C   UNL     1     -33.902  26.581   4.132  0.00  0.00    +0.246 C 
ATOM     24  C   UNL     1     -34.808  27.391   1.972  0.00  0.00    +0.208 C 
ATOM     25  H   UNL     1     -35.870  26.842   3.635  0.00  0.00    +0.157 HD
BRANCH  24  26
ATOM     26  C   UNL     1     -36.149  27.700   1.320  0.00  0.00    +0.017 C 
ATOM     27  C   UNL     1     -36.379  29.201   1.189  0.00  0.00    -0.014 C 
BRANCH  26  28
ATOM     28  N   UNL     1     -37.177  27.114   2.175  0.00  0.00    +0.391 N 
ATOM     29  H   UNL     1     -37.668  27.861   2.667  0.00  0.00    -0.084 HD
ATOM     30  H   UNL     1     -36.730  26.484   2.840  0.00  0.00    -0.084 HD
BRANCH  28  31
ATOM     31  C   UNL     1     -38.135  26.355   1.385  0.00  0.00    -0.081 C 
ATOM     32  C   UNL     1     -37.651  24.934   1.151  0.00  0.00    -0.026 C 
ENDBRANCH  28  31
ENDBRANCH  26  28
ENDBRANCH  24  26
ENDBRANCH  18  23
ENDBRANCH   2  18
TORSDOF 12
ENDMDL
MODEL 9
REMARK VINA RESULT:      -5.0      2.236      4.534
REMARK  Name = 5487661
REMARK  12 active torsions:
REMARK  status: ('A' for Active; 'I' for Inactive)
REMARK    1  A    between atoms: N_2  and  C_18
REMARK    2  A    between atoms: C_3  and  C_5
REMARK    3  A    between atoms: C_5  and  N_8
REMARK    4  A    between atoms: C_9  and  C_11
REMARK    5  A    between atoms: C_11  and  C_12
REMARK    6  A    between atoms: C_12  and  C_13
REMARK    7  A    between atoms: C_13  and  C_15
REMARK    8  A    between atoms: C_15  and  O_16
REMARK    9  A    between atoms: C_18  and  C_23
REMARK   10  A    between atoms: C_24  and  C_26
REMARK   11  A    between atoms: C_26  and  N_28
REMARK   12  A    between atoms: N_28  and  C_31
REMARK                            x       y       z     vdW  Elec       q    Type
REMARK                         _______ _______ _______ _____ _____    ______ ____
ROOT
ATOM      1  O   UNL     1     -33.144  26.447   3.726  0.00  0.00    -0.273 OA
ATOM      2  N   UNL     1     -35.351  27.162   3.742  0.00  0.00    -0.297 N 
ATOM      3  C   UNL     1     -34.223  26.574   4.301  0.00  0.00    +0.241 C 
ATOM      4  H   UNL     1     -36.172  27.216   4.284  0.00  0.00    +0.150 HD
ENDROOT
BRANCH   3   5
ATOM      5  C   UNL     1     -34.453  26.135   5.741  0.00  0.00    +0.149 C 
ATOM      6  C   UNL     1     -33.304  26.577   6.634  0.00  0.00    +0.031 C 
BRANCH   5   8
ATOM      7  O   UNL     1     -36.791  24.657   4.977  0.00  0.00    -0.275 OA
ATOM      8  N   UNL     1     -34.604  24.703   5.751  0.00  0.00    -0.298 N 
ATOM      9  C   UNL     1     -35.781  24.076   5.361  0.00  0.00    +0.223 C 
ATOM     10  H   UNL     1     -33.845  24.149   6.044  0.00  0.00    +0.150 HD
BRANCH   9  11
ATOM     11  C   UNL     1     -35.686  22.565   5.494  0.00  0.00    +0.086 C 
BRANCH  11  12
ATOM     12  C   UNL     1     -35.016  21.884   4.303  0.00  0.00    +0.021 C 
BRANCH  12  13
ATOM     13  C   UNL     1     -35.917  21.853   3.066  0.00  0.00    +0.110 C 
BRANCH  13  15
ATOM     14  O   UNL     1     -34.915  20.225   1.559  0.00  0.00    -0.250 OA
ATOM     15  C   UNL     1     -35.814  20.539   2.327  0.00  0.00    +0.314 C 
BRANCH  15  16
ATOM     16  O   UNL     1     -36.858  19.721   2.621  0.00  0.00    -0.480 OA
ATOM     17  H   UNL     1     -36.717  18.800   2.722  0.00  0.00    +0.295 HD
ENDBRANCH  15  16
ENDBRANCH  13  15
ENDBRANCH  12  13
ENDBRANCH  11  12
ENDBRANCH   9  11
ENDBRANCH   5   8
ENDBRANCH   3   5
BRANCH   2  18
ATOM     18  C   UNL     1     -35.374  27.697   2.406  0.00  0.00    +0.149 C 
ATOM     19  C   UNL     1     -36.695  27.392   1.717  0.00  0.00    +0.031 C 
BRANCH  18  23
ATOM     20  O   UNL     1     -35.843  30.023   1.910  0.00  0.00    -0.273 OA
ATOM     21  O   UNL     1     -34.004  31.826   3.011  0.00  0.00    -0.277 OA
ATOM     22  N   UNL     1     -34.004  29.506   3.246  0.00  0.00    -0.256 N 
ATOM     23  C   UNL     1     -35.135  29.199   2.487  0.00  0.00    +0.246 C 
ATOM     24  C   UNL     1     -33.509  30.795   3.461  0.00  0.00    +0.208 C 
ATOM     25  H   UNL     1     -33.518  28.758   3.662  0.00  0.00    +0.157 HD
BRANCH  24  26
ATOM     26  C   UNL     1     -32.251  30.791   4.319  0.00  0.00    +0.017 C 
ATOM     27  C   UNL     1     -31.162  31.676   3.725  0.00  0.00    -0.014 C 
BRANCH  26  28
ATOM     28  N   UNL     1     -31.787  29.407   4.377  0.00  0.00    +0.391 N 
ATOM     29  H   UNL     1     -31.252  29.198   3.534  0.00  0.00    -0.084 HD
ATOM     30  H   UNL     1     -32.598  28.793   4.445  0.00  0.00    -0.084 HD
BRANCH  28  31
ATOM     31  C   UNL     1     -30.942  29.194   5.543  0.00  0.00    -0.081 C 
ATOM     32  C   UNL     1     -31.582  29.766   6.796  0.00  0.00    -0.026 C 
ENDBRANCH  28  31
ENDBRANCH  26  28
ENDBRANCH  24  26
ENDBRANCH  18  23
ENDBRANCH   2  18
TORSDOF 12
ENDMDL
