MODEL 1
REMARK VINA RESULT:      -5.9      0.000      0.000
REMARK  Name = 190874
REMARK  10 active torsions:
REMARK  status: ('A' for Active; 'I' for Inactive)
REMARK    1  A    between atoms: N_1  and  C_9
REMARK    2  A    between atoms: N_1  and  C_16
REMARK    3  A    between atoms: C_8  and  C_13
REMARK    4  A    between atoms: C_13  and  O_14
REMARK    5  A    between atoms: C_17  and  C_19
REMARK    6  A    between atoms: C_17  and  C_24
REMARK    7  A    between atoms: C_19  and  O_20
REMARK    8  A    between atoms: O_20  and  C_21
REMARK    9  A    between atoms: C_24  and  O_25
REMARK   10  A    between atoms: O_25  and  C_26
REMARK                            x       y       z     vdW  Elec       q    Type
REMARK                         _______ _______ _______ _____ _____    ______ ____
ROOT
ATOM      1  N   UNL     1     -37.747  25.163   4.352  0.00  0.00    -0.308 N 
ATOM      2  H   UNL     1     -38.383  24.953   5.072  0.00  0.00    +0.149 HD
ENDROOT
BRANCH   1   9
ATOM      3  O   UNL     1     -40.011  24.885   0.636  0.00  0.00    -0.332 OA
ATOM      4  O   UNL     1     -39.538  26.751   1.973  0.00  0.00    -0.330 OA
ATOM      5  O   UNL     1     -38.265  23.593   2.657  0.00  0.00    -0.333 OA
ATOM      6  C   UNL     1     -40.304  24.545   1.992  0.00  0.00    +0.178 C 
ATOM      7  C   UNL     1     -39.575  25.587   2.790  0.00  0.00    +0.193 C 
ATOM      8  C   UNL     1     -39.643  23.254   2.425  0.00  0.00    +0.176 C 
ATOM      9  C   UNL     1     -38.181  24.991   2.987  0.00  0.00    +0.219 C 
ATOM     10  C   UNL     1     -39.841  26.307   0.642  0.00  0.00    +0.188 C 
ATOM     11  C   UNL     1     -38.692  26.670  -0.288  0.00  0.00    +0.061 C 
ATOM     12  C   UNL     1     -41.138  26.973   0.192  0.00  0.00    +0.061 C 
BRANCH   8  13
ATOM     13  C   UNL     1     -39.719  22.126   1.414  0.00  0.00    +0.169 C 
BRANCH  13  14
ATOM     14  O   UNL     1     -40.289  20.987   2.038  0.00  0.00    -0.379 OA
ATOM     15  H   UNL     1     -41.114  21.240   2.482  0.00  0.00    +0.211 HD
ENDBRANCH  13  14
ENDBRANCH   8  13
ENDBRANCH   1   9
BRANCH   1  16
ATOM     16  C   UNL     1     -36.508  25.597   4.699  0.00  0.00    +0.073 C 
ATOM     17  C   UNL     1     -35.419  24.904   5.070  0.00  0.00    +0.165 C 
BRANCH  17  19
ATOM     18  O   UNL     1     -34.079  26.460   6.319  0.00  0.00    -0.245 OA
ATOM     19  C   UNL     1     -34.197  25.701   5.368  0.00  0.00    +0.349 C 
BRANCH  19  20
ATOM     20  O   UNL     1     -33.244  25.421   4.439  0.00  0.00    -0.445 OA
BRANCH  20  21
ATOM     21  C   UNL     1     -33.211  26.292   3.304  0.00  0.00    +0.209 C 
ATOM     22  C   UNL     1     -33.416  25.473   2.047  0.00  0.00    +0.051 C 
ENDBRANCH  20  21
ENDBRANCH  19  20
ENDBRANCH  17  19
BRANCH  17  24
ATOM     23  O   UNL     1     -35.785  22.798   6.167  0.00  0.00    -0.245 OA
ATOM     24  C   UNL     1     -35.496  23.421   5.157  0.00  0.00    +0.349 C 
BRANCH  24  25
ATOM     25  O   UNL     1     -35.227  22.892   3.932  0.00  0.00    -0.445 OA
BRANCH  25  26
ATOM     26  C   UNL     1     -35.616  21.527   3.750  0.00  0.00    +0.209 C 
ATOM     27  C   UNL     1     -35.389  21.138   2.305  0.00  0.00    +0.051 C 
ENDBRANCH  25  26
ENDBRANCH  24  25
ENDBRANCH  17  24
ENDBRANCH   1  16
TORSDOF 10
ENDMDL
MODEL 2
REMARK VINA RESULT:      -5.8      2.324      5.337
REMARK  Name = 190874
REMARK  10 active torsions:
REMARK  status: ('A' for Active; 'I' for Inactive)
REMARK    1  A    between atoms: N_1  and  C_9
REMARK    2  A    between atoms: N_1  and  C_16
REMARK    3  A    between atoms: C_8  and  C_13
REMARK    4  A    between atoms: C_13  and  O_14
REMARK    5  A    between atoms: C_17  and  C_19
REMARK    6  A    between atoms: C_17  and  C_24
REMARK    7  A    between atoms: C_19  and  O_20
REMARK    8  A    between atoms: O_20  and  C_21
REMARK    9  A    between atoms: C_24  and  O_25
REMARK   10  A    between atoms: O_25  and  C_26
REMARK                            x       y       z     vdW  Elec       q    Type
REMARK                         _______ _______ _______ _____ _____    ______ ____
ROOT
ATOM      1  N   UNL     1     -35.461  26.883   4.502  0.00  0.00    -0.308 N 
ATOM      2  H   UNL     1     -35.835  27.641   5.006  0.00  0.00    +0.149 HD
ENDROOT
BRANCH   1   9
ATOM      3  O   UNL     1     -36.859  22.784   3.994  0.00  0.00    -0.332 OA
ATOM      4  O   UNL     1     -34.713  23.592   4.482  0.00  0.00    -0.330 OA
ATOM      5  O   UNL     1     -37.479  25.676   4.222  0.00  0.00    -0.333 OA
ATOM      6  C   UNL     1     -36.565  23.841   3.081  0.00  0.00    +0.178 C 
ATOM      7  C   UNL     1     -35.420  24.569   3.726  0.00  0.00    +0.193 C 
ATOM      8  C   UNL     1     -37.655  24.889   3.032  0.00  0.00    +0.176 C 
ATOM      9  C   UNL     1     -36.101  25.597   4.629  0.00  0.00    +0.219 C 
ATOM     10  C   UNL     1     -35.605  22.475   4.615  0.00  0.00    +0.188 C 
ATOM     11  C   UNL     1     -35.843  22.190   6.092  0.00  0.00    +0.061 C 
ATOM     12  C   UNL     1     -34.980  21.269   3.921  0.00  0.00    +0.061 C 
BRANCH   8  13
ATOM     13  C   UNL     1     -39.069  24.341   2.998  0.00  0.00    +0.169 C 
BRANCH  13  14
ATOM     14  O   UNL     1     -39.811  24.918   4.060  0.00  0.00    -0.379 OA
ATOM     15  H   UNL     1     -40.182  24.214   4.616  0.00  0.00    +0.211 HD
ENDBRANCH  13  14
ENDBRANCH   8  13
ENDBRANCH   1   9
BRANCH   1  16
ATOM     16  C   UNL     1     -34.370  27.107   3.725  0.00  0.00    +0.073 C 
ATOM     17  C   UNL     1     -33.092  27.335   4.070  0.00  0.00    +0.165 C 
BRANCH  17  19
ATOM     18  O   UNL     1     -31.855  28.602   2.446  0.00  0.00    -0.245 OA
ATOM     19  C   UNL     1     -32.128  27.524   2.951  0.00  0.00    +0.349 C 
BRANCH  19  20
ATOM     20  O   UNL     1     -31.590  26.319   2.618  0.00  0.00    -0.445 OA
BRANCH  20  21
ATOM     21  C   UNL     1     -31.602  26.001   1.222  0.00  0.00    +0.209 C 
ATOM     22  C   UNL     1     -32.843  25.193   0.911  0.00  0.00    +0.051 C 
ENDBRANCH  20  21
ENDBRANCH  19  20
ENDBRANCH  17  19
BRANCH  17  24
ATOM     23  O   UNL     1     -33.424  26.956   6.419  0.00  0.00    -0.245 OA
ATOM     24  C   UNL     1     -32.726  27.381   5.511  0.00  0.00    +0.349 C 
BRANCH  24  25
ATOM     25  O   UNL     1     -31.490  27.938   5.635  0.00  0.00    -0.445 OA
BRANCH  25  26
ATOM     26  C   UNL     1     -31.395  29.029   6.556  0.00  0.00    +0.209 C 
ATOM     27  C   UNL     1     -31.921  30.283   5.891  0.00  0.00    +0.051 C 
ENDBRANCH  25  26
ENDBRANCH  24  25
ENDBRANCH  17  24
ENDBRANCH   1  16
TORSDOF 10
ENDMDL
MODEL 3
REMARK VINA RESULT:      -5.7      2.326      6.541
REMARK  Name = 190874
REMARK  10 active torsions:
REMARK  status: ('A' for Active; 'I' for Inactive)
REMARK    1  A    between atoms: N_1  and  C_9
REMARK    2  A    between atoms: N_1  and  C_16
REMARK    3  A    between atoms: C_8  and  C_13
REMARK    4  A    between atoms: C_13  and  O_14
REMARK    5  A    between atoms: C_17  and  C_19
REMARK    6  A    between atoms: C_17  and  C_24
REMARK    7  A    between atoms: C_19  and  O_20
REMARK    8  A    between atoms: O_20  and  C_21
REMARK    9  A    between atoms: C_24  and  O_25
REMARK   10  A    between atoms: O_25  and  C_26
REMARK                            x       y       z     vdW  Elec       q    Type
REMARK                         _______ _______ _______ _____ _____    ______ ____
ROOT
ATOM      1  N   UNL     1     -35.453  25.938   2.765  0.00  0.00    -0.308 N 
ATOM      2  H   UNL     1     -34.821  25.382   2.256  0.00  0.00    +0.149 HD
ENDROOT
BRANCH   1   9
ATOM      3  O   UNL     1     -32.963  29.046   4.541  0.00  0.00    -0.332 OA
ATOM      4  O   UNL     1     -33.678  28.775   2.325  0.00  0.00    -0.330 OA
ATOM      5  O   UNL     1     -34.699  26.666   4.888  0.00  0.00    -0.333 OA
ATOM      6  C   UNL     1     -32.719  27.692   4.158  0.00  0.00    +0.178 C 
ATOM      7  C   UNL     1     -33.584  27.498   2.946  0.00  0.00    +0.193 C 
ATOM      8  C   UNL     1     -33.285  26.696   5.147  0.00  0.00    +0.176 C 
ATOM      9  C   UNL     1     -34.927  27.049   3.521  0.00  0.00    +0.219 C 
ATOM     10  C   UNL     1     -33.260  29.726   3.315  0.00  0.00    +0.188 C 
ATOM     11  C   UNL     1     -34.382  30.725   3.566  0.00  0.00    +0.061 C 
ATOM     12  C   UNL     1     -32.005  30.432   2.811  0.00  0.00    +0.061 C 
BRANCH   8  13
ATOM     13  C   UNL     1     -33.050  27.039   6.606  0.00  0.00    +0.169 C 
BRANCH  13  14
ATOM     14  O   UNL     1     -31.684  27.378   6.783  0.00  0.00    -0.379 OA
ATOM     15  H   UNL     1     -31.566  28.331   6.644  0.00  0.00    +0.211 HD
ENDBRANCH  13  14
ENDBRANCH   8  13
ENDBRANCH   1   9
BRANCH   1  16
ATOM     16  C   UNL     1     -36.771  25.618   2.717  0.00  0.00    +0.073 C 
ATOM     17  C   UNL     1     -37.408  24.505   3.117  0.00  0.00    +0.165 C 
BRANCH  17  19
ATOM     18  O   UNL     1     -39.696  24.741   3.813  0.00  0.00    -0.245 OA
ATOM     19  C   UNL     1     -38.886  24.486   2.935  0.00  0.00    +0.349 C 
BRANCH  19  20
ATOM     20  O   UNL     1     -39.172  24.173   1.641  0.00  0.00    -0.445 OA
BRANCH  20  21
ATOM     21  C   UNL     1     -40.153  23.147   1.455  0.00  0.00    +0.209 C 
ATOM     22  C   UNL     1     -39.554  21.815   1.854  0.00  0.00    +0.051 C 
ENDBRANCH  20  21
ENDBRANCH  19  20
ENDBRANCH  17  19
BRANCH  17  24
ATOM     23  O   UNL     1     -36.251  22.399   3.091  0.00  0.00    -0.245 OA
ATOM     24  C   UNL     1     -36.620  23.389   3.705  0.00  0.00    +0.349 C 
BRANCH  24  25
ATOM     25  O   UNL     1     -36.358  23.672   5.011  0.00  0.00    -0.445 OA
BRANCH  25  26
ATOM     26  C   UNL     1     -35.090  23.222   5.498  0.00  0.00    +0.209 C 
ATOM     27  C   UNL     1     -35.309  22.051   6.432  0.00  0.00    +0.051 C 
ENDBRANCH  25  26
ENDBRANCH  24  25
ENDBRANCH  17  24
ENDBRANCH   1  16
TORSDOF 10
ENDMDL
MODEL 4
REMARK VINA RESULT:      -5.7      2.567      5.421
REMARK  Name = 190874
REMARK  10 active torsions:
REMARK  status: ('A' for Active; 'I' for Inactive)
REMARK    1  A    between atoms: N_1  and  C_9
REMARK    2  A    between atoms: N_1  and  C_16
REMARK    3  A    between atoms: C_8  and  C_13
REMARK    4  A    between atoms: C_13  and  O_14
REMARK    5  A    between atoms: C_17  and  C_19
REMARK    6  A    between atoms: C_17  and  C_24
REMARK    7  A    between atoms: C_19  and  O_20
REMARK    8  A    between atoms: O_20  and  C_21
REMARK    9  A    between atoms: C_24  and  O_25
REMARK   10  A    between atoms: O_25  and  C_26
REMARK                            x       y       z     vdW  Elec       q    Type
REMARK                         _______ _______ _______ _____ _____    ______ ____
ROOT
ATOM      1  N   UNL     1     -35.539  26.951   4.199  0.00  0.00    -0.308 N 
ATOM      2  H   UNL     1     -35.993  27.758   4.532  0.00  0.00    +0.149 HD
ENDROOT
BRANCH   1   9
ATOM      3  O   UNL     1     -36.966  22.838   3.953  0.00  0.00    -0.332 OA
ATOM      4  O   UNL     1     -34.794  23.660   4.273  0.00  0.00    -0.330 OA
ATOM      5  O   UNL     1     -37.570  25.739   4.095  0.00  0.00    -0.333 OA
ATOM      6  C   UNL     1     -36.728  23.854   2.979  0.00  0.00    +0.178 C 
ATOM      7  C   UNL     1     -35.547  24.606   3.522  0.00  0.00    +0.193 C 
ATOM      8  C   UNL     1     -37.820  24.903   2.952  0.00  0.00    +0.176 C 
ATOM      9  C   UNL     1     -36.171  25.673   4.420  0.00  0.00    +0.219 C 
ATOM     10  C   UNL     1     -35.676  22.552   4.508  0.00  0.00    +0.188 C 
ATOM     11  C   UNL     1     -35.823  22.331   6.007  0.00  0.00    +0.061 C 
ATOM     12  C   UNL     1     -35.096  21.316   3.829  0.00  0.00    +0.061 C 
BRANCH   8  13
ATOM     13  C   UNL     1     -39.233  24.357   3.029  0.00  0.00    +0.169 C 
BRANCH  13  14
ATOM     14  O   UNL     1     -39.903  24.969   4.119  0.00  0.00    -0.379 OA
ATOM     15  H   UNL     1     -39.404  24.811   4.936  0.00  0.00    +0.211 HD
ENDBRANCH  13  14
ENDBRANCH   8  13
ENDBRANCH   1   9
BRANCH   1  16
ATOM     16  C   UNL     1     -34.352  27.103   3.557  0.00  0.00    +0.073 C 
ATOM     17  C   UNL     1     -33.106  27.196   4.049  0.00  0.00    +0.165 C 
BRANCH  17  19
ATOM     18  O   UNL     1     -31.230  26.449   2.747  0.00  0.00    -0.245 OA
ATOM     19  C   UNL     1     -32.009  27.339   3.053  0.00  0.00    +0.349 C 
BRANCH  19  20
ATOM     20  O   UNL     1     -32.044  28.595   2.529  0.00  0.00    -0.445 OA
BRANCH  20  21
ATOM     21  C   UNL     1     -30.878  29.393   2.757  0.00  0.00    +0.209 C 
ATOM     22  C   UNL     1     -31.306  30.790   3.152  0.00  0.00    +0.051 C 
ENDBRANCH  20  21
ENDBRANCH  19  20
ENDBRANCH  17  19
BRANCH  17  24
ATOM     23  O   UNL     1     -33.686  26.655   6.317  0.00  0.00    -0.245 OA
ATOM     24  C   UNL     1     -32.902  27.150   5.522  0.00  0.00    +0.349 C 
BRANCH  24  25
ATOM     25  O   UNL     1     -31.699  27.713   5.819  0.00  0.00    -0.445 OA
BRANCH  25  26
ATOM     26  C   UNL     1     -31.756  29.016   6.409  0.00  0.00    +0.209 C 
ATOM     27  C   UNL     1     -30.346  29.524   6.621  0.00  0.00    +0.051 C 
ENDBRANCH  25  26
ENDBRANCH  24  25
ENDBRANCH  17  24
ENDBRANCH   1  16
TORSDOF 10
ENDMDL
MODEL 5
REMARK VINA RESULT:      -5.7      2.986      5.385
REMARK  Name = 190874
REMARK  10 active torsions:
REMARK  status: ('A' for Active; 'I' for Inactive)
REMARK    1  A    between atoms: N_1  and  C_9
REMARK    2  A    between atoms: N_1  and  C_16
REMARK    3  A    between atoms: C_8  and  C_13
REMARK    4  A    between atoms: C_13  and  O_14
REMARK    5  A    between atoms: C_17  and  C_19
REMARK    6  A    between atoms: C_17  and  C_24
REMARK    7  A    between atoms: C_19  and  O_20
REMARK    8  A    between atoms: O_20  and  C_21
REMARK    9  A    between atoms: C_24  and  O_25
REMARK   10  A    between atoms: O_25  and  C_26
REMARK                            x       y       z     vdW  Elec       q    Type
REMARK                         _______ _______ _______ _____ _____    ______ ____
ROOT
ATOM      1  N   UNL     1     -33.396  25.437   3.195  0.00  0.00    -0.308 N 
ATOM      2  H   UNL     1     -32.500  25.051   3.320  0.00  0.00    +0.149 HD
ENDROOT
BRANCH   1   9
ATOM      3  O   UNL     1     -37.263  23.664   4.152  0.00  0.00    -0.332 OA
ATOM      4  O   UNL     1     -36.734  25.425   2.698  0.00  0.00    -0.330 OA
ATOM      5  O   UNL     1     -34.306  23.606   4.388  0.00  0.00    -0.333 OA
ATOM      6  C   UNL     1     -36.398  24.566   4.843  0.00  0.00    +0.178 C 
ATOM      7  C   UNL     1     -35.773  25.379   3.746  0.00  0.00    +0.193 C 
ATOM      8  C   UNL     1     -35.212  23.869   5.473  0.00  0.00    +0.176 C 
ATOM      9  C   UNL     1     -34.539  24.571   3.347  0.00  0.00    +0.219 C 
ATOM     10  C   UNL     1     -37.672  24.375   2.977  0.00  0.00    +0.188 C 
ATOM     11  C   UNL     1     -37.713  23.406   1.804  0.00  0.00    +0.061 C 
ATOM     12  C   UNL     1     -39.043  25.000   3.217  0.00  0.00    +0.061 C 
BRANCH   8  13
ATOM     13  C   UNL     1     -35.537  22.567   6.181  0.00  0.00    +0.169 C 
BRANCH  13  14
ATOM     14  O   UNL     1     -35.640  21.533   5.217  0.00  0.00    -0.379 OA
ATOM     15  H   UNL     1     -36.151  21.850   4.455  0.00  0.00    +0.211 HD
ENDBRANCH  13  14
ENDBRANCH   8  13
ENDBRANCH   1   9
BRANCH   1  16
ATOM     16  C   UNL     1     -33.487  26.756   2.886  0.00  0.00    +0.073 C 
ATOM     17  C   UNL     1     -33.248  27.841   3.640  0.00  0.00    +0.165 C 
BRANCH  17  19
ATOM     18  O   UNL     1     -32.806  29.535   1.993  0.00  0.00    -0.245 OA
ATOM     19  C   UNL     1     -33.429  29.162   2.976  0.00  0.00    +0.349 C 
BRANCH  19  20
ATOM     20  O   UNL     1     -34.409  29.854   3.619  0.00  0.00    -0.445 OA
BRANCH  20  21
ATOM     21  C   UNL     1     -34.654  31.177   3.132  0.00  0.00    +0.209 C 
ATOM     22  C   UNL     1     -35.915  31.167   2.295  0.00  0.00    +0.051 C 
ENDBRANCH  20  21
ENDBRANCH  19  20
ENDBRANCH  17  19
BRANCH  17  24
ATOM     23  O   UNL     1     -33.417  26.981   5.877  0.00  0.00    -0.245 OA
ATOM     24  C   UNL     1     -32.824  27.664   5.055  0.00  0.00    +0.349 C 
BRANCH  24  25
ATOM     25  O   UNL     1     -31.668  28.353   5.261  0.00  0.00    -0.445 OA
BRANCH  25  26
ATOM     26  C   UNL     1     -31.618  29.129   6.462  0.00  0.00    +0.209 C 
ATOM     27  C   UNL     1     -31.928  30.573   6.129  0.00  0.00    +0.051 C 
ENDBRANCH  25  26
ENDBRANCH  24  25
ENDBRANCH  17  24
ENDBRANCH   1  16
TORSDOF 10
ENDMDL
MODEL 6
REMARK VINA RESULT:      -5.6      1.699      2.331
REMARK  Name = 190874
REMARK  10 active torsions:
REMARK  status: ('A' for Active; 'I' for Inactive)
REMARK    1  A    between atoms: N_1  and  C_9
REMARK    2  A    between atoms: N_1  and  C_16
REMARK    3  A    between atoms: C_8  and  C_13
REMARK    4  A    between atoms: C_13  and  O_14
REMARK    5  A    between atoms: C_17  and  C_19
REMARK    6  A    between atoms: C_17  and  C_24
REMARK    7  A    between atoms: C_19  and  O_20
REMARK    8  A    between atoms: O_20  and  C_21
REMARK    9  A    between atoms: C_24  and  O_25
REMARK   10  A    between atoms: O_25  and  C_26
REMARK                            x       y       z     vdW  Elec       q    Type
REMARK                         _______ _______ _______ _____ _____    ______ ____
ROOT
ATOM      1  N   UNL     1     -35.958  24.519   2.239  0.00  0.00    -0.308 N 
ATOM      2  H   UNL     1     -35.517  23.641   2.285  0.00  0.00    +0.149 HD
ENDROOT
BRANCH   1   9
ATOM      3  O   UNL     1     -40.309  24.618   1.970  0.00  0.00    -0.332 OA
ATOM      4  O   UNL     1     -38.820  26.201   2.850  0.00  0.00    -0.330 OA
ATOM      5  O   UNL     1     -37.745  23.290   1.289  0.00  0.00    -0.333 OA
ATOM      6  C   UNL     1     -39.394  23.937   2.829  0.00  0.00    +0.178 C 
ATOM      7  C   UNL     1     -38.253  24.902   2.979  0.00  0.00    +0.193 C 
ATOM      8  C   UNL     1     -38.749  22.742   2.161  0.00  0.00    +0.176 C 
ATOM      9  C   UNL     1     -37.333  24.569   1.804  0.00  0.00    +0.219 C 
ATOM     10  C   UNL     1     -40.111  26.009   2.251  0.00  0.00    +0.188 C 
ATOM     11  C   UNL     1     -40.186  26.791   0.947  0.00  0.00    +0.061 C 
ATOM     12  C   UNL     1     -41.177  26.484   3.233  0.00  0.00    +0.061 C 
BRANCH   8  13
ATOM     13  C   UNL     1     -39.693  21.872   1.354  0.00  0.00    +0.169 C 
BRANCH  13  14
ATOM     14  O   UNL     1     -40.343  20.965   2.230  0.00  0.00    -0.379 OA
ATOM     15  H   UNL     1     -40.595  20.166   1.740  0.00  0.00    +0.211 HD
ENDBRANCH  13  14
ENDBRANCH   8  13
ENDBRANCH   1   9
BRANCH   1  16
ATOM     16  C   UNL     1     -35.239  25.617   2.587  0.00  0.00    +0.073 C 
ATOM     17  C   UNL     1     -34.856  26.054   3.797  0.00  0.00    +0.165 C 
BRANCH  17  19
ATOM     18  O   UNL     1     -34.450  28.399   3.462  0.00  0.00    -0.245 OA
ATOM     19  C   UNL     1     -34.047  27.304   3.824  0.00  0.00    +0.349 C 
BRANCH  19  20
ATOM     20  O   UNL     1     -32.819  27.029   4.341  0.00  0.00    -0.445 OA
BRANCH  20  21
ATOM     21  C   UNL     1     -32.221  28.079   5.109  0.00  0.00    +0.209 C 
ATOM     22  C   UNL     1     -32.309  27.726   6.579  0.00  0.00    +0.051 C 
ENDBRANCH  20  21
ENDBRANCH  19  20
ENDBRANCH  17  19
BRANCH  17  24
ATOM     23  O   UNL     1     -35.897  25.736   5.939  0.00  0.00    -0.245 OA
ATOM     24  C   UNL     1     -35.251  25.283   5.007  0.00  0.00    +0.349 C 
BRANCH  24  25
ATOM     25  O   UNL     1     -34.803  24.004   4.881  0.00  0.00    -0.445 OA
BRANCH  25  26
ATOM     26  C   UNL     1     -35.719  22.986   5.299  0.00  0.00    +0.209 C 
ATOM     27  C   UNL     1     -34.982  21.987   6.165  0.00  0.00    +0.051 C 
ENDBRANCH  25  26
ENDBRANCH  24  25
ENDBRANCH  17  24
ENDBRANCH   1  16
TORSDOF 10
ENDMDL
MODEL 7
REMARK VINA RESULT:      -5.6      1.416      6.218
REMARK  Name = 190874
REMARK  10 active torsions:
REMARK  status: ('A' for Active; 'I' for Inactive)
REMARK    1  A    between atoms: N_1  and  C_9
REMARK    2  A    between atoms: N_1  and  C_16
REMARK    3  A    between atoms: C_8  and  C_13
REMARK    4  A    between atoms: C_13  and  O_14
REMARK    5  A    between atoms: C_17  and  C_19
REMARK    6  A    between atoms: C_17  and  C_24
REMARK    7  A    between atoms: C_19  and  O_20
REMARK    8  A    between atoms: O_20  and  C_21
REMARK    9  A    between atoms: C_24  and  O_25
REMARK   10  A    between atoms: O_25  and  C_26
REMARK                            x       y       z     vdW  Elec       q    Type
REMARK                         _______ _______ _______ _____ _____    ______ ____
ROOT
ATOM      1  N   UNL     1     -38.070  25.210   4.172  0.00  0.00    -0.308 N 
ATOM      2  H   UNL     1     -38.599  25.961   4.524  0.00  0.00    +0.149 HD
ENDROOT
BRANCH   1   9
ATOM      3  O   UNL     1     -33.763  24.552   4.352  0.00  0.00    -0.332 OA
ATOM      4  O   UNL     1     -34.996  26.100   3.096  0.00  0.00    -0.330 OA
ATOM      5  O   UNL     1     -36.476  23.958   5.396  0.00  0.00    -0.333 OA
ATOM      6  C   UNL     1     -34.837  23.855   3.720  0.00  0.00    +0.178 C 
ATOM      7  C   UNL     1     -35.794  24.944   3.329  0.00  0.00    +0.193 C 
ATOM      8  C   UNL     1     -35.643  23.021   4.692  0.00  0.00    +0.176 C 
ATOM      9  C   UNL     1     -36.684  25.111   4.561  0.00  0.00    +0.219 C 
ATOM     10  C   UNL     1     -33.726  25.832   3.710  0.00  0.00    +0.188 C 
ATOM     11  C   UNL     1     -33.432  26.899   4.754  0.00  0.00    +0.061 C 
ATOM     12  C   UNL     1     -32.655  25.822   2.623  0.00  0.00    +0.061 C 
BRANCH   8  13
ATOM     13  C   UNL     1     -34.821  22.231   5.692  0.00  0.00    +0.169 C 
BRANCH  13  14
ATOM     14  O   UNL     1     -35.270  20.886   5.696  0.00  0.00    -0.379 OA
ATOM     15  H   UNL     1     -34.630  20.331   6.169  0.00  0.00    +0.211 HD
ENDBRANCH  13  14
ENDBRANCH   8  13
ENDBRANCH   1   9
BRANCH   1  16
ATOM     16  C   UNL     1     -38.684  24.326   3.345  0.00  0.00    +0.073 C 
ATOM     17  C   UNL     1     -39.729  24.493   2.519  0.00  0.00    +0.165 C 
BRANCH  17  19
ATOM     18  O   UNL     1     -40.912  23.336   0.776  0.00  0.00    -0.245 OA
ATOM     19  C   UNL     1     -40.146  23.303   1.728  0.00  0.00    +0.349 C 
BRANCH  19  20
ATOM     20  O   UNL     1     -39.515  22.200   2.215  0.00  0.00    -0.445 OA
BRANCH  20  21
ATOM     21  C   UNL     1     -38.876  21.370   1.240  0.00  0.00    +0.209 C 
ATOM     22  C   UNL     1     -37.415  21.215   1.605  0.00  0.00    +0.051 C 
ENDBRANCH  20  21
ENDBRANCH  19  20
ENDBRANCH  17  19
BRANCH  17  24
ATOM     23  O   UNL     1     -41.568  26.031   2.693  0.00  0.00    -0.245 OA
ATOM     24  C   UNL     1     -40.390  25.824   2.444  0.00  0.00    +0.349 C 
BRANCH  24  25
ATOM     25  O   UNL     1     -39.464  26.758   2.088  0.00  0.00    -0.445 OA
BRANCH  25  26
ATOM     26  C   UNL     1     -39.117  26.784   0.700  0.00  0.00    +0.209 C 
ATOM     27  C   UNL     1     -37.627  27.016   0.569  0.00  0.00    +0.051 C 
ENDBRANCH  25  26
ENDBRANCH  24  25
ENDBRANCH  17  24
ENDBRANCH   1  16
TORSDOF 10
ENDMDL
MODEL 8
REMARK VINA RESULT:      -5.6      1.653      3.003
REMARK  Name = 190874
REMARK  10 active torsions:
REMARK  status: ('A' for Active; 'I' for Inactive)
REMARK    1  A    between atoms: N_1  and  C_9
REMARK    2  A    between atoms: N_1  and  C_16
REMARK    3  A    between atoms: C_8  and  C_13
REMARK    4  A    between atoms: C_13  and  O_14
REMARK    5  A    between atoms: C_17  and  C_19
REMARK    6  A    between atoms: C_17  and  C_24
REMARK    7  A    between atoms: C_19  and  O_20
REMARK    8  A    between atoms: O_20  and  C_21
REMARK    9  A    between atoms: C_24  and  O_25
REMARK   10  A    between atoms: O_25  and  C_26
REMARK                            x       y       z     vdW  Elec       q    Type
REMARK                         _______ _______ _______ _____ _____    ______ ____
ROOT
ATOM      1  N   UNL     1     -38.168  25.088   4.147  0.00  0.00    -0.308 N 
ATOM      2  H   UNL     1     -38.578  24.480   4.803  0.00  0.00    +0.149 HD
ENDROOT
BRANCH   1   9
ATOM      3  O   UNL     1     -40.139  25.502   0.280  0.00  0.00    -0.332 OA
ATOM      4  O   UNL     1     -40.394  23.855   1.929  0.00  0.00    -0.330 OA
ATOM      5  O   UNL     1     -38.347  26.629   2.358  0.00  0.00    -0.333 OA
ATOM      6  C   UNL     1     -38.839  25.067   0.677  0.00  0.00    +0.178 C 
ATOM      7  C   UNL     1     -39.074  24.382   1.992  0.00  0.00    +0.193 C 
ATOM      8  C   UNL     1     -37.927  26.217   1.046  0.00  0.00    +0.176 C 
ATOM      9  C   UNL     1     -38.963  25.509   3.019  0.00  0.00    +0.219 C 
ATOM     10  C   UNL     1     -41.037  24.537   0.841  0.00  0.00    +0.188 C 
ATOM     11  C   UNL     1     -42.276  25.257   1.355  0.00  0.00    +0.061 C 
ATOM     12  C   UNL     1     -41.406  23.509  -0.224  0.00  0.00    +0.061 C 
BRANCH   8  13
ATOM     13  C   UNL     1     -37.985  27.406   0.105  0.00  0.00    +0.169 C 
BRANCH  13  14
ATOM     14  O   UNL     1     -39.138  28.175   0.407  0.00  0.00    -0.379 OA
ATOM     15  H   UNL     1     -39.875  27.888  -0.155  0.00  0.00    +0.211 HD
ENDBRANCH  13  14
ENDBRANCH   8  13
ENDBRANCH   1   9
BRANCH   1  16
ATOM     16  C   UNL     1     -36.886  25.483   4.353  0.00  0.00    +0.073 C 
ATOM     17  C   UNL     1     -35.731  24.860   4.069  0.00  0.00    +0.165 C 
BRANCH  17  19
ATOM     18  O   UNL     1     -33.394  25.063   4.595  0.00  0.00    -0.245 OA
ATOM     19  C   UNL     1     -34.481  25.593   4.415  0.00  0.00    +0.349 C 
BRANCH  19  20
ATOM     20  O   UNL     1     -34.745  26.927   4.463  0.00  0.00    -0.445 OA
BRANCH  20  21
ATOM     21  C   UNL     1     -33.986  27.741   3.562  0.00  0.00    +0.209 C 
ATOM     22  C   UNL     1     -34.783  27.942   2.291  0.00  0.00    +0.051 C 
ENDBRANCH  20  21
ENDBRANCH  19  20
ENDBRANCH  17  19
BRANCH  17  24
ATOM     23  O   UNL     1     -35.346  23.258   2.321  0.00  0.00    -0.245 OA
ATOM     24  C   UNL     1     -35.767  23.513   3.439  0.00  0.00    +0.349 C 
BRANCH  24  25
ATOM     25  O   UNL     1     -36.310  22.628   4.319  0.00  0.00    -0.445 OA
BRANCH  25  26
ATOM     26  C   UNL     1     -35.376  21.781   4.996  0.00  0.00    +0.209 C 
ATOM     27  C   UNL     1     -35.385  22.118   6.472  0.00  0.00    +0.051 C 
ENDBRANCH  25  26
ENDBRANCH  24  25
ENDBRANCH  17  24
ENDBRANCH   1  16
TORSDOF 10
ENDMDL
MODEL 9
REMARK VINA RESULT:      -5.5      3.328      5.508
REMARK  Name = 190874
REMARK  10 active torsions:
REMARK  status: ('A' for Active; 'I' for Inactive)
REMARK    1  A    between atoms: N_1  and  C_9
REMARK    2  A    between atoms: N_1  and  C_16
REMARK    3  A    between atoms: C_8  and  C_13
REMARK    4  A    between atoms: C_13  and  O_14
REMARK    5  A    between atoms: C_17  and  C_19
REMARK    6  A    between atoms: C_17  and  C_24
REMARK    7  A    between atoms: C_19  and  O_20
REMARK    8  A    between atoms: O_20  and  C_21
REMARK    9  A    between atoms: C_24  and  O_25
REMARK   10  A    between atoms: O_25  and  C_26
REMARK                            x       y       z     vdW  Elec       q    Type
REMARK                         _______ _______ _______ _____ _____    ______ ____
ROOT
ATOM      1  N   UNL     1     -34.824  25.960   3.948  0.00  0.00    -0.308 N 
ATOM      2  H   UNL     1     -35.526  26.458   3.470  0.00  0.00    +0.149 HD
ENDROOT
BRANCH   1   9
ATOM      3  O   UNL     1     -35.527  21.713   3.260  0.00  0.00    -0.332 OA
ATOM      4  O   UNL     1     -36.057  23.561   1.919  0.00  0.00    -0.330 OA
ATOM      5  O   UNL     1     -34.293  23.857   4.897  0.00  0.00    -0.333 OA
ATOM      6  C   UNL     1     -36.160  22.691   4.084  0.00  0.00    +0.178 C 
ATOM      7  C   UNL     1     -36.055  23.959   3.286  0.00  0.00    +0.193 C 
ATOM      8  C   UNL     1     -35.365  23.004   5.333  0.00  0.00    +0.176 C 
ATOM      9  C   UNL     1     -34.705  24.544   3.702  0.00  0.00    +0.219 C 
ATOM     10  C   UNL     1     -35.759  22.157   1.918  0.00  0.00    +0.188 C 
ATOM     11  C   UNL     1     -34.504  21.905   1.093  0.00  0.00    +0.061 C 
ATOM     12  C   UNL     1     -36.953  21.408   1.336  0.00  0.00    +0.061 C 
BRANCH   8  13
ATOM     13  C   UNL     1     -34.787  21.795   6.043  0.00  0.00    +0.169 C 
BRANCH  13  14
ATOM     14  O   UNL     1     -35.613  20.672   5.784  0.00  0.00    -0.379 OA
ATOM     15  H   UNL     1     -36.419  20.961   5.327  0.00  0.00    +0.211 HD
ENDBRANCH  13  14
ENDBRANCH   8  13
ENDBRANCH   1   9
BRANCH   1  16
ATOM     16  C   UNL     1     -34.022  26.645   4.802  0.00  0.00    +0.073 C 
ATOM     17  C   UNL     1     -32.894  27.336   4.568  0.00  0.00    +0.165 C 
BRANCH  17  19
ATOM     18  O   UNL     1     -31.598  27.415   6.591  0.00  0.00    -0.245 OA
ATOM     19  C   UNL     1     -32.264  27.995   5.746  0.00  0.00    +0.349 C 
BRANCH  19  20
ATOM     20  O   UNL     1     -32.525  29.330   5.702  0.00  0.00    -0.445 OA
BRANCH  20  21
ATOM     21  C   UNL     1     -31.413  30.187   5.983  0.00  0.00    +0.209 C 
ATOM     22  C   UNL     1     -31.177  31.092   4.793  0.00  0.00    +0.051 C 
ENDBRANCH  20  21
ENDBRANCH  19  20
ENDBRANCH  17  19
BRANCH  17  24
ATOM     23  O   UNL     1     -31.249  27.012   2.848  0.00  0.00    -0.245 OA
ATOM     24  C   UNL     1     -32.358  27.402   3.183  0.00  0.00    +0.349 C 
BRANCH  24  25
ATOM     25  O   UNL     1     -33.309  27.930   2.364  0.00  0.00    -0.445 OA
BRANCH  25  26
ATOM     26  C   UNL     1     -33.307  29.357   2.257  0.00  0.00    +0.209 C 
ATOM     27  C   UNL     1     -34.643  29.888   2.730  0.00  0.00    +0.051 C 
ENDBRANCH  25  26
ENDBRANCH  24  25
ENDBRANCH  17  24
ENDBRANCH   1  16
TORSDOF 10
ENDMDL
