MODEL 1
REMARK VINA RESULT:      -6.4      0.000      0.000
REMARK  Name = 5491394
REMARK  11 active torsions:
REMARK  status: ('A' for Active; 'I' for Inactive)
REMARK    1  A    between atoms: N_2  and  C_18
REMARK    2  A    between atoms: C_3  and  C_5
REMARK    3  A    between atoms: C_10  and  C_13
REMARK    4  A    between atoms: N_12  and  C_13
REMARK    5  A    between atoms: N_12  and  O_16
REMARK    6  A    between atoms: C_18  and  C_27
REMARK    7  A    between atoms: C_22  and  O_28
REMARK    8  A    between atoms: O_28  and  C_29
REMARK    9  A    between atoms: C_29  and  C_31
REMARK   10  A    between atoms: C_31  and  O_32
REMARK   11  A    between atoms: O_32  and  C_33
REMARK                            x       y       z     vdW  Elec       q    Type
REMARK                         _______ _______ _______ _____ _____    ______ ____
ROOT
ATOM      1  O   UNL     1     -34.655  22.393  -0.022  0.00  0.00    -0.270 OA
ATOM      2  N   UNL     1     -35.166  21.760   2.151  0.00  0.00    -0.295 N 
ATOM      3  C   UNL     1     -34.501  21.636   0.934  0.00  0.00    +0.246 C 
ATOM      4  H   UNL     1     -34.977  21.104   2.860  0.00  0.00    +0.150 HD
ENDROOT
BRANCH   3   5
ATOM      5  C   UNL     1     -33.568  20.487   0.807  0.00  0.00    +0.053 C 
ATOM      6  C   UNL     1     -33.880  19.303   1.444  0.00  0.00    +0.005 C 
ATOM      7  C   UNL     1     -32.420  20.641   0.059  0.00  0.00    +0.005 C 
ATOM      8  C   UNL     1     -33.004  18.224   1.327  0.00  0.00    +0.003 C 
ATOM      9  C   UNL     1     -31.545  19.561  -0.059  0.00  0.00    +0.003 C 
ATOM     10  C   UNL     1     -31.837  18.353   0.574  0.00  0.00    +0.036 C 
BRANCH  10  12
ATOM     11  N   UNL     1     -29.717  17.232   1.164  0.00  0.00    -0.381 N 
ATOM     12  C   UNL     1     -30.923  17.228   0.452  0.00  0.00    +0.160 C 
ATOM     13  H   UNL     1     -29.096  16.473   1.084  0.00  0.00    +0.157 HD
ATOM     14  H   UNL     1     -29.491  17.995   1.744  0.00  0.00    +0.157 HD
BRANCH  12  15
ATOM     15  N   UNL     1     -31.266  16.220  -0.337  0.00  0.00    -0.118 NA
BRANCH  15  16
ATOM     16  O   UNL     1     -31.710  15.109   0.387  0.00  0.00    -0.264 OA
ATOM     17  H   UNL     1     -32.187  15.228   1.184  0.00  0.00    +0.247 HD
ENDBRANCH  15  16
ENDBRANCH  12  15
ENDBRANCH  10  12
ENDBRANCH   3   5
BRANCH   2  18
ATOM     18  C   UNL     1     -36.114  22.801   2.416  0.00  0.00    +0.149 C 
ATOM     19  C   UNL     1     -37.541  22.308   2.354  0.00  0.00    +0.031 C 
BRANCH  18  27
ATOM     20  O   UNL     1     -36.370  22.789   4.772  0.00  0.00    -0.273 OA
ATOM     21  N   UNL     1     -34.783  24.251   3.909  0.00  0.00    -0.278 N 
ATOM     22  C   UNL     1     -33.686  26.914   4.176  0.00  0.00    +0.119 C 
ATOM     23  C   UNL     1     -34.457  26.247   5.316  0.00  0.00    +0.051 C 
ATOM     24  C   UNL     1     -34.143  26.369   2.823  0.00  0.00    +0.051 C 
ATOM     25  C   UNL     1     -34.363  24.727   5.230  0.00  0.00    +0.096 C 
ATOM     26  C   UNL     1     -34.056  24.846   2.779  0.00  0.00    +0.096 C 
ATOM     27  C   UNL     1     -35.772  23.274   3.807  0.00  0.00    +0.244 C 
BRANCH  22  28
ATOM     28  O   UNL     1     -33.906  28.319   4.201  0.00  0.00    -0.345 OA
BRANCH  28  29
ATOM     29  C   UNL     1     -33.246  28.969   3.124  0.00  0.00    +0.252 C 
BRANCH  29  31
ATOM     30  O   UNL     1     -31.549  30.699   3.056  0.00  0.00    -0.247 OA
ATOM     31  C   UNL     1     -32.424  30.106   3.672  0.00  0.00    +0.348 C 
BRANCH  31  32
ATOM     32  O   UNL     1     -32.816  30.358   4.956  0.00  0.00    -0.447 OA
BRANCH  32  33
ATOM     33  C   UNL     1     -31.759  30.651   5.876  0.00  0.00    +0.209 C 
ATOM     34  C   UNL     1     -31.680  29.542   6.904  0.00  0.00    +0.051 C 
ENDBRANCH  32  33
ENDBRANCH  31  32
ENDBRANCH  29  31
ENDBRANCH  28  29
ENDBRANCH  22  28
ENDBRANCH  18  27
ENDBRANCH   2  18
TORSDOF 11
ENDMDL
MODEL 2
REMARK VINA RESULT:      -6.4      1.174      1.655
REMARK  Name = 5491394
REMARK  11 active torsions:
REMARK  status: ('A' for Active; 'I' for Inactive)
REMARK    1  A    between atoms: N_2  and  C_18
REMARK    2  A    between atoms: C_3  and  C_5
REMARK    3  A    between atoms: C_10  and  C_13
REMARK    4  A    between atoms: N_12  and  C_13
REMARK    5  A    between atoms: N_12  and  O_16
REMARK    6  A    between atoms: C_18  and  C_27
REMARK    7  A    between atoms: C_22  and  O_28
REMARK    8  A    between atoms: O_28  and  C_29
REMARK    9  A    between atoms: C_29  and  C_31
REMARK   10  A    between atoms: C_31  and  O_32
REMARK   11  A    between atoms: O_32  and  C_33
REMARK                            x       y       z     vdW  Elec       q    Type
REMARK                         _______ _______ _______ _____ _____    ______ ____
ROOT
ATOM      1  O   UNL     1     -34.787  22.457  -0.106  0.00  0.00    -0.270 OA
ATOM      2  N   UNL     1     -35.293  21.874   2.082  0.00  0.00    -0.295 N 
ATOM      3  C   UNL     1     -34.627  21.725   0.868  0.00  0.00    +0.246 C 
ATOM      4  H   UNL     1     -35.099  21.236   2.806  0.00  0.00    +0.150 HD
ENDROOT
BRANCH   3   5
ATOM      5  C   UNL     1     -33.687  20.579   0.768  0.00  0.00    +0.053 C 
ATOM      6  C   UNL     1     -32.564  20.706  -0.023  0.00  0.00    +0.005 C 
ATOM      7  C   UNL     1     -33.968  19.424   1.468  0.00  0.00    +0.005 C 
ATOM      8  C   UNL     1     -31.682  19.630  -0.120  0.00  0.00    +0.003 C 
ATOM      9  C   UNL     1     -33.085  18.348   1.373  0.00  0.00    +0.003 C 
ATOM     10  C   UNL     1     -31.943  18.452   0.579  0.00  0.00    +0.036 C 
BRANCH  10  12
ATOM     11  N   UNL     1     -29.842  17.331   1.232  0.00  0.00    -0.381 N 
ATOM     12  C   UNL     1     -31.023  17.329   0.480  0.00  0.00    +0.160 C 
ATOM     13  H   UNL     1     -29.217  16.573   1.169  0.00  0.00    +0.157 HD
ATOM     14  H   UNL     1     -29.637  18.089   1.825  0.00  0.00    +0.157 HD
BRANCH  12  15
ATOM     15  N   UNL     1     -31.336  16.326  -0.327  0.00  0.00    -0.118 NA
BRANCH  15  16
ATOM     16  O   UNL     1     -31.767  15.196   0.375  0.00  0.00    -0.264 OA
ATOM     17  H   UNL     1     -31.345  14.371   0.239  0.00  0.00    +0.247 HD
ENDBRANCH  15  16
ENDBRANCH  12  15
ENDBRANCH  10  12
ENDBRANCH   3   5
BRANCH   2  18
ATOM     18  C   UNL     1     -36.247  22.914   2.323  0.00  0.00    +0.149 C 
ATOM     19  C   UNL     1     -37.672  22.431   2.179  0.00  0.00    +0.031 C 
BRANCH  18  27
ATOM     20  O   UNL     1     -36.686  22.928   4.651  0.00  0.00    -0.273 OA
ATOM     21  N   UNL     1     -34.909  24.236   3.924  0.00  0.00    -0.278 N 
ATOM     22  C   UNL     1     -33.596  26.787   4.291  0.00  0.00    +0.119 C 
ATOM     23  C   UNL     1     -34.511  26.195   5.364  0.00  0.00    +0.051 C 
ATOM     24  C   UNL     1     -33.994  26.284   2.903  0.00  0.00    +0.051 C 
ATOM     25  C   UNL     1     -34.551  24.673   5.276  0.00  0.00    +0.096 C 
ATOM     26  C   UNL     1     -34.045  24.760   2.857  0.00  0.00    +0.096 C 
ATOM     27  C   UNL     1     -35.974  23.354   3.738  0.00  0.00    +0.244 C 
BRANCH  22  28
ATOM     28  O   UNL     1     -33.687  28.206   4.308  0.00  0.00    -0.345 OA
BRANCH  28  29
ATOM     29  C   UNL     1     -32.403  28.811   4.240  0.00  0.00    +0.252 C 
BRANCH  29  31
ATOM     30  O   UNL     1     -32.188  28.872   6.653  0.00  0.00    -0.247 OA
ATOM     31  C   UNL     1     -31.703  28.619   5.559  0.00  0.00    +0.348 C 
BRANCH  31  32
ATOM     32  O   UNL     1     -30.452  28.122   5.330  0.00  0.00    -0.447 OA
BRANCH  32  33
ATOM     33  C   UNL     1     -29.394  28.762   6.051  0.00  0.00    +0.209 C 
ATOM     34  C   UNL     1     -28.564  27.704   6.748  0.00  0.00    +0.051 C 
ENDBRANCH  32  33
ENDBRANCH  31  32
ENDBRANCH  29  31
ENDBRANCH  28  29
ENDBRANCH  22  28
ENDBRANCH  18  27
ENDBRANCH   2  18
TORSDOF 11
ENDMDL
MODEL 3
REMARK VINA RESULT:      -6.2      0.925      1.430
REMARK  Name = 5491394
REMARK  11 active torsions:
REMARK  status: ('A' for Active; 'I' for Inactive)
REMARK    1  A    between atoms: N_2  and  C_18
REMARK    2  A    between atoms: C_3  and  C_5
REMARK    3  A    between atoms: C_10  and  C_13
REMARK    4  A    between atoms: N_12  and  C_13
REMARK    5  A    between atoms: N_12  and  O_16
REMARK    6  A    between atoms: C_18  and  C_27
REMARK    7  A    between atoms: C_22  and  O_28
REMARK    8  A    between atoms: O_28  and  C_29
REMARK    9  A    between atoms: C_29  and  C_31
REMARK   10  A    between atoms: C_31  and  O_32
REMARK   11  A    between atoms: O_32  and  C_33
REMARK                            x       y       z     vdW  Elec       q    Type
REMARK                         _______ _______ _______ _____ _____    ______ ____
ROOT
ATOM      1  O   UNL     1     -35.085  22.135  -0.097  0.00  0.00    -0.270 OA
ATOM      2  N   UNL     1     -35.161  21.892   2.210  0.00  0.00    -0.295 N 
ATOM      3  C   UNL     1     -34.690  21.593   0.934  0.00  0.00    +0.246 C 
ATOM      4  H   UNL     1     -34.783  21.403   2.977  0.00  0.00    +0.150 HD
ENDROOT
BRANCH   3   5
ATOM      5  C   UNL     1     -33.660  20.527   0.844  0.00  0.00    +0.053 C 
ATOM      6  C   UNL     1     -33.892  19.322   1.475  0.00  0.00    +0.005 C 
ATOM      7  C   UNL     1     -32.504  20.776   0.135  0.00  0.00    +0.005 C 
ATOM      8  C   UNL     1     -32.924  18.321   1.393  0.00  0.00    +0.003 C 
ATOM      9  C   UNL     1     -31.537  19.774   0.051  0.00  0.00    +0.003 C 
ATOM     10  C   UNL     1     -31.747  18.547   0.681  0.00  0.00    +0.036 C 
BRANCH  10  12
ATOM     11  N   UNL     1     -29.384  17.835   0.721  0.00  0.00    -0.381 N 
ATOM     12  C   UNL     1     -30.738  17.503   0.594  0.00  0.00    +0.160 C 
ATOM     13  H   UNL     1     -28.697  17.132   0.664  0.00  0.00    +0.157 HD
ATOM     14  H   UNL     1     -29.118  18.771   0.868  0.00  0.00    +0.157 HD
BRANCH  12  15
ATOM     15  N   UNL     1     -31.137  16.255   0.400  0.00  0.00    -0.118 NA
BRANCH  15  16
ATOM     16  O   UNL     1     -30.068  15.354   0.382  0.00  0.00    -0.264 OA
ATOM     17  H   UNL     1     -29.950  14.751   1.090  0.00  0.00    +0.247 HD
ENDBRANCH  15  16
ENDBRANCH  12  15
ENDBRANCH  10  12
ENDBRANCH   3   5
BRANCH   2  18
ATOM     18  C   UNL     1     -36.171  22.877   2.455  0.00  0.00    +0.149 C 
ATOM     19  C   UNL     1     -37.567  22.311   2.337  0.00  0.00    +0.031 C 
BRANCH  18  27
ATOM     20  O   UNL     1     -36.606  22.924   4.784  0.00  0.00    -0.273 OA
ATOM     21  N   UNL     1     -34.854  24.251   4.030  0.00  0.00    -0.278 N 
ATOM     22  C   UNL     1     -33.587  26.832   4.350  0.00  0.00    +0.119 C 
ATOM     23  C   UNL     1     -34.489  26.242   5.435  0.00  0.00    +0.051 C 
ATOM     24  C   UNL     1     -33.978  26.298   2.972  0.00  0.00    +0.051 C 
ATOM     25  C   UNL     1     -34.502  24.718   5.374  0.00  0.00    +0.096 C 
ATOM     26  C   UNL     1     -34.002  24.772   2.953  0.00  0.00    +0.096 C 
ATOM     27  C   UNL     1     -35.902  23.347   3.862  0.00  0.00    +0.244 C 
BRANCH  22  28
ATOM     28  O   UNL     1     -33.704  28.249   4.343  0.00  0.00    -0.345 OA
BRANCH  28  29
ATOM     29  C   UNL     1     -32.510  28.868   3.885  0.00  0.00    +0.252 C 
BRANCH  29  31
ATOM     30  O   UNL     1     -31.574  31.015   4.508  0.00  0.00    -0.247 OA
ATOM     31  C   UNL     1     -32.551  30.330   4.241  0.00  0.00    +0.348 C 
BRANCH  31  32
ATOM     32  O   UNL     1     -33.849  30.756   4.216  0.00  0.00    -0.447 OA
BRANCH  32  33
ATOM     33  C   UNL     1     -34.257  31.411   3.010  0.00  0.00    +0.209 C 
ATOM     34  C   UNL     1     -35.628  30.904   2.614  0.00  0.00    +0.051 C 
ENDBRANCH  32  33
ENDBRANCH  31  32
ENDBRANCH  29  31
ENDBRANCH  28  29
ENDBRANCH  22  28
ENDBRANCH  18  27
ENDBRANCH   2  18
TORSDOF 11
ENDMDL
MODEL 4
REMARK VINA RESULT:      -6.2      4.213      5.987
REMARK  Name = 5491394
REMARK  11 active torsions:
REMARK  status: ('A' for Active; 'I' for Inactive)
REMARK    1  A    between atoms: N_2  and  C_18
REMARK    2  A    between atoms: C_3  and  C_5
REMARK    3  A    between atoms: C_10  and  C_13
REMARK    4  A    between atoms: N_12  and  C_13
REMARK    5  A    between atoms: N_12  and  O_16
REMARK    6  A    between atoms: C_18  and  C_27
REMARK    7  A    between atoms: C_22  and  O_28
REMARK    8  A    between atoms: O_28  and  C_29
REMARK    9  A    between atoms: C_29  and  C_31
REMARK   10  A    between atoms: C_31  and  O_32
REMARK   11  A    between atoms: O_32  and  C_33
REMARK                            x       y       z     vdW  Elec       q    Type
REMARK                         _______ _______ _______ _____ _____    ______ ____
ROOT
ATOM      1  O   UNL     1     -37.085  20.528   1.426  0.00  0.00    -0.270 OA
ATOM      2  N   UNL     1     -35.399  21.257   2.844  0.00  0.00    -0.295 N 
ATOM      3  C   UNL     1     -35.922  20.470   1.822  0.00  0.00    +0.246 C 
ATOM      4  H   UNL     1     -34.454  21.138   3.092  0.00  0.00    +0.150 HD
ENDROOT
BRANCH   3   5
ATOM      5  C   UNL     1     -34.995  19.486   1.206  0.00  0.00    +0.053 C 
ATOM      6  C   UNL     1     -35.461  18.677   0.191  0.00  0.00    +0.005 C 
ATOM      7  C   UNL     1     -33.699  19.411   1.671  0.00  0.00    +0.005 C 
ATOM      8  C   UNL     1     -34.592  17.750  -0.386  0.00  0.00    +0.003 C 
ATOM      9  C   UNL     1     -32.829  18.487   1.093  0.00  0.00    +0.003 C 
ATOM     10  C   UNL     1     -33.276  17.657   0.065  0.00  0.00    +0.036 C 
BRANCH  10  12
ATOM     11  N   UNL     1     -32.255  16.621  -1.930  0.00  0.00    -0.381 N 
ATOM     12  C   UNL     1     -32.369  16.692  -0.536  0.00  0.00    +0.160 C 
ATOM     13  H   UNL     1     -31.642  15.970  -2.341  0.00  0.00    +0.157 HD
ATOM     14  H   UNL     1     -32.788  17.222  -2.498  0.00  0.00    +0.157 HD
BRANCH  12  15
ATOM     15  N   UNL     1     -31.666  15.903   0.264  0.00  0.00    -0.118 NA
BRANCH  15  16
ATOM     16  O   UNL     1     -32.128  14.583   0.245  0.00  0.00    -0.264 OA
ATOM     17  H   UNL     1     -31.822  13.988  -0.411  0.00  0.00    +0.247 HD
ENDBRANCH  15  16
ENDBRANCH  12  15
ENDBRANCH  10  12
ENDBRANCH   3   5
BRANCH   2  18
ATOM     18  C   UNL     1     -36.175  22.232   3.550  0.00  0.00    +0.149 C 
ATOM     19  C   UNL     1     -35.632  22.505   4.934  0.00  0.00    +0.031 C 
BRANCH  18  27
ATOM     20  O   UNL     1     -34.987  23.925   2.394  0.00  0.00    -0.273 OA
ATOM     21  N   UNL     1     -37.305  24.027   2.285  0.00  0.00    -0.278 N 
ATOM     22  C   UNL     1     -39.559  25.839   2.350  0.00  0.00    +0.119 C 
ATOM     23  C   UNL     1     -38.150  26.325   2.009  0.00  0.00    +0.051 C 
ATOM     24  C   UNL     1     -39.503  24.600   3.243  0.00  0.00    +0.051 C 
ATOM     25  C   UNL     1     -37.309  25.203   1.410  0.00  0.00    +0.096 C 
ATOM     26  C   UNL     1     -38.637  23.506   2.624  0.00  0.00    +0.096 C 
ATOM     27  C   UNL     1     -36.094  23.469   2.691  0.00  0.00    +0.244 C 
BRANCH  22  28
ATOM     28  O   UNL     1     -40.272  26.863   3.031  0.00  0.00    -0.345 OA
BRANCH  28  29
ATOM     29  C   UNL     1     -41.625  26.495   3.256  0.00  0.00    +0.252 C 
BRANCH  29  31
ATOM     30  O   UNL     1     -41.912  28.535   4.533  0.00  0.00    -0.247 OA
ATOM     31  C   UNL     1     -42.376  27.692   3.778  0.00  0.00    +0.348 C 
BRANCH  31  32
ATOM     32  O   UNL     1     -43.643  27.676   3.272  0.00  0.00    -0.447 OA
BRANCH  32  33
ATOM     33  C   UNL     1     -44.453  26.566   3.675  0.00  0.00    +0.209 C 
ATOM     34  C   UNL     1     -45.049  26.860   5.036  0.00  0.00    +0.051 C 
ENDBRANCH  32  33
ENDBRANCH  31  32
ENDBRANCH  29  31
ENDBRANCH  28  29
ENDBRANCH  22  28
ENDBRANCH  18  27
ENDBRANCH   2  18
TORSDOF 11
ENDMDL
MODEL 5
REMARK VINA RESULT:      -6.2      1.104      1.565
REMARK  Name = 5491394
REMARK  11 active torsions:
REMARK  status: ('A' for Active; 'I' for Inactive)
REMARK    1  A    between atoms: N_2  and  C_18
REMARK    2  A    between atoms: C_3  and  C_5
REMARK    3  A    between atoms: C_10  and  C_13
REMARK    4  A    between atoms: N_12  and  C_13
REMARK    5  A    between atoms: N_12  and  O_16
REMARK    6  A    between atoms: C_18  and  C_27
REMARK    7  A    between atoms: C_22  and  O_28
REMARK    8  A    between atoms: O_28  and  C_29
REMARK    9  A    between atoms: C_29  and  C_31
REMARK   10  A    between atoms: C_31  and  O_32
REMARK   11  A    between atoms: O_32  and  C_33
REMARK                            x       y       z     vdW  Elec       q    Type
REMARK                         _______ _______ _______ _____ _____    ______ ____
ROOT
ATOM      1  O   UNL     1     -35.530  22.221   0.004  0.00  0.00    -0.270 OA
ATOM      2  N   UNL     1     -35.989  21.694   2.216  0.00  0.00    -0.295 N 
ATOM      3  C   UNL     1     -35.494  21.428   0.942  0.00  0.00    +0.246 C 
ATOM      4  H   UNL     1     -35.916  20.994   2.904  0.00  0.00    +0.150 HD
ENDROOT
BRANCH   3   5
ATOM      5  C   UNL     1     -34.913  20.078   0.728  0.00  0.00    +0.053 C 
ATOM      6  C   UNL     1     -33.663  19.802   1.242  0.00  0.00    +0.005 C 
ATOM      7  C   UNL     1     -35.641  19.144   0.021  0.00  0.00    +0.005 C 
ATOM      8  C   UNL     1     -33.116  18.535   1.040  0.00  0.00    +0.003 C 
ATOM      9  C   UNL     1     -35.095  17.876  -0.179  0.00  0.00    +0.003 C 
ATOM     10  C   UNL     1     -33.833  17.572   0.330  0.00  0.00    +0.036 C 
BRANCH  10  12
ATOM     11  N   UNL     1     -34.073  15.213  -0.357  0.00  0.00    -0.381 N 
ATOM     12  C   UNL     1     -33.263  16.251   0.119  0.00  0.00    +0.160 C 
ATOM     13  H   UNL     1     -33.692  14.317  -0.502  0.00  0.00    +0.157 HD
ATOM     14  H   UNL     1     -35.025  15.380  -0.548  0.00  0.00    +0.157 HD
BRANCH  12  15
ATOM     15  N   UNL     1     -31.978  16.068   0.385  0.00  0.00    -0.118 NA
BRANCH  15  16
ATOM     16  O   UNL     1     -31.625  14.716   0.390  0.00  0.00    -0.264 OA
ATOM     17  H   UNL     1     -30.837  14.434  -0.034  0.00  0.00    +0.247 HD
ENDBRANCH  15  16
ENDBRANCH  12  15
ENDBRANCH  10  12
ENDBRANCH   3   5
BRANCH   2  18
ATOM     18  C   UNL     1     -36.600  22.940   2.569  0.00  0.00    +0.149 C 
ATOM     19  C   UNL     1     -38.106  22.838   2.650  0.00  0.00    +0.031 C 
BRANCH  18  27
ATOM     20  O   UNL     1     -36.500  22.766   4.929  0.00  0.00    -0.273 OA
ATOM     21  N   UNL     1     -34.941  24.166   3.926  0.00  0.00    -0.278 N 
ATOM     22  C   UNL     1     -33.592  26.712   4.189  0.00  0.00    +0.119 C 
ATOM     23  C   UNL     1     -34.236  26.018   5.390  0.00  0.00    +0.051 C 
ATOM     24  C   UNL     1     -34.291  26.307   2.892  0.00  0.00    +0.051 C 
ATOM     25  C   UNL     1     -34.288  24.507   5.193  0.00  0.00    +0.096 C 
ATOM     26  C   UNL     1     -34.344  24.790   2.737  0.00  0.00    +0.096 C 
ATOM     27  C   UNL     1     -36.015  23.277   3.916  0.00  0.00    +0.244 C 
BRANCH  22  28
ATOM     28  O   UNL     1     -33.683  28.122   4.339  0.00  0.00    -0.345 OA
BRANCH  28  29
ATOM     29  C   UNL     1     -32.992  28.803   3.302  0.00  0.00    +0.252 C 
BRANCH  29  31
ATOM     30  O   UNL     1     -31.979  30.999   3.141  0.00  0.00    -0.247 OA
ATOM     31  C   UNL     1     -32.570  30.159   3.804  0.00  0.00    +0.348 C 
BRANCH  31  32
ATOM     32  O   UNL     1     -32.957  30.288   5.107  0.00  0.00    -0.447 OA
BRANCH  32  33
ATOM     33  C   UNL     1     -31.919  30.653   6.023  0.00  0.00    +0.209 C 
ATOM     34  C   UNL     1     -31.153  29.408   6.421  0.00  0.00    +0.051 C 
ENDBRANCH  32  33
ENDBRANCH  31  32
ENDBRANCH  29  31
ENDBRANCH  28  29
ENDBRANCH  22  28
ENDBRANCH  18  27
ENDBRANCH   2  18
TORSDOF 11
ENDMDL
MODEL 6
REMARK VINA RESULT:      -6.0      4.455      7.670
REMARK  Name = 5491394
REMARK  11 active torsions:
REMARK  status: ('A' for Active; 'I' for Inactive)
REMARK    1  A    between atoms: N_2  and  C_18
REMARK    2  A    between atoms: C_3  and  C_5
REMARK    3  A    between atoms: C_10  and  C_13
REMARK    4  A    between atoms: N_12  and  C_13
REMARK    5  A    between atoms: N_12  and  O_16
REMARK    6  A    between atoms: C_18  and  C_27
REMARK    7  A    between atoms: C_22  and  O_28
REMARK    8  A    between atoms: O_28  and  C_29
REMARK    9  A    between atoms: C_29  and  C_31
REMARK   10  A    between atoms: C_31  and  O_32
REMARK   11  A    between atoms: O_32  and  C_33
REMARK                            x       y       z     vdW  Elec       q    Type
REMARK                         _______ _______ _______ _____ _____    ______ ____
ROOT
ATOM      1  O   UNL     1     -33.814  28.453   3.672  0.00  0.00    -0.270 OA
ATOM      2  N   UNL     1     -32.483  27.936   5.501  0.00  0.00    -0.295 N 
ATOM      3  C   UNL     1     -33.434  27.653   4.524  0.00  0.00    +0.246 C 
ATOM      4  H   UNL     1     -32.242  27.229   6.142  0.00  0.00    +0.150 HD
ENDROOT
BRANCH   3   5
ATOM      5  C   UNL     1     -34.029  26.292   4.558  0.00  0.00    +0.053 C 
ATOM      6  C   UNL     1     -34.123  25.577   3.382  0.00  0.00    +0.005 C 
ATOM      7  C   UNL     1     -34.471  25.789   5.764  0.00  0.00    +0.005 C 
ATOM      8  C   UNL     1     -34.684  24.300   3.413  0.00  0.00    +0.003 C 
ATOM      9  C   UNL     1     -35.030  24.511   5.795  0.00  0.00    +0.003 C 
ATOM     10  C   UNL     1     -35.136  23.768   4.620  0.00  0.00    +0.036 C 
BRANCH  10  12
ATOM     11  N   UNL     1     -36.140  21.832   3.461  0.00  0.00    -0.381 N 
ATOM     12  C   UNL     1     -35.720  22.436   4.653  0.00  0.00    +0.160 C 
ATOM     13  H   UNL     1     -36.535  20.931   3.478  0.00  0.00    +0.157 HD
ATOM     14  H   UNL     1     -36.039  22.309   2.606  0.00  0.00    +0.157 HD
BRANCH  12  15
ATOM     15  N   UNL     1     -35.835  21.826   5.824  0.00  0.00    -0.118 NA
BRANCH  15  16
ATOM     16  O   UNL     1     -35.251  20.556   5.819  0.00  0.00    -0.264 OA
ATOM     17  H   UNL     1     -34.621  20.327   6.475  0.00  0.00    +0.247 HD
ENDBRANCH  15  16
ENDBRANCH  12  15
ENDBRANCH  10  12
ENDBRANCH   3   5
BRANCH   2  18
ATOM     18  C   UNL     1     -31.838  29.211   5.612  0.00  0.00    +0.149 C 
ATOM     19  C   UNL     1     -31.476  29.548   7.040  0.00  0.00    +0.031 C 
BRANCH  18  27
ATOM     20  O   UNL     1     -29.856  28.108   4.927  0.00  0.00    -0.273 OA
ATOM     21  N   UNL     1     -30.370  30.091   3.831  0.00  0.00    -0.278 N 
ATOM     22  C   UNL     1     -29.225  32.525   2.768  0.00  0.00    +0.119 C 
ATOM     23  C   UNL     1     -28.372  31.281   3.019  0.00  0.00    +0.051 C 
ATOM     24  C   UNL     1     -30.432  32.552   3.706  0.00  0.00    +0.051 C 
ATOM     25  C   UNL     1     -29.211  30.011   2.938  0.00  0.00    +0.096 C 
ATOM     26  C   UNL     1     -31.236  31.258   3.615  0.00  0.00    +0.096 C 
ATOM     27  C   UNL     1     -30.599  29.080   4.763  0.00  0.00    +0.244 C 
BRANCH  22  28
ATOM     28  O   UNL     1     -28.448  33.696   2.987  0.00  0.00    -0.345 OA
BRANCH  28  29
ATOM     29  C   UNL     1     -29.046  34.837   2.387  0.00  0.00    +0.252 C 
BRANCH  29  31
ATOM     30  O   UNL     1     -28.462  36.276   4.248  0.00  0.00    -0.247 OA
ATOM     31  C   UNL     1     -29.298  35.871   3.452  0.00  0.00    +0.348 C 
BRANCH  31  32
ATOM     32  O   UNL     1     -30.600  36.275   3.379  0.00  0.00    -0.447 OA
BRANCH  32  33
ATOM     33  C   UNL     1     -31.309  35.854   2.208  0.00  0.00    +0.209 C 
ATOM     34  C   UNL     1     -32.674  35.341   2.617  0.00  0.00    +0.051 C 
ENDBRANCH  32  33
ENDBRANCH  31  32
ENDBRANCH  29  31
ENDBRANCH  28  29
ENDBRANCH  22  28
ENDBRANCH  18  27
ENDBRANCH   2  18
TORSDOF 11
ENDMDL
MODEL 7
REMARK VINA RESULT:      -5.8      2.894     10.187
REMARK  Name = 5491394
REMARK  11 active torsions:
REMARK  status: ('A' for Active; 'I' for Inactive)
REMARK    1  A    between atoms: N_2  and  C_18
REMARK    2  A    between atoms: C_3  and  C_5
REMARK    3  A    between atoms: C_10  and  C_13
REMARK    4  A    between atoms: N_12  and  C_13
REMARK    5  A    between atoms: N_12  and  O_16
REMARK    6  A    between atoms: C_18  and  C_27
REMARK    7  A    between atoms: C_22  and  O_28
REMARK    8  A    between atoms: O_28  and  C_29
REMARK    9  A    between atoms: C_29  and  C_31
REMARK   10  A    between atoms: C_31  and  O_32
REMARK   11  A    between atoms: O_32  and  C_33
REMARK                            x       y       z     vdW  Elec       q    Type
REMARK                         _______ _______ _______ _____ _____    ______ ____
ROOT
ATOM      1  O   UNL     1     -36.035  20.128   2.638  0.00  0.00    -0.270 OA
ATOM      2  N   UNL     1     -35.106  21.311   0.871  0.00  0.00    -0.295 N 
ATOM      3  C   UNL     1     -35.584  21.172   2.171  0.00  0.00    +0.246 C 
ATOM      4  H   UNL     1     -34.763  22.189   0.587  0.00  0.00    +0.150 HD
ENDROOT
BRANCH   3   5
ATOM      5  C   UNL     1     -35.557  22.392   3.017  0.00  0.00    +0.053 C 
ATOM      6  C   UNL     1     -35.652  23.627   2.408  0.00  0.00    +0.005 C 
ATOM      7  C   UNL     1     -35.436  22.253   4.384  0.00  0.00    +0.005 C 
ATOM      8  C   UNL     1     -35.624  24.774   3.202  0.00  0.00    +0.003 C 
ATOM      9  C   UNL     1     -35.410  23.400   5.178  0.00  0.00    +0.003 C 
ATOM     10  C   UNL     1     -35.505  24.660   4.587  0.00  0.00    +0.036 C 
BRANCH  10  12
ATOM     11  N   UNL     1     -36.636  26.626   5.559  0.00  0.00    -0.381 N 
ATOM     12  C   UNL     1     -35.477  25.855   5.415  0.00  0.00    +0.160 C 
ATOM     13  H   UNL     1     -36.622  27.436   6.119  0.00  0.00    +0.157 HD
ATOM     14  H   UNL     1     -37.466  26.359   5.102  0.00  0.00    +0.157 HD
BRANCH  12  15
ATOM     15  N   UNL     1     -34.342  26.179   6.016  0.00  0.00    -0.118 NA
BRANCH  15  16
ATOM     16  O   UNL     1     -33.587  27.088   5.269  0.00  0.00    -0.264 OA
ATOM     17  H   UNL     1     -32.810  27.466   5.634  0.00  0.00    +0.247 HD
ENDBRANCH  15  16
ENDBRANCH  12  15
ENDBRANCH  10  12
ENDBRANCH   3   5
BRANCH   2  18
ATOM     18  C   UNL     1     -35.089  20.232  -0.071  0.00  0.00    +0.149 C 
ATOM     19  C   UNL     1     -36.198  20.345  -1.091  0.00  0.00    +0.031 C 
BRANCH  18  27
ATOM     20  O   UNL     1     -33.656  20.846  -1.854  0.00  0.00    -0.273 OA
ATOM     21  N   UNL     1     -32.653  19.828  -0.023  0.00  0.00    -0.278 N 
ATOM     22  C   UNL     1     -30.641  17.900   0.754  0.00  0.00    +0.119 C 
ATOM     23  C   UNL     1     -30.622  18.568  -0.621  0.00  0.00    +0.051 C 
ATOM     24  C   UNL     1     -32.066  17.835   1.304  0.00  0.00    +0.051 C 
ATOM     25  C   UNL     1     -31.302  19.932  -0.581  0.00  0.00    +0.096 C 
ATOM     26  C   UNL     1     -32.723  19.213   1.310  0.00  0.00    +0.096 C 
ATOM     27  C   UNL     1     -33.740  20.334  -0.735  0.00  0.00    +0.244 C 
BRANCH  22  28
ATOM     28  O   UNL     1     -30.127  16.578   0.656  0.00  0.00    -0.345 OA
BRANCH  28  29
ATOM     29  C   UNL     1     -30.522  15.954  -0.557  0.00  0.00    +0.252 C 
BRANCH  29  31
ATOM     30  O   UNL     1     -30.920  13.757   0.384  0.00  0.00    -0.247 OA
ATOM     31  C   UNL     1     -31.334  14.727  -0.233  0.00  0.00    +0.348 C 
BRANCH  31  32
ATOM     32  O   UNL     1     -32.593  14.883  -0.738  0.00  0.00    -0.447 OA
BRANCH  32  33
ATOM     33  C   UNL     1     -32.700  15.764  -1.862  0.00  0.00    +0.209 C 
ATOM     34  C   UNL     1     -33.923  16.639  -1.686  0.00  0.00    +0.051 C 
ENDBRANCH  32  33
ENDBRANCH  31  32
ENDBRANCH  29  31
ENDBRANCH  28  29
ENDBRANCH  22  28
ENDBRANCH  18  27
ENDBRANCH   2  18
TORSDOF 11
ENDMDL
MODEL 8
REMARK VINA RESULT:      -5.8      3.564      6.331
REMARK  Name = 5491394
REMARK  11 active torsions:
REMARK  status: ('A' for Active; 'I' for Inactive)
REMARK    1  A    between atoms: N_2  and  C_18
REMARK    2  A    between atoms: C_3  and  C_5
REMARK    3  A    between atoms: C_10  and  C_13
REMARK    4  A    between atoms: N_12  and  C_13
REMARK    5  A    between atoms: N_12  and  O_16
REMARK    6  A    between atoms: C_18  and  C_27
REMARK    7  A    between atoms: C_22  and  O_28
REMARK    8  A    between atoms: O_28  and  C_29
REMARK    9  A    between atoms: C_29  and  C_31
REMARK   10  A    between atoms: C_31  and  O_32
REMARK   11  A    between atoms: O_32  and  C_33
REMARK                            x       y       z     vdW  Elec       q    Type
REMARK                         _______ _______ _______ _____ _____    ______ ____
ROOT
ATOM      1  O   UNL     1     -35.747  26.384   5.378  0.00  0.00    -0.270 OA
ATOM      2  N   UNL     1     -33.491  26.243   4.849  0.00  0.00    -0.295 N 
ATOM      3  C   UNL     1     -34.802  25.773   4.883  0.00  0.00    +0.246 C 
ATOM      4  H   UNL     1     -32.801  25.680   4.430  0.00  0.00    +0.150 HD
ENDROOT
BRANCH   3   5
ATOM      5  C   UNL     1     -35.036  24.429   4.296  0.00  0.00    +0.053 C 
ATOM      6  C   UNL     1     -34.979  24.281   2.926  0.00  0.00    +0.005 C 
ATOM      7  C   UNL     1     -35.305  23.372   5.140  0.00  0.00    +0.005 C 
ATOM      8  C   UNL     1     -35.201  23.020   2.373  0.00  0.00    +0.003 C 
ATOM      9  C   UNL     1     -35.525  22.109   4.588  0.00  0.00    +0.003 C 
ATOM     10  C   UNL     1     -35.473  21.934   3.205  0.00  0.00    +0.036 C 
BRANCH  10  12
ATOM     11  N   UNL     1     -37.015  20.173   2.419  0.00  0.00    -0.381 N 
ATOM     12  C   UNL     1     -35.704  20.618   2.630  0.00  0.00    +0.160 C 
ATOM     13  H   UNL     1     -37.176  19.283   2.030  0.00  0.00    +0.157 HD
ATOM     14  H   UNL     1     -37.775  20.750   2.661  0.00  0.00    +0.157 HD
BRANCH  12  15
ATOM     15  N   UNL     1     -34.654  19.874   2.316  0.00  0.00    -0.118 NA
BRANCH  15  16
ATOM     16  O   UNL     1     -34.895  19.060   1.205  0.00  0.00    -0.264 OA
ATOM     17  H   UNL     1     -34.568  18.182   1.186  0.00  0.00    +0.247 HD
ENDBRANCH  15  16
ENDBRANCH  12  15
ENDBRANCH  10  12
ENDBRANCH   3   5
BRANCH   2  18
ATOM     18  C   UNL     1     -33.105  27.508   5.396  0.00  0.00    +0.149 C 
ATOM     19  C   UNL     1     -32.508  27.378   6.778  0.00  0.00    +0.031 C 
BRANCH  18  27
ATOM     20  O   UNL     1     -30.902  27.718   4.550  0.00  0.00    -0.273 OA
ATOM     21  N   UNL     1     -32.561  28.889   3.422  0.00  0.00    -0.278 N 
ATOM     22  C   UNL     1     -33.157  31.402   2.118  0.00  0.00    +0.119 C 
ATOM     23  C   UNL     1     -31.718  30.933   2.334  0.00  0.00    +0.051 C 
ATOM     24  C   UNL     1     -34.083  30.813   3.183  0.00  0.00    +0.051 C 
ATOM     25  C   UNL     1     -31.639  29.411   2.410  0.00  0.00    +0.096 C 
ATOM     26  C   UNL     1     -33.962  29.293   3.246  0.00  0.00    +0.096 C 
ATOM     27  C   UNL     1     -32.085  28.042   4.422  0.00  0.00    +0.244 C 
BRANCH  22  28
ATOM     28  O   UNL     1     -33.219  32.820   2.191  0.00  0.00    -0.345 OA
BRANCH  28  29
ATOM     29  C   UNL     1     -34.338  33.330   1.479  0.00  0.00    +0.252 C 
BRANCH  29  31
ATOM     30  O   UNL     1     -33.445  35.502   2.077  0.00  0.00    -0.247 OA
ATOM     31  C   UNL     1     -34.251  34.833   1.447  0.00  0.00    +0.348 C 
BRANCH  31  32
ATOM     32  O   UNL     1     -35.213  35.315   0.605  0.00  0.00    -0.447 OA
BRANCH  32  33
ATOM     33  C   UNL     1     -35.294  36.741   0.517  0.00  0.00    +0.209 C 
ATOM     34  C   UNL     1     -36.752  37.151   0.496  0.00  0.00    +0.051 C 
ENDBRANCH  32  33
ENDBRANCH  31  32
ENDBRANCH  29  31
ENDBRANCH  28  29
ENDBRANCH  22  28
ENDBRANCH  18  27
ENDBRANCH   2  18
TORSDOF 11
ENDMDL
MODEL 9
REMARK VINA RESULT:      -5.7      4.830      8.027
REMARK  Name = 5491394
REMARK  11 active torsions:
REMARK  status: ('A' for Active; 'I' for Inactive)
REMARK    1  A    between atoms: N_2  and  C_18
REMARK    2  A    between atoms: C_3  and  C_5
REMARK    3  A    between atoms: C_10  and  C_13
REMARK    4  A    between atoms: N_12  and  C_13
REMARK    5  A    between atoms: N_12  and  O_16
REMARK    6  A    between atoms: C_18  and  C_27
REMARK    7  A    between atoms: C_22  and  O_28
REMARK    8  A    between atoms: O_28  and  C_29
REMARK    9  A    between atoms: C_29  and  C_31
REMARK   10  A    between atoms: C_31  and  O_32
REMARK   11  A    between atoms: O_32  and  C_33
REMARK                            x       y       z     vdW  Elec       q    Type
REMARK                         _______ _______ _______ _____ _____    ______ ____
ROOT
ATOM      1  O   UNL     1     -32.575  28.415   5.367  0.00  0.00    -0.270 OA
ATOM      2  N   UNL     1     -32.549  28.080   3.071  0.00  0.00    -0.295 N 
ATOM      3  C   UNL     1     -32.886  27.750   4.381  0.00  0.00    +0.246 C 
ATOM      4  H   UNL     1     -32.844  27.484   2.345  0.00  0.00    +0.150 HD
ENDROOT
BRANCH   3   5
ATOM      5  C   UNL     1     -33.652  26.491   4.568  0.00  0.00    +0.053 C 
ATOM      6  C   UNL     1     -33.818  25.647   3.489  0.00  0.00    +0.005 C 
ATOM      7  C   UNL     1     -34.175  26.207   5.812  0.00  0.00    +0.005 C 
ATOM      8  C   UNL     1     -34.539  24.465   3.662  0.00  0.00    +0.003 C 
ATOM      9  C   UNL     1     -34.894  25.025   5.986  0.00  0.00    +0.003 C 
ATOM     10  C   UNL     1     -35.076  24.155   4.911  0.00  0.00    +0.036 C 
BRANCH  10  12
ATOM     11  N   UNL     1     -36.686  22.478   4.080  0.00  0.00    -0.381 N 
ATOM     12  C   UNL     1     -35.827  22.922   5.093  0.00  0.00    +0.160 C 
ATOM     13  H   UNL     1     -37.196  21.644   4.198  0.00  0.00    +0.157 HD
ATOM     14  H   UNL     1     -36.780  22.998   3.250  0.00  0.00    +0.157 HD
BRANCH  12  15
ATOM     15  N   UNL     1     -35.671  22.249   6.223  0.00  0.00    -0.118 NA
BRANCH  15  16
ATOM     16  O   UNL     1     -35.425  20.891   6.000  0.00  0.00    -0.264 OA
ATOM     17  H   UNL     1     -35.187  20.333   6.715  0.00  0.00    +0.247 HD
ENDBRANCH  15  16
ENDBRANCH  12  15
ENDBRANCH  10  12
ENDBRANCH   3   5
BRANCH   2  18
ATOM     18  C   UNL     1     -31.792  29.249   2.734  0.00  0.00    +0.149 C 
ATOM     19  C   UNL     1     -30.304  28.984   2.720  0.00  0.00    +0.031 C 
BRANCH  18  27
ATOM     20  O   UNL     1     -31.568  29.391   0.380  0.00  0.00    -0.273 OA
ATOM     21  N   UNL     1     -33.532  30.237   1.286  0.00  0.00    -0.278 N 
ATOM     22  C   UNL     1     -35.431  32.411   1.103  0.00  0.00    +0.119 C 
ATOM     23  C   UNL     1     -34.497  32.063  -0.057  0.00  0.00    +0.051 C 
ATOM     24  C   UNL     1     -34.811  32.001   2.439  0.00  0.00    +0.051 C 
ATOM     25  C   UNL     1     -34.096  30.592  -0.019  0.00  0.00    +0.096 C 
ATOM     26  C   UNL     1     -34.402  30.531   2.434  0.00  0.00    +0.096 C 
ATOM     27  C   UNL     1     -32.280  29.628   1.359  0.00  0.00    +0.244 C 
BRANCH  22  28
ATOM     28  O   UNL     1     -35.676  33.812   1.122  0.00  0.00    -0.345 OA
BRANCH  28  29
ATOM     29  C   UNL     1     -36.925  34.131   0.525  0.00  0.00    +0.252 C 
BRANCH  29  31
ATOM     30  O   UNL     1     -38.462  33.155   2.124  0.00  0.00    -0.247 OA
ATOM     31  C   UNL     1     -37.986  34.149   1.593  0.00  0.00    +0.348 C 
BRANCH  31  32
ATOM     32  O   UNL     1     -38.320  35.445   1.865  0.00  0.00    -0.447 OA
BRANCH  32  33
ATOM     33  C   UNL     1     -39.317  35.623   2.876  0.00  0.00    +0.209 C 
ATOM     34  C   UNL     1     -40.628  35.997   2.214  0.00  0.00    +0.051 C 
ENDBRANCH  32  33
ENDBRANCH  31  32
ENDBRANCH  29  31
ENDBRANCH  28  29
ENDBRANCH  22  28
ENDBRANCH  18  27
ENDBRANCH   2  18
TORSDOF 11
ENDMDL
