MODEL 1
REMARK VINA RESULT:      -6.4      0.000      0.000
REMARK  Name = 54556623
REMARK  5 active torsions:
REMARK  status: ('A' for Active; 'I' for Inactive)
REMARK    1  A    between atoms: N_3  and  C_26
REMARK    2  A    between atoms: C_11  and  C_30
REMARK    3  A    between atoms: N_15  and  C_20
REMARK    4  A    between atoms: N_15  and  O_24
REMARK    5  A    between atoms: C_30  and  O_31
REMARK                            x       y       z     vdW  Elec       q    Type
REMARK                         _______ _______ _______ _____ _____    ______ ____
ROOT
ATOM      1  F   UNL     1     -32.576  26.587   7.106  0.00  0.00    -0.200 F 
ATOM      2  O   UNL     1     -36.750  24.356   5.310  0.00  0.00    -0.290 OA
ATOM      3  N   UNL     1     -35.692  27.163   2.566  0.00  0.00    -0.266 N 
ATOM      4  N   UNL     1     -33.789  27.818   3.909  0.00  0.00    -0.373 NA
ATOM      5  C   UNL     1     -33.052  27.645   5.030  0.00  0.00    +0.216 C 
ATOM      6  C   UNL     1     -34.881  27.029   3.731  0.00  0.00    +0.177 C 
ATOM      7  C   UNL     1     -35.236  26.065   4.688  0.00  0.00    +0.153 C 
ATOM      8  C   UNL     1     -33.339  26.716   6.013  0.00  0.00    +0.181 C 
ATOM      9  C   UNL     1     -36.819  26.384   2.408  0.00  0.00    +0.076 C 
ATOM     10  C   UNL     1     -34.455  25.911   5.836  0.00  0.00    +0.023 C 
ATOM     11  C   UNL     1     -37.237  25.443   3.263  0.00  0.00    +0.126 C 
ATOM     12  C   UNL     1     -36.435  25.211   4.492  0.00  0.00    +0.192 C 
ATOM     13  N   UNL     1     -28.824  31.614   4.392  0.00  0.00    +0.384 N 
ATOM     14  N   UNL     1     -31.936  28.446   5.217  0.00  0.00    -0.258 N 
ATOM     15  C   UNL     1     -30.259  30.127   4.822  0.00  0.00    +0.019 C 
ATOM     16  C   UNL     1     -29.066  30.267   3.841  0.00  0.00    -0.076 C 
ATOM     17  C   UNL     1     -30.233  31.678   4.828  0.00  0.00    -0.076 C 
ATOM     18  C   UNL     1     -31.526  29.478   4.252  0.00  0.00    +0.100 C 
ATOM     19  C   UNL     1     -30.030  29.375   6.163  0.00  0.00    +0.097 C 
ATOM     20  C   UNL     1     -31.080  28.333   6.397  0.00  0.00    +0.084 C 
ATOM     21  H   UNL     1     -28.571  32.313   3.694  0.00  0.00    -0.084 HD
ATOM     22  H   UNL     1     -28.067  31.775   5.058  0.00  0.00    -0.084 HD
ENDROOT
BRANCH   3  23
ATOM     23  C   UNL     1     -35.366  28.190   1.557  0.00  0.00    +0.079 C 
ATOM     24  C   UNL     1     -36.004  29.548   1.590  0.00  0.00    +0.022 C 
ATOM     25  C   UNL     1     -36.351  28.581   0.497  0.00  0.00    +0.022 C 
ENDBRANCH   3  23
BRANCH  11  27
ATOM     26  O   UNL     1     -38.620  24.049   1.923  0.00  0.00    -0.245 OA
ATOM     27  C   UNL     1     -38.455  24.699   2.941  0.00  0.00    +0.342 C 
BRANCH  27  28
ATOM     28  O   UNL     1     -39.354  24.846   3.937  0.00  0.00    -0.477 OA
ATOM     29  H   UNL     1     -40.214  25.167   3.749  0.00  0.00    +0.295 HD
ENDBRANCH  27  28
ENDBRANCH  11  27
BRANCH  19  30
ATOM     30  N   UNL     1     -29.069  29.597   6.993  0.00  0.00    -0.134 NA
BRANCH  30  31
ATOM     31  O   UNL     1     -28.391  28.391   7.218  0.00  0.00    -0.234 OA
ATOM     32  C   UNL     1     -27.104  28.491   6.624  0.00  0.00    +0.211 C 
ENDBRANCH  30  31
ENDBRANCH  19  30
TORSDOF 5
ENDMDL
MODEL 2
REMARK VINA RESULT:      -6.2      2.380      2.621
REMARK  Name = 54556623
REMARK  5 active torsions:
REMARK  status: ('A' for Active; 'I' for Inactive)
REMARK    1  A    between atoms: N_3  and  C_26
REMARK    2  A    between atoms: C_11  and  C_30
REMARK    3  A    between atoms: N_15  and  C_20
REMARK    4  A    between atoms: N_15  and  O_24
REMARK    5  A    between atoms: C_30  and  O_31
REMARK                            x       y       z     vdW  Elec       q    Type
REMARK                         _______ _______ _______ _____ _____    ______ ____
ROOT
ATOM      1  F   UNL     1     -33.668  26.532   6.705  0.00  0.00    -0.200 F 
ATOM      2  O   UNL     1     -36.306  22.540   5.051  0.00  0.00    -0.290 OA
ATOM      3  N   UNL     1     -34.696  24.285   1.751  0.00  0.00    -0.266 N 
ATOM      4  N   UNL     1     -33.648  25.988   3.112  0.00  0.00    -0.373 NA
ATOM      5  C   UNL     1     -33.419  26.506   4.341  0.00  0.00    +0.216 C 
ATOM      6  C   UNL     1     -34.424  24.877   3.019  0.00  0.00    +0.177 C 
ATOM      7  C   UNL     1     -34.975  24.286   4.168  0.00  0.00    +0.153 C 
ATOM      8  C   UNL     1     -33.925  25.978   5.513  0.00  0.00    +0.181 C 
ATOM      9  C   UNL     1     -35.513  23.177   1.659  0.00  0.00    +0.076 C 
ATOM     10  C   UNL     1     -34.720  24.845   5.422  0.00  0.00    +0.023 C 
ATOM     11  C   UNL     1     -36.083  22.547   2.693  0.00  0.00    +0.126 C 
ATOM     12  C   UNL     1     -35.829  23.075   4.059  0.00  0.00    +0.192 C 
ATOM     13  N   UNL     1     -30.021  31.101   3.166  0.00  0.00    +0.384 N 
ATOM     14  N   UNL     1     -32.627  27.639   4.443  0.00  0.00    -0.258 N 
ATOM     15  C   UNL     1     -31.238  29.501   3.808  0.00  0.00    +0.019 C 
ATOM     16  C   UNL     1     -29.789  29.648   3.276  0.00  0.00    -0.076 C 
ATOM     17  C   UNL     1     -31.474  30.853   3.085  0.00  0.00    -0.076 C 
ATOM     18  C   UNL     1     -32.034  28.304   3.272  0.00  0.00    +0.100 C 
ATOM     19  C   UNL     1     -31.460  29.432   5.346  0.00  0.00    +0.097 C 
ATOM     20  C   UNL     1     -32.324  28.271   5.726  0.00  0.00    +0.084 C 
ATOM     21  H   UNL     1     -29.623  31.526   2.328  0.00  0.00    -0.084 HD
ATOM     22  H   UNL     1     -29.642  31.742   3.863  0.00  0.00    -0.084 HD
ENDROOT
BRANCH   3  23
ATOM     23  C   UNL     1     -34.159  24.900   0.521  0.00  0.00    +0.079 C 
ATOM     24  C   UNL     1     -34.964  25.886  -0.274  0.00  0.00    +0.022 C 
ATOM     25  C   UNL     1     -34.682  24.522  -0.832  0.00  0.00    +0.022 C 
ENDBRANCH   3  23
BRANCH  11  27
ATOM     26  O   UNL     1     -37.972  21.408   1.808  0.00  0.00    -0.245 OA
ATOM     27  C   UNL     1     -36.920  21.378   2.422  0.00  0.00    +0.342 C 
BRANCH  27  28
ATOM     28  O   UNL     1     -36.349  20.277   2.954  0.00  0.00    -0.477 OA
ATOM     29  H   UNL     1     -36.696  19.429   2.759  0.00  0.00    +0.295 HD
ENDBRANCH  27  28
ENDBRANCH  11  27
BRANCH  19  30
ATOM     30  N   UNL     1     -30.975  30.255   6.211  0.00  0.00    -0.134 NA
BRANCH  30  31
ATOM     31  O   UNL     1     -30.308  29.518   7.199  0.00  0.00    -0.234 OA
ATOM     32  C   UNL     1     -28.924  29.505   6.881  0.00  0.00    +0.211 C 
ENDBRANCH  30  31
ENDBRANCH  19  30
TORSDOF 5
ENDMDL
MODEL 3
REMARK VINA RESULT:      -6.2      6.963     10.020
REMARK  Name = 54556623
REMARK  5 active torsions:
REMARK  status: ('A' for Active; 'I' for Inactive)
REMARK    1  A    between atoms: N_3  and  C_26
REMARK    2  A    between atoms: C_11  and  C_30
REMARK    3  A    between atoms: N_15  and  C_20
REMARK    4  A    between atoms: N_15  and  O_24
REMARK    5  A    between atoms: C_30  and  O_31
REMARK                            x       y       z     vdW  Elec       q    Type
REMARK                         _______ _______ _______ _____ _____    ______ ____
ROOT
ATOM      1  F   UNL     1     -38.771  21.210   0.844  0.00  0.00    -0.200 F 
ATOM      2  O   UNL     1     -37.357  17.105  -1.759  0.00  0.00    -0.290 OA
ATOM      3  N   UNL     1     -34.136  18.205   0.463  0.00  0.00    -0.266 N 
ATOM      4  N   UNL     1     -35.364  20.070   1.394  0.00  0.00    -0.373 NA
ATOM      5  C   UNL     1     -36.515  20.778   1.461  0.00  0.00    +0.216 C 
ATOM      6  C   UNL     1     -35.321  18.991   0.571  0.00  0.00    +0.177 C 
ATOM      7  C   UNL     1     -36.441  18.624  -0.193  0.00  0.00    +0.153 C 
ATOM      8  C   UNL     1     -37.656  20.474   0.742  0.00  0.00    +0.181 C 
ATOM      9  C   UNL     1     -34.087  17.131  -0.400  0.00  0.00    +0.076 C 
ATOM     10  C   UNL     1     -37.615  19.374  -0.102  0.00  0.00    +0.023 C 
ATOM     11  C   UNL     1     -35.099  16.706  -1.168  0.00  0.00    +0.126 C 
ATOM     12  C   UNL     1     -36.386  17.447  -1.098  0.00  0.00    +0.192 C 
ATOM     13  N   UNL     1     -35.206  24.972   5.299  0.00  0.00    +0.384 N 
ATOM     14  N   UNL     1     -36.566  21.880   2.300  0.00  0.00    -0.258 N 
ATOM     15  C   UNL     1     -35.883  23.552   3.892  0.00  0.00    +0.019 C 
ATOM     16  C   UNL     1     -35.583  23.550   5.414  0.00  0.00    -0.076 C 
ATOM     17  C   UNL     1     -34.925  24.771   3.864  0.00  0.00    -0.076 C 
ATOM     18  C   UNL     1     -35.419  22.314   3.114  0.00  0.00    +0.100 C 
ATOM     19  C   UNL     1     -37.353  23.751   3.427  0.00  0.00    +0.097 C 
ATOM     20  C   UNL     1     -37.765  22.705   2.438  0.00  0.00    +0.084 C 
ATOM     21  H   UNL     1     -34.389  25.234   5.852  0.00  0.00    -0.084 HD
ATOM     22  H   UNL     1     -35.845  25.706   5.605  0.00  0.00    -0.084 HD
ENDROOT
BRANCH   3  23
ATOM     23  C   UNL     1     -32.931  18.584   1.227  0.00  0.00    +0.079 C 
ATOM     24  C   UNL     1     -31.842  19.410   0.608  0.00  0.00    +0.022 C 
ATOM     25  C   UNL     1     -31.596  17.967   0.934  0.00  0.00    +0.022 C 
ENDBRANCH   3  23
BRANCH  11  27
ATOM     26  O   UNL     1     -34.074  15.497  -2.938  0.00  0.00    -0.245 OA
ATOM     27  C   UNL     1     -34.882  15.543  -2.027  0.00  0.00    +0.342 C 
BRANCH  27  28
ATOM     28  O   UNL     1     -35.708  14.543  -1.655  0.00  0.00    -0.477 OA
ATOM     29  H   UNL     1     -35.576  14.106  -0.837  0.00  0.00    +0.295 HD
ENDBRANCH  27  28
ENDBRANCH  11  27
BRANCH  19  30
ATOM     30  N   UNL     1     -38.145  24.688   3.824  0.00  0.00    -0.134 NA
BRANCH  30  31
ATOM     31  O   UNL     1     -39.458  24.330   3.488  0.00  0.00    -0.234 OA
ATOM     32  C   UNL     1     -40.143  25.503   3.074  0.00  0.00    +0.211 C 
ENDBRANCH  30  31
ENDBRANCH  19  30
TORSDOF 5
ENDMDL
MODEL 4
REMARK VINA RESULT:      -6.1      2.538      4.368
REMARK  Name = 54556623
REMARK  5 active torsions:
REMARK  status: ('A' for Active; 'I' for Inactive)
REMARK    1  A    between atoms: N_3  and  C_26
REMARK    2  A    between atoms: C_11  and  C_30
REMARK    3  A    between atoms: N_15  and  C_20
REMARK    4  A    between atoms: N_15  and  O_24
REMARK    5  A    between atoms: C_30  and  O_31
REMARK                            x       y       z     vdW  Elec       q    Type
REMARK                         _______ _______ _______ _____ _____    ______ ____
ROOT
ATOM      1  F   UNL     1     -34.748  28.590   1.847  0.00  0.00    -0.200 F 
ATOM      2  O   UNL     1     -38.018  24.825   0.977  0.00  0.00    -0.290 OA
ATOM      3  N   UNL     1     -36.017  23.830   4.373  0.00  0.00    -0.266 N 
ATOM      4  N   UNL     1     -34.714  25.865   4.251  0.00  0.00    -0.373 NA
ATOM      5  C   UNL     1     -34.434  27.021   3.605  0.00  0.00    +0.216 C 
ATOM      6  C   UNL     1     -35.677  25.058   3.733  0.00  0.00    +0.177 C 
ATOM      7  C   UNL     1     -36.359  25.414   2.558  0.00  0.00    +0.153 C 
ATOM      8  C   UNL     1     -35.065  27.436   2.448  0.00  0.00    +0.181 C 
ATOM      9  C   UNL     1     -36.971  22.999   3.824  0.00  0.00    +0.076 C 
ATOM     10  C   UNL     1     -36.047  26.613   1.915  0.00  0.00    +0.023 C 
ATOM     11  C   UNL     1     -37.671  23.250   2.711  0.00  0.00    +0.126 C 
ATOM     12  C   UNL     1     -37.405  24.523   1.993  0.00  0.00    +0.192 C 
ATOM     13  N   UNL     1     -30.233  29.340   6.923  0.00  0.00    +0.384 N 
ATOM     14  N   UNL     1     -33.454  27.849   4.129  0.00  0.00    -0.258 N 
ATOM     15  C   UNL     1     -31.728  28.680   5.588  0.00  0.00    +0.019 C 
ATOM     16  C   UNL     1     -31.704  29.264   7.024  0.00  0.00    -0.076 C 
ATOM     17  C   UNL     1     -30.260  28.285   5.892  0.00  0.00    -0.076 C 
ATOM     18  C   UNL     1     -32.702  27.519   5.350  0.00  0.00    +0.100 C 
ATOM     19  C   UNL     1     -32.008  29.645   4.400  0.00  0.00    +0.097 C 
ATOM     20  C   UNL     1     -33.082  29.116   3.502  0.00  0.00    +0.084 C 
ATOM     21  H   UNL     1     -29.742  29.077   7.777  0.00  0.00    -0.084 HD
ATOM     22  H   UNL     1     -29.770  30.231   6.743  0.00  0.00    -0.084 HD
ENDROOT
BRANCH   3  23
ATOM     23  C   UNL     1     -35.296  23.411   5.592  0.00  0.00    +0.079 C 
ATOM     24  C   UNL     1     -34.448  22.173   5.610  0.00  0.00    +0.022 C 
ATOM     25  C   UNL     1     -35.733  22.214   6.383  0.00  0.00    +0.022 C 
ENDBRANCH   3  23
BRANCH  11  27
ATOM     26  O   UNL     1     -39.822  22.507   2.026  0.00  0.00    -0.245 OA
ATOM     27  C   UNL     1     -38.653  22.261   2.266  0.00  0.00    +0.342 C 
BRANCH  27  28
ATOM     28  O   UNL     1     -38.065  21.050   2.166  0.00  0.00    -0.477 OA
ATOM     29  H   UNL     1     -37.474  20.759   2.832  0.00  0.00    +0.295 HD
ENDBRANCH  27  28
ENDBRANCH  11  27
BRANCH  19  30
ATOM     30  N   UNL     1     -31.408  30.766   4.187  0.00  0.00    -0.134 NA
BRANCH  30  31
ATOM     31  O   UNL     1     -32.215  31.548   3.350  0.00  0.00    -0.234 OA
ATOM     32  C   UNL     1     -31.467  32.690   2.957  0.00  0.00    +0.211 C 
ENDBRANCH  30  31
ENDBRANCH  19  30
TORSDOF 5
ENDMDL
MODEL 5
REMARK VINA RESULT:      -5.9      2.637      8.304
REMARK  Name = 54556623
REMARK  5 active torsions:
REMARK  status: ('A' for Active; 'I' for Inactive)
REMARK    1  A    between atoms: N_3  and  C_26
REMARK    2  A    between atoms: C_11  and  C_30
REMARK    3  A    between atoms: N_15  and  C_20
REMARK    4  A    between atoms: N_15  and  O_24
REMARK    5  A    between atoms: C_30  and  O_31
REMARK                            x       y       z     vdW  Elec       q    Type
REMARK                         _______ _______ _______ _____ _____    ______ ____
ROOT
ATOM      1  F   UNL     1     -36.544  24.253   5.336  0.00  0.00    -0.200 F 
ATOM      2  O   UNL     1     -32.489  26.719   7.099  0.00  0.00    -0.290 OA
ATOM      3  N   UNL     1     -33.292  28.317   3.447  0.00  0.00    -0.266 N 
ATOM      4  N   UNL     1     -35.177  26.827   3.165  0.00  0.00    -0.373 NA
ATOM      5  C   UNL     1     -35.950  25.834   3.661  0.00  0.00    +0.216 C 
ATOM      6  C   UNL     1     -34.137  27.269   3.918  0.00  0.00    +0.177 C 
ATOM      7  C   UNL     1     -33.870  26.707   5.177  0.00  0.00    +0.153 C 
ATOM      8  C   UNL     1     -35.749  25.236   4.891  0.00  0.00    +0.181 C 
ATOM      9  C   UNL     1     -32.217  28.738   4.202  0.00  0.00    +0.076 C 
ATOM     10  C   UNL     1     -34.686  25.683   5.663  0.00  0.00    +0.023 C 
ATOM     11  C   UNL     1     -31.882  28.263   5.408  0.00  0.00    +0.126 C 
ATOM     12  C   UNL     1     -32.727  27.189   5.993  0.00  0.00    +0.192 C 
ATOM     13  N   UNL     1     -39.885  25.048  -0.573  0.00  0.00    +0.384 N 
ATOM     14  N   UNL     1     -37.013  25.379   2.898  0.00  0.00    -0.258 N 
ATOM     15  C   UNL     1     -38.564  25.163   1.068  0.00  0.00    +0.019 C 
ATOM     16  C   UNL     1     -39.721  26.033   0.514  0.00  0.00    -0.076 C 
ATOM     17  C   UNL     1     -38.485  24.620  -0.382  0.00  0.00    -0.076 C 
ATOM     18  C   UNL     1     -37.330  25.926   1.569  0.00  0.00    +0.100 C 
ATOM     19  C   UNL     1     -38.873  24.166   2.220  0.00  0.00    +0.097 C 
ATOM     20  C   UNL     1     -37.902  24.310   3.350  0.00  0.00    +0.084 C 
ATOM     21  H   UNL     1     -40.074  25.461  -1.487  0.00  0.00    -0.084 HD
ATOM     22  H   UNL     1     -40.644  24.367  -0.547  0.00  0.00    -0.084 HD
ENDROOT
BRANCH   3  23
ATOM     23  C   UNL     1     -33.525  28.907   2.114  0.00  0.00    +0.079 C 
ATOM     24  C   UNL     1     -32.791  28.412   0.902  0.00  0.00    +0.022 C 
ATOM     25  C   UNL     1     -32.495  29.775   1.455  0.00  0.00    +0.022 C 
ENDBRANCH   3  23
BRANCH  11  27
ATOM     26  O   UNL     1     -30.453  30.015   6.141  0.00  0.00    -0.245 OA
ATOM     27  C   UNL     1     -30.710  28.825   6.079  0.00  0.00    +0.342 C 
BRANCH  27  28
ATOM     28  O   UNL     1     -29.970  27.830   6.611  0.00  0.00    -0.477 OA
ATOM     29  H   UNL     1     -29.983  27.680   7.536  0.00  0.00    +0.295 HD
ENDBRANCH  27  28
ENDBRANCH  11  27
BRANCH  19  30
ATOM     30  N   UNL     1     -39.836  23.309   2.232  0.00  0.00    -0.134 NA
BRANCH  30  31
ATOM     31  O   UNL     1     -39.283  22.021   2.215  0.00  0.00    -0.234 OA
ATOM     32  C   UNL     1     -39.707  21.375   1.023  0.00  0.00    +0.211 C 
ENDBRANCH  30  31
ENDBRANCH  19  30
TORSDOF 5
ENDMDL
MODEL 6
REMARK VINA RESULT:      -5.9      6.454      9.717
REMARK  Name = 54556623
REMARK  5 active torsions:
REMARK  status: ('A' for Active; 'I' for Inactive)
REMARK    1  A    between atoms: N_3  and  C_26
REMARK    2  A    between atoms: C_11  and  C_30
REMARK    3  A    between atoms: N_15  and  C_20
REMARK    4  A    between atoms: N_15  and  O_24
REMARK    5  A    between atoms: C_30  and  O_31
REMARK                            x       y       z     vdW  Elec       q    Type
REMARK                         _______ _______ _______ _____ _____    ______ ____
ROOT
ATOM      1  F   UNL     1     -37.827  19.188  -0.039  0.00  0.00    -0.200 F 
ATOM      2  O   UNL     1     -40.429  23.157   1.722  0.00  0.00    -0.290 OA
ATOM      3  N   UNL     1     -36.551  23.789   2.764  0.00  0.00    -0.266 N 
ATOM      4  N   UNL     1     -35.889  21.709   1.720  0.00  0.00    -0.373 NA
ATOM      5  C   UNL     1     -36.240  20.598   1.033  0.00  0.00    +0.216 C 
ATOM      6  C   UNL     1     -36.863  22.598   2.045  0.00  0.00    +0.177 C 
ATOM      7  C   UNL     1     -38.200  22.366   1.680  0.00  0.00    +0.153 C 
ATOM      8  C   UNL     1     -37.532  20.305   0.639  0.00  0.00    +0.181 C 
ATOM      9  C   UNL     1     -37.550  24.670   3.121  0.00  0.00    +0.076 C 
ATOM     10  C   UNL     1     -38.531  21.209   0.971  0.00  0.00    +0.023 C 
ATOM     11  C   UNL     1     -38.847  24.535   2.821  0.00  0.00    +0.126 C 
ATOM     12  C   UNL     1     -39.262  23.338   2.044  0.00  0.00    +0.192 C 
ATOM     13  N   UNL     1     -31.140  17.841   0.384  0.00  0.00    +0.384 N 
ATOM     14  N   UNL     1     -35.250  19.688   0.698  0.00  0.00    -0.258 N 
ATOM     15  C   UNL     1     -33.079  18.664   0.511  0.00  0.00    +0.019 C 
ATOM     16  C   UNL     1     -31.793  18.977  -0.297  0.00  0.00    -0.076 C 
ATOM     17  C   UNL     1     -32.104  17.965   1.494  0.00  0.00    -0.076 C 
ATOM     18  C   UNL     1     -33.838  19.877   1.064  0.00  0.00    +0.100 C 
ATOM     19  C   UNL     1     -34.190  17.812  -0.166  0.00  0.00    +0.097 C 
ATOM     20  C   UNL     1     -35.534  18.459  -0.042  0.00  0.00    +0.084 C 
ATOM     21  H   UNL     1     -30.171  18.015   0.651  0.00  0.00    -0.084 HD
ATOM     22  H   UNL     1     -31.013  16.950  -0.097  0.00  0.00    -0.084 HD
ENDROOT
BRANCH   3  23
ATOM     23  C   UNL     1     -35.161  24.047   3.191  0.00  0.00    +0.079 C 
ATOM     24  C   UNL     1     -34.707  23.748   4.590  0.00  0.00    +0.022 C 
ATOM     25  C   UNL     1     -34.830  25.170   4.128  0.00  0.00    +0.022 C 
ENDBRANCH   3  23
BRANCH  11  27
ATOM     26  O   UNL     1     -39.894  26.668   2.760  0.00  0.00    -0.245 OA
ATOM     27  C   UNL     1     -39.779  25.568   3.273  0.00  0.00    +0.342 C 
BRANCH  27  28
ATOM     28  O   UNL     1     -40.482  25.114   4.332  0.00  0.00    -0.477 OA
ATOM     29  H   UNL     1     -40.354  24.238   4.638  0.00  0.00    +0.295 HD
ENDBRANCH  27  28
ENDBRANCH  11  27
BRANCH  19  30
ATOM     30  N   UNL     1     -34.010  16.685  -0.766  0.00  0.00    -0.134 NA
BRANCH  30  31
ATOM     31  O   UNL     1     -34.622  15.677  -0.008  0.00  0.00    -0.234 OA
ATOM     32  C   UNL     1     -35.234  14.761  -0.905  0.00  0.00    +0.211 C 
ENDBRANCH  30  31
ENDBRANCH  19  30
TORSDOF 5
ENDMDL
MODEL 7
REMARK VINA RESULT:      -5.9      2.595      7.824
REMARK  Name = 54556623
REMARK  5 active torsions:
REMARK  status: ('A' for Active; 'I' for Inactive)
REMARK    1  A    between atoms: N_3  and  C_26
REMARK    2  A    between atoms: C_11  and  C_30
REMARK    3  A    between atoms: N_15  and  C_20
REMARK    4  A    between atoms: N_15  and  O_24
REMARK    5  A    between atoms: C_30  and  O_31
REMARK                            x       y       z     vdW  Elec       q    Type
REMARK                         _______ _______ _______ _____ _____    ______ ____
ROOT
ATOM      1  F   UNL     1     -33.730  26.276   6.892  0.00  0.00    -0.200 F 
ATOM      2  O   UNL     1     -30.340  30.034   6.966  0.00  0.00    -0.290 OA
ATOM      3  N   UNL     1     -31.009  29.186   3.047  0.00  0.00    -0.266 N 
ATOM      4  N   UNL     1     -32.585  27.452   3.650  0.00  0.00    -0.373 NA
ATOM      5  C   UNL     1     -33.232  26.764   4.619  0.00  0.00    +0.216 C 
ATOM      6  C   UNL     1     -31.716  28.426   4.025  0.00  0.00    +0.177 C 
ATOM      7  C   UNL     1     -31.493  28.707   5.383  0.00  0.00    +0.153 C 
ATOM      8  C   UNL     1     -33.065  26.988   5.972  0.00  0.00    +0.181 C 
ATOM      9  C   UNL     1     -30.102  30.150   3.435  0.00  0.00    +0.076 C 
ATOM     10  C   UNL     1     -32.176  27.979   6.360  0.00  0.00    +0.023 C 
ATOM     11  C   UNL     1     -29.822  30.487   4.700  0.00  0.00    +0.126 C 
ATOM     12  C   UNL     1     -30.535  29.768   5.787  0.00  0.00    +0.192 C 
ATOM     13  N   UNL     1     -36.524  23.048   1.555  0.00  0.00    +0.384 N 
ATOM     14  N   UNL     1     -34.121  25.770   4.242  0.00  0.00    -0.258 N 
ATOM     15  C   UNL     1     -35.418  24.295   2.849  0.00  0.00    +0.019 C 
ATOM     16  C   UNL     1     -36.638  24.476   1.910  0.00  0.00    -0.076 C 
ATOM     17  C   UNL     1     -35.101  23.075   1.945  0.00  0.00    -0.076 C 
ATOM     18  C   UNL     1     -34.384  25.429   2.835  0.00  0.00    +0.100 C 
ATOM     19  C   UNL     1     -35.677  24.051   4.363  0.00  0.00    +0.097 C 
ATOM     20  C   UNL     1     -34.865  24.974   5.217  0.00  0.00    +0.084 C 
ATOM     21  H   UNL     1     -36.683  22.848   0.567  0.00  0.00    -0.084 HD
ATOM     22  H   UNL     1     -37.160  22.359   1.959  0.00  0.00    -0.084 HD
ENDROOT
BRANCH   3  23
ATOM     23  C   UNL     1     -31.196  28.894   1.612  0.00  0.00    +0.079 C 
ATOM     24  C   UNL     1     -30.330  27.897   0.900  0.00  0.00    +0.022 C 
ATOM     25  C   UNL     1     -30.206  29.359   0.587  0.00  0.00    +0.022 C 
ENDBRANCH   3  23
BRANCH  11  27
ATOM     26  O   UNL     1     -28.815  32.614   4.365  0.00  0.00    -0.245 OA
ATOM     27  C   UNL     1     -28.834  31.539   4.939  0.00  0.00    +0.342 C 
BRANCH  27  28
ATOM     28  O   UNL     1     -27.959  31.134   5.884  0.00  0.00    -0.477 OA
ATOM     29  H   UNL     1     -27.206  30.633   5.641  0.00  0.00    +0.295 HD
ENDBRANCH  27  28
ENDBRANCH  11  27
BRANCH  19  30
ATOM     30  N   UNL     1     -36.483  23.172   4.853  0.00  0.00    -0.134 NA
BRANCH  30  31
ATOM     31  O   UNL     1     -35.945  22.703   6.059  0.00  0.00    -0.234 OA
ATOM     32  C   UNL     1     -35.186  21.536   5.780  0.00  0.00    +0.211 C 
ENDBRANCH  30  31
ENDBRANCH  19  30
TORSDOF 5
ENDMDL
MODEL 8
REMARK VINA RESULT:      -5.8      3.468      8.395
REMARK  Name = 54556623
REMARK  5 active torsions:
REMARK  status: ('A' for Active; 'I' for Inactive)
REMARK    1  A    between atoms: N_3  and  C_26
REMARK    2  A    between atoms: C_11  and  C_30
REMARK    3  A    between atoms: N_15  and  C_20
REMARK    4  A    between atoms: N_15  and  O_24
REMARK    5  A    between atoms: C_30  and  O_31
REMARK                            x       y       z     vdW  Elec       q    Type
REMARK                         _______ _______ _______ _____ _____    ______ ____
ROOT
ATOM      1  F   UNL     1     -36.435  28.792   1.573  0.00  0.00    -0.200 F 
ATOM      2  O   UNL     1     -33.523  32.931   1.689  0.00  0.00    -0.290 OA
ATOM      3  N   UNL     1     -31.854  30.294   4.295  0.00  0.00    -0.266 N 
ATOM      4  N   UNL     1     -33.577  28.665   3.814  0.00  0.00    -0.373 NA
ATOM      5  C   UNL     1     -34.696  28.335   3.129  0.00  0.00    +0.216 C 
ATOM      6  C   UNL     1     -33.035  29.893   3.604  0.00  0.00    +0.177 C 
ATOM      7  C   UNL     1     -33.624  30.795   2.702  0.00  0.00    +0.153 C 
ATOM      8  C   UNL     1     -35.327  29.168   2.225  0.00  0.00    +0.181 C 
ATOM      9  C   UNL     1     -31.328  31.555   4.103  0.00  0.00    +0.076 C 
ATOM     10  C   UNL     1     -34.778  30.424   2.010  0.00  0.00    +0.023 C 
ATOM     11  C   UNL     1     -31.817  32.481   3.269  0.00  0.00    +0.126 C 
ATOM     12  C   UNL     1     -33.030  32.139   2.482  0.00  0.00    +0.192 C 
ATOM     13  N   UNL     1     -35.793  22.927   5.024  0.00  0.00    +0.384 N 
ATOM     14  N   UNL     1     -35.253  27.083   3.338  0.00  0.00    -0.258 N 
ATOM     15  C   UNL     1     -35.583  24.864   4.214  0.00  0.00    +0.019 C 
ATOM     16  C   UNL     1     -34.856  23.506   4.040  0.00  0.00    -0.076 C 
ATOM     17  C   UNL     1     -36.029  24.275   5.577  0.00  0.00    -0.076 C 
ATOM     18  C   UNL     1     -34.683  26.105   4.278  0.00  0.00    +0.100 C 
ATOM     19  C   UNL     1     -36.677  25.256   3.180  0.00  0.00    +0.097 C 
ATOM     20  C   UNL     1     -36.460  26.637   2.645  0.00  0.00    +0.084 C 
ATOM     21  H   UNL     1     -35.361  22.276   5.680  0.00  0.00    -0.084 HD
ATOM     22  H   UNL     1     -36.575  22.347   4.718  0.00  0.00    -0.084 HD
ENDROOT
BRANCH   3  23
ATOM     23  C   UNL     1     -31.229  29.383   5.274  0.00  0.00    +0.079 C 
ATOM     24  C   UNL     1     -31.571  29.453   6.734  0.00  0.00    +0.022 C 
ATOM     25  C   UNL     1     -30.212  29.876   6.259  0.00  0.00    +0.022 C 
ENDBRANCH   3  23
BRANCH  11  27
ATOM     26  O   UNL     1     -29.923  33.915   3.198  0.00  0.00    -0.245 OA
ATOM     27  C   UNL     1     -31.133  33.771   3.180  0.00  0.00    +0.342 C 
BRANCH  27  28
ATOM     28  O   UNL     1     -32.044  34.761   3.076  0.00  0.00    -0.477 OA
ATOM     29  H   UNL     1     -32.853  34.608   2.629  0.00  0.00    +0.295 HD
ENDBRANCH  27  28
ENDBRANCH  11  27
BRANCH  19  30
ATOM     30  N   UNL     1     -37.661  24.510   2.810  0.00  0.00    -0.134 NA
BRANCH  30  31
ATOM     31  O   UNL     1     -38.741  24.740   3.674  0.00  0.00    -0.234 OA
ATOM     32  C   UNL     1     -39.926  24.798   2.893  0.00  0.00    +0.211 C 
ENDBRANCH  30  31
ENDBRANCH  19  30
TORSDOF 5
ENDMDL
MODEL 9
REMARK VINA RESULT:      -5.7      2.777      7.547
REMARK  Name = 54556623
REMARK  5 active torsions:
REMARK  status: ('A' for Active; 'I' for Inactive)
REMARK    1  A    between atoms: N_3  and  C_26
REMARK    2  A    between atoms: C_11  and  C_30
REMARK    3  A    between atoms: N_15  and  C_20
REMARK    4  A    between atoms: N_15  and  O_24
REMARK    5  A    between atoms: C_30  and  O_31
REMARK                            x       y       z     vdW  Elec       q    Type
REMARK                         _______ _______ _______ _____ _____    ______ ____
ROOT
ATOM      1  F   UNL     1     -32.771  26.662   6.671  0.00  0.00    -0.200 F 
ATOM      2  O   UNL     1     -30.207  30.907   5.654  0.00  0.00    -0.290 OA
ATOM      3  N   UNL     1     -32.856  30.423   2.609  0.00  0.00    -0.266 N 
ATOM      4  N   UNL     1     -33.698  28.388   3.610  0.00  0.00    -0.373 NA
ATOM      5  C   UNL     1     -33.648  27.491   4.622  0.00  0.00    +0.216 C 
ATOM      6  C   UNL     1     -32.845  29.445   3.646  0.00  0.00    +0.177 C 
ATOM      7  C   UNL     1     -31.933  29.598   4.703  0.00  0.00    +0.153 C 
ATOM      8  C   UNL     1     -32.780  27.579   5.695  0.00  0.00    +0.181 C 
ATOM      9  C   UNL     1     -31.963  31.475   2.633  0.00  0.00    +0.076 C 
ATOM     10  C   UNL     1     -31.906  28.655   5.733  0.00  0.00    +0.023 C 
ATOM     11  C   UNL     1     -31.060  31.703   3.594  0.00  0.00    +0.126 C 
ATOM     12  C   UNL     1     -30.997  30.751   4.733  0.00  0.00    +0.192 C 
ATOM     13  N   UNL     1     -37.780  23.656   3.124  0.00  0.00    +0.384 N 
ATOM     14  N   UNL     1     -34.516  26.412   4.592  0.00  0.00    -0.258 N 
ATOM     15  C   UNL     1     -36.246  24.912   3.845  0.00  0.00    +0.019 C 
ATOM     16  C   UNL     1     -37.791  24.992   3.751  0.00  0.00    -0.076 C 
ATOM     17  C   UNL     1     -36.385  23.878   2.698  0.00  0.00    -0.076 C 
ATOM     18  C   UNL     1     -35.483  26.198   3.503  0.00  0.00    +0.100 C 
ATOM     19  C   UNL     1     -35.609  24.452   5.187  0.00  0.00    +0.097 C 
ATOM     20  C   UNL     1     -34.536  25.392   5.639  0.00  0.00    +0.084 C 
ATOM     21  H   UNL     1     -38.441  23.550   2.354  0.00  0.00    -0.084 HD
ATOM     22  H   UNL     1     -38.033  22.827   3.663  0.00  0.00    -0.084 HD
ENDROOT
BRANCH   3  23
ATOM     23  C   UNL     1     -33.779  30.274   1.466  0.00  0.00    +0.079 C 
ATOM     24  C   UNL     1     -33.337  29.627   0.185  0.00  0.00    +0.022 C 
ATOM     25  C   UNL     1     -33.622  31.100   0.225  0.00  0.00    +0.022 C 
ENDBRANCH   3  23
BRANCH  11  27
ATOM     26  O   UNL     1     -30.566  33.983   3.138  0.00  0.00    -0.245 OA
ATOM     27  C   UNL     1     -30.189  32.872   3.469  0.00  0.00    +0.342 C 
BRANCH  27  28
ATOM     28  O   UNL     1     -28.921  32.529   3.775  0.00  0.00    -0.477 OA
ATOM     29  H   UNL     1     -28.458  32.993   4.445  0.00  0.00    +0.295 HD
ENDBRANCH  27  28
ENDBRANCH  11  27
BRANCH  19  30
ATOM     30  N   UNL     1     -35.939  23.397   5.852  0.00  0.00    -0.134 NA
BRANCH  30  31
ATOM     31  O   UNL     1     -34.801  22.592   5.999  0.00  0.00    -0.234 OA
ATOM     32  C   UNL     1     -35.089  21.315   5.448  0.00  0.00    +0.211 C 
ENDBRANCH  30  31
ENDBRANCH  19  30
TORSDOF 5
ENDMDL
