MODEL 1
REMARK VINA RESULT:      -7.2      0.000      0.000
REMARK  Name = 195876
REMARK  6 active torsions:
REMARK  status: ('A' for Active; 'I' for Inactive)
REMARK    1  A    between atoms: C_15  and  O_24
REMARK    2  A    between atoms: C_16  and  O_26
REMARK    3  A    between atoms: C_18  and  C_33
REMARK    4  A    between atoms: C_22  and  O_28
REMARK    5  A    between atoms: C_23  and  O_30
REMARK    6  A    between atoms: C_33  and  O_34
REMARK                            x       y       z     vdW  Elec       q    Type
REMARK                         _______ _______ _______ _____ _____    ______ ____
ROOT
ATOM      1  O   UNL     1     -34.571  21.833  -0.737  0.00  0.00    -0.440 OA
ATOM      2  O   UNL     1     -35.582  17.990   0.174  0.00  0.00    -0.448 OA
ATOM      3  O   UNL     1     -34.058  24.088  -0.822  0.00  0.00    -0.245 OA
ATOM      4  C   UNL     1     -34.972  20.845   0.266  0.00  0.00    +0.198 C 
ATOM      5  C   UNL     1     -35.016  21.679   1.506  0.00  0.00    +0.028 C 
ATOM      6  C   UNL     1     -36.329  20.297  -0.126  0.00  0.00    +0.059 C 
ATOM      7  C   UNL     1     -33.909  19.766   0.317  0.00  0.00    +0.059 C 
ATOM      8  C   UNL     1     -34.674  22.985   1.206  0.00  0.00    +0.076 C 
ATOM      9  C   UNL     1     -36.551  18.916  -0.130  0.00  0.00    +0.182 C 
ATOM     10  C   UNL     1     -34.281  18.417   0.285  0.00  0.00    +0.182 C 
ATOM     11  C   UNL     1     -34.390  23.089  -0.217  0.00  0.00    +0.342 C 
ATOM     12  C   UNL     1     -35.332  21.323   2.808  0.00  0.00    +0.006 C 
ATOM     13  C   UNL     1     -37.400  21.145  -0.462  0.00  0.00    +0.006 C 
ATOM     14  C   UNL     1     -32.543  20.079   0.426  0.00  0.00    +0.006 C 
ATOM     15  C   UNL     1     -37.809  18.393  -0.449  0.00  0.00    +0.206 C 
ATOM     16  C   UNL     1     -33.316  17.406   0.372  0.00  0.00    +0.206 C 
ATOM     17  C   UNL     1     -34.629  23.984   2.161  0.00  0.00    +0.006 C 
ATOM     18  C   UNL     1     -35.295  22.312   3.795  0.00  0.00    +0.075 C 
ATOM     19  C   UNL     1     -38.653  20.624  -0.788  0.00  0.00    +0.040 C 
ATOM     20  C   UNL     1     -31.580  19.071   0.505  0.00  0.00    +0.040 C 
ATOM     21  C   UNL     1     -34.945  23.633   3.473  0.00  0.00    +0.007 C 
ATOM     22  C   UNL     1     -38.858  19.247  -0.779  0.00  0.00    +0.171 C 
ATOM     23  C   UNL     1     -31.967  17.734   0.480  0.00  0.00    +0.171 C 
ENDROOT
BRANCH  15  24
ATOM     24  O   UNL     1     -38.014  17.044  -0.445  0.00  0.00    -0.465 OA
ATOM     25  C   UNL     1     -37.786  16.352  -1.669  0.00  0.00    +0.253 C 
ENDBRANCH  15  24
BRANCH  16  26
ATOM     26  O   UNL     1     -33.692  16.095   0.345  0.00  0.00    -0.465 OA
ATOM     27  C   UNL     1     -33.746  15.464  -0.932  0.00  0.00    +0.253 C 
ENDBRANCH  16  26
BRANCH  22  28
ATOM     28  O   UNL     1     -40.086  18.751  -1.097  0.00  0.00    -0.503 OA
ATOM     29  H   UNL     1     -40.858  19.235  -0.877  0.00  0.00    +0.292 HD
ENDBRANCH  22  28
BRANCH  23  30
ATOM     30  O   UNL     1     -31.020  16.760   0.562  0.00  0.00    -0.503 OA
ATOM     31  H   UNL     1     -30.291  16.764  -0.027  0.00  0.00    +0.292 HD
ENDBRANCH  23  30
BRANCH  18  33
ATOM     32  O   UNL     1     -36.137  22.712   6.004  0.00  0.00    -0.245 OA
ATOM     33  C   UNL     1     -35.622  21.969   5.171  0.00  0.00    +0.338 C 
BRANCH  33  34
ATOM     34  O   UNL     1     -35.291  20.681   5.468  0.00  0.00    -0.477 OA
ATOM     35  H   UNL     1     -34.448  20.347   5.228  0.00  0.00    +0.295 HD
ENDBRANCH  33  34
ENDBRANCH  18  33
TORSDOF 6
ENDMDL
MODEL 2
REMARK VINA RESULT:      -6.9      1.038      1.125
REMARK  Name = 195876
REMARK  6 active torsions:
REMARK  status: ('A' for Active; 'I' for Inactive)
REMARK    1  A    between atoms: C_15  and  O_24
REMARK    2  A    between atoms: C_16  and  O_26
REMARK    3  A    between atoms: C_18  and  C_33
REMARK    4  A    between atoms: C_22  and  O_28
REMARK    5  A    between atoms: C_23  and  O_30
REMARK    6  A    between atoms: C_33  and  O_34
REMARK                            x       y       z     vdW  Elec       q    Type
REMARK                         _______ _______ _______ _____ _____    ______ ____
ROOT
ATOM      1  O   UNL     1     -34.933  22.830  -0.196  0.00  0.00    -0.440 OA
ATOM      2  O   UNL     1     -36.137  18.943   0.046  0.00  0.00    -0.448 OA
ATOM      3  O   UNL     1     -34.273  25.028   0.107  0.00  0.00    -0.245 OA
ATOM      4  C   UNL     1     -35.326  21.688   0.630  0.00  0.00    +0.198 C 
ATOM      5  C   UNL     1     -35.220  22.263   2.006  0.00  0.00    +0.028 C 
ATOM      6  C   UNL     1     -36.743  21.301   0.258  0.00  0.00    +0.059 C 
ATOM      7  C   UNL     1     -34.339  20.564   0.382  0.00  0.00    +0.059 C 
ATOM      8  C   UNL     1     -34.811  23.582   1.932  0.00  0.00    +0.076 C 
ATOM      9  C   UNL     1     -37.059  19.961   0.010  0.00  0.00    +0.182 C 
ATOM     10  C   UNL     1     -34.805  19.270   0.125  0.00  0.00    +0.182 C 
ATOM     11  C   UNL     1     -34.627  23.948   0.537  0.00  0.00    +0.342 C 
ATOM     12  C   UNL     1     -35.462  21.676   3.238  0.00  0.00    +0.006 C 
ATOM     13  C   UNL     1     -37.775  22.254   0.184  0.00  0.00    +0.006 C 
ATOM     14  C   UNL     1     -32.950  20.776   0.431  0.00  0.00    +0.006 C 
ATOM     15  C   UNL     1     -38.370  19.579  -0.294  0.00  0.00    +0.206 C 
ATOM     16  C   UNL     1     -33.908  18.212  -0.067  0.00  0.00    +0.206 C 
ATOM     17  C   UNL     1     -34.627  24.371   3.053  0.00  0.00    +0.006 C 
ATOM     18  C   UNL     1     -35.284  22.449   4.389  0.00  0.00    +0.075 C 
ATOM     19  C   UNL     1     -39.081  21.875  -0.127  0.00  0.00    +0.040 C 
ATOM     20  C   UNL     1     -32.056  19.722   0.233  0.00  0.00    +0.040 C 
ATOM     21  C   UNL     1     -34.869  23.787   4.296  0.00  0.00    +0.007 C 
ATOM     22  C   UNL     1     -39.379  20.536  -0.363  0.00  0.00    +0.171 C 
ATOM     23  C   UNL     1     -32.536  18.439  -0.014  0.00  0.00    +0.171 C 
ENDROOT
BRANCH  15  24
ATOM     24  O   UNL     1     -38.667  18.268  -0.530  0.00  0.00    -0.465 OA
ATOM     25  C   UNL     1     -38.595  17.822  -1.882  0.00  0.00    +0.253 C 
ENDBRANCH  15  24
BRANCH  16  26
ATOM     26  O   UNL     1     -34.374  16.953  -0.311  0.00  0.00    -0.465 OA
ATOM     27  C   UNL     1     -34.579  16.593  -1.674  0.00  0.00    +0.253 C 
ENDBRANCH  16  26
BRANCH  22  28
ATOM     28  O   UNL     1     -40.659  20.178  -0.663  0.00  0.00    -0.503 OA
ATOM     29  H   UNL     1     -41.131  19.604  -0.092  0.00  0.00    +0.292 HD
ENDBRANCH  22  28
BRANCH  23  30
ATOM     30  O   UNL     1     -31.654  17.418  -0.202  0.00  0.00    -0.503 OA
ATOM     31  H   UNL     1     -30.871  17.561  -0.696  0.00  0.00    +0.292 HD
ENDBRANCH  23  30
BRANCH  18  33
ATOM     32  O   UNL     1     -36.006  22.435   6.674  0.00  0.00    -0.245 OA
ATOM     33  C   UNL     1     -35.532  21.861   5.696  0.00  0.00    +0.338 C 
BRANCH  33  34
ATOM     34  O   UNL     1     -35.174  20.547   5.740  0.00  0.00    -0.477 OA
ATOM     35  H   UNL     1     -34.707  20.214   6.482  0.00  0.00    +0.295 HD
ENDBRANCH  33  34
ENDBRANCH  18  33
TORSDOF 6
ENDMDL
MODEL 3
REMARK VINA RESULT:      -6.5      3.855      7.900
REMARK  Name = 195876
REMARK  6 active torsions:
REMARK  status: ('A' for Active; 'I' for Inactive)
REMARK    1  A    between atoms: C_15  and  O_24
REMARK    2  A    between atoms: C_16  and  O_26
REMARK    3  A    between atoms: C_18  and  C_33
REMARK    4  A    between atoms: C_22  and  O_28
REMARK    5  A    between atoms: C_23  and  O_30
REMARK    6  A    between atoms: C_33  and  O_34
REMARK                            x       y       z     vdW  Elec       q    Type
REMARK                         _______ _______ _______ _____ _____    ______ ____
ROOT
ATOM      1  O   UNL     1     -36.394  24.204   4.862  0.00  0.00    -0.440 OA
ATOM      2  O   UNL     1     -36.711  27.036   1.947  0.00  0.00    -0.448 OA
ATOM      3  O   UNL     1     -36.072  22.335   6.189  0.00  0.00    -0.245 OA
ATOM      4  C   UNL     1     -36.247  24.577   3.454  0.00  0.00    +0.198 C 
ATOM      5  C   UNL     1     -35.751  23.301   2.856  0.00  0.00    +0.028 C 
ATOM      6  C   UNL     1     -37.608  24.987   2.929  0.00  0.00    +0.059 C 
ATOM      7  C   UNL     1     -35.235  25.703   3.368  0.00  0.00    +0.059 C 
ATOM      8  C   UNL     1     -35.640  22.334   3.839  0.00  0.00    +0.076 C 
ATOM      9  C   UNL     1     -37.749  26.171   2.199  0.00  0.00    +0.182 C 
ATOM     10  C   UNL     1     -35.524  26.845   2.610  0.00  0.00    +0.182 C 
ATOM     11  C   UNL     1     -36.046  22.902   5.115  0.00  0.00    +0.342 C 
ATOM     12  C   UNL     1     -35.417  23.002   1.544  0.00  0.00    +0.006 C 
ATOM     13  C   UNL     1     -38.748  24.187   3.127  0.00  0.00    +0.006 C 
ATOM     14  C   UNL     1     -33.986  25.625   4.008  0.00  0.00    +0.006 C 
ATOM     15  C   UNL     1     -38.990  26.545   1.671  0.00  0.00    +0.206 C 
ATOM     16  C   UNL     1     -34.586  27.876   2.486  0.00  0.00    +0.206 C 
ATOM     17  C   UNL     1     -35.203  21.049   3.577  0.00  0.00    +0.006 C 
ATOM     18  C   UNL     1     -34.973  21.710   1.249  0.00  0.00    +0.075 C 
ATOM     19  C   UNL     1     -39.988  24.562   2.608  0.00  0.00    +0.040 C 
ATOM     20  C   UNL     1     -33.054  26.658   3.890  0.00  0.00    +0.040 C 
ATOM     21  C   UNL     1     -34.866  20.740   2.259  0.00  0.00    +0.007 C 
ATOM     22  C   UNL     1     -40.108  25.740   1.877  0.00  0.00    +0.171 C 
ATOM     23  C   UNL     1     -33.353  27.783   3.127  0.00  0.00    +0.171 C 
ENDROOT
BRANCH  15  24
ATOM     24  O   UNL     1     -39.113  27.701   0.957  0.00  0.00    -0.465 OA
ATOM     25  C   UNL     1     -38.961  27.605  -0.457  0.00  0.00    +0.253 C 
ENDBRANCH  15  24
BRANCH  16  26
ATOM     26  O   UNL     1     -34.876  28.981   1.740  0.00  0.00    -0.465 OA
ATOM     27  C   UNL     1     -35.433  30.097   2.430  0.00  0.00    +0.253 C 
ENDBRANCH  16  26
BRANCH  22  28
ATOM     28  O   UNL     1     -41.322  26.095   1.373  0.00  0.00    -0.503 OA
ATOM     29  H   UNL     1     -42.059  25.526   1.481  0.00  0.00    +0.292 HD
ENDBRANCH  22  28
BRANCH  23  30
ATOM     30  O   UNL     1     -32.434  28.781   3.015  0.00  0.00    -0.503 OA
ATOM     31  H   UNL     1     -32.228  29.135   2.172  0.00  0.00    +0.292 HD
ENDBRANCH  23  30
BRANCH  18  33
ATOM     32  O   UNL     1     -35.376  21.342  -1.085  0.00  0.00    -0.245 OA
ATOM     33  C   UNL     1     -34.616  21.366  -0.119  0.00  0.00    +0.338 C 
BRANCH  33  34
ATOM     34  O   UNL     1     -33.295  21.057  -0.239  0.00  0.00    -0.477 OA
ATOM     35  H   UNL     1     -33.031  20.318  -0.751  0.00  0.00    +0.295 HD
ENDBRANCH  33  34
ENDBRANCH  18  33
TORSDOF 6
ENDMDL
MODEL 4
REMARK VINA RESULT:      -6.3      4.837      8.451
REMARK  Name = 195876
REMARK  6 active torsions:
REMARK  status: ('A' for Active; 'I' for Inactive)
REMARK    1  A    between atoms: C_15  and  O_24
REMARK    2  A    between atoms: C_16  and  O_26
REMARK    3  A    between atoms: C_18  and  C_33
REMARK    4  A    between atoms: C_22  and  O_28
REMARK    5  A    between atoms: C_23  and  O_30
REMARK    6  A    between atoms: C_33  and  O_34
REMARK                            x       y       z     vdW  Elec       q    Type
REMARK                         _______ _______ _______ _____ _____    ______ ____
ROOT
ATOM      1  O   UNL     1     -34.232  27.723   4.338  0.00  0.00    -0.440 OA
ATOM      2  O   UNL     1     -36.868  25.319   2.366  0.00  0.00    -0.448 OA
ATOM      3  O   UNL     1     -32.449  28.956   5.149  0.00  0.00    -0.245 OA
ATOM      4  C   UNL     1     -34.504  26.796   3.239  0.00  0.00    +0.198 C 
ATOM      5  C   UNL     1     -33.174  26.738   2.560  0.00  0.00    +0.028 C 
ATOM      6  C   UNL     1     -34.922  25.466   3.835  0.00  0.00    +0.059 C 
ATOM      7  C   UNL     1     -35.587  27.400   2.368  0.00  0.00    +0.059 C 
ATOM      8  C   UNL     1     -32.273  27.552   3.223  0.00  0.00    +0.076 C 
ATOM      9  C   UNL     1     -36.058  24.809   3.352  0.00  0.00    +0.182 C 
ATOM     10  C   UNL     1     -36.683  26.623   1.976  0.00  0.00    +0.182 C 
ATOM     11  C   UNL     1     -32.940  28.181   4.353  0.00  0.00    +0.342 C 
ATOM     12  C   UNL     1     -32.776  26.026   1.440  0.00  0.00    +0.006 C 
ATOM     13  C   UNL     1     -34.175  24.845   4.853  0.00  0.00    +0.006 C 
ATOM     14  C   UNL     1     -35.511  28.727   1.909  0.00  0.00    +0.006 C 
ATOM     15  C   UNL     1     -36.436  23.562   3.861  0.00  0.00    +0.206 C 
ATOM     16  C   UNL     1     -37.672  27.152   1.138  0.00  0.00    +0.206 C 
ATOM     17  C   UNL     1     -30.959  27.698   2.818  0.00  0.00    +0.006 C 
ATOM     18  C   UNL     1     -31.453  26.153   1.007  0.00  0.00    +0.075 C 
ATOM     19  C   UNL     1     -34.556  23.605   5.367  0.00  0.00    +0.040 C 
ATOM     20  C   UNL     1     -36.502  29.256   1.079  0.00  0.00    +0.040 C 
ATOM     21  C   UNL     1     -30.551  26.984   1.692  0.00  0.00    +0.007 C 
ATOM     22  C   UNL     1     -35.685  22.962   4.868  0.00  0.00    +0.171 C 
ATOM     23  C   UNL     1     -37.582  28.468   0.692  0.00  0.00    +0.171 C 
ENDROOT
BRANCH  15  24
ATOM     24  O   UNL     1     -37.543  22.929   3.378  0.00  0.00    -0.465 OA
ATOM     25  C   UNL     1     -37.354  22.047   2.275  0.00  0.00    +0.253 C 
ENDBRANCH  15  24
BRANCH  16  26
ATOM     26  O   UNL     1     -38.733  26.383   0.758  0.00  0.00    -0.465 OA
ATOM     27  C   UNL     1     -39.857  26.353   1.635  0.00  0.00    +0.253 C 
ENDBRANCH  16  26
BRANCH  22  28
ATOM     28  O   UNL     1     -36.044  21.750   5.377  0.00  0.00    -0.503 OA
ATOM     29  H   UNL     1     -36.951  21.530   5.465  0.00  0.00    +0.292 HD
ENDBRANCH  22  28
BRANCH  23  30
ATOM     30  O   UNL     1     -38.539  28.994  -0.120  0.00  0.00    -0.503 OA
ATOM     31  H   UNL     1     -39.126  29.646   0.208  0.00  0.00    +0.292 HD
ENDBRANCH  23  30
BRANCH  18  33
ATOM     32  O   UNL     1     -31.246  24.240  -0.422  0.00  0.00    -0.245 OA
ATOM     33  C   UNL     1     -31.005  25.417  -0.165  0.00  0.00    +0.338 C 
BRANCH  33  34
ATOM     34  O   UNL     1     -30.254  26.192  -0.998  0.00  0.00    -0.477 OA
ATOM     35  H   UNL     1     -30.082  27.087  -0.777  0.00  0.00    +0.295 HD
ENDBRANCH  33  34
ENDBRANCH  18  33
TORSDOF 6
ENDMDL
MODEL 5
REMARK VINA RESULT:      -6.3      2.887      6.448
REMARK  Name = 195876
REMARK  6 active torsions:
REMARK  status: ('A' for Active; 'I' for Inactive)
REMARK    1  A    between atoms: C_15  and  O_24
REMARK    2  A    between atoms: C_16  and  O_26
REMARK    3  A    between atoms: C_18  and  C_33
REMARK    4  A    between atoms: C_22  and  O_28
REMARK    5  A    between atoms: C_23  and  O_30
REMARK    6  A    between atoms: C_33  and  O_34
REMARK                            x       y       z     vdW  Elec       q    Type
REMARK                         _______ _______ _______ _____ _____    ______ ____
ROOT
ATOM      1  O   UNL     1     -36.646  22.500   4.390  0.00  0.00    -0.440 OA
ATOM      2  O   UNL     1     -38.043  22.067   0.585  0.00  0.00    -0.448 OA
ATOM      3  O   UNL     1     -35.590  23.054   6.373  0.00  0.00    -0.245 OA
ATOM      4  C   UNL     1     -36.598  22.900   2.983  0.00  0.00    +0.198 C 
ATOM      5  C   UNL     1     -35.535  23.951   3.006  0.00  0.00    +0.028 C 
ATOM      6  C   UNL     1     -36.214  21.688   2.159  0.00  0.00    +0.059 C 
ATOM      7  C   UNL     1     -37.960  23.446   2.601  0.00  0.00    +0.059 C 
ATOM      8  C   UNL     1     -35.056  24.104   4.295  0.00  0.00    +0.076 C 
ATOM      9  C   UNL     1     -36.944  21.362   1.012  0.00  0.00    +0.182 C 
ATOM     10  C   UNL     1     -38.583  23.010   1.426  0.00  0.00    +0.182 C 
ATOM     11  C   UNL     1     -35.757  23.186   5.178  0.00  0.00    +0.342 C 
ATOM     12  C   UNL     1     -35.021  24.721   1.975  0.00  0.00    +0.006 C 
ATOM     13  C   UNL     1     -35.110  20.884   2.497  0.00  0.00    +0.006 C 
ATOM     14  C   UNL     1     -38.615  24.412   3.385  0.00  0.00    +0.006 C 
ATOM     15  C   UNL     1     -36.579  20.271   0.216  0.00  0.00    +0.206 C 
ATOM     16  C   UNL     1     -39.821  23.533   1.036  0.00  0.00    +0.206 C 
ATOM     17  C   UNL     1     -34.062  25.009   4.619  0.00  0.00    +0.006 C 
ATOM     18  C   UNL     1     -34.016  25.645   2.274  0.00  0.00    +0.075 C 
ATOM     19  C   UNL     1     -34.750  19.791   1.708  0.00  0.00    +0.040 C 
ATOM     20  C   UNL     1     -39.854  24.928   3.000  0.00  0.00    +0.040 C 
ATOM     21  C   UNL     1     -33.540  25.788   3.587  0.00  0.00    +0.007 C 
ATOM     22  C   UNL     1     -35.483  19.486   0.565  0.00  0.00    +0.171 C 
ATOM     23  C   UNL     1     -40.457  24.489   1.824  0.00  0.00    +0.171 C 
ENDROOT
BRANCH  15  24
ATOM     24  O   UNL     1     -37.296  19.966  -0.904  0.00  0.00    -0.465 OA
ATOM     25  C   UNL     1     -38.375  19.047  -0.750  0.00  0.00    +0.253 C 
ENDBRANCH  15  24
BRANCH  16  26
ATOM     26  O   UNL     1     -40.416  23.105  -0.114  0.00  0.00    -0.465 OA
ATOM     27  C   UNL     1     -40.161  23.862  -1.294  0.00  0.00    +0.253 C 
ENDBRANCH  16  26
BRANCH  22  28
ATOM     28  O   UNL     1     -35.120  18.418  -0.198  0.00  0.00    -0.503 OA
ATOM     29  H   UNL     1     -34.417  18.498  -0.813  0.00  0.00    +0.292 HD
ENDBRANCH  22  28
BRANCH  23  30
ATOM     30  O   UNL     1     -41.663  25.003   1.457  0.00  0.00    -0.503 OA
ATOM     31  H   UNL     1     -42.438  24.483   1.539  0.00  0.00    +0.292 HD
ENDBRANCH  23  30
BRANCH  18  33
ATOM     32  O   UNL     1     -33.009  26.068   0.140  0.00  0.00    -0.245 OA
ATOM     33  C   UNL     1     -33.456  26.468   1.212  0.00  0.00    +0.338 C 
BRANCH  33  34
ATOM     34  O   UNL     1     -33.474  27.793   1.530  0.00  0.00    -0.477 OA
ATOM     35  H   UNL     1     -33.271  28.068   2.403  0.00  0.00    +0.295 HD
ENDBRANCH  33  34
ENDBRANCH  18  33
TORSDOF 6
ENDMDL
MODEL 6
REMARK VINA RESULT:      -6.3      3.842      7.891
REMARK  Name = 195876
REMARK  6 active torsions:
REMARK  status: ('A' for Active; 'I' for Inactive)
REMARK    1  A    between atoms: C_15  and  O_24
REMARK    2  A    between atoms: C_16  and  O_26
REMARK    3  A    between atoms: C_18  and  C_33
REMARK    4  A    between atoms: C_22  and  O_28
REMARK    5  A    between atoms: C_23  and  O_30
REMARK    6  A    between atoms: C_33  and  O_34
REMARK                            x       y       z     vdW  Elec       q    Type
REMARK                         _______ _______ _______ _____ _____    ______ ____
ROOT
ATOM      1  O   UNL     1     -38.307  26.401   2.483  0.00  0.00    -0.440 OA
ATOM      2  O   UNL     1     -34.299  26.406   1.740  0.00  0.00    -0.448 OA
ATOM      3  O   UNL     1     -40.550  25.961   2.845  0.00  0.00    -0.245 OA
ATOM      4  C   UNL     1     -37.089  25.654   2.163  0.00  0.00    +0.198 C 
ATOM      5  C   UNL     1     -37.608  24.255   2.084  0.00  0.00    +0.028 C 
ATOM      6  C   UNL     1     -36.556  26.163   0.839  0.00  0.00    +0.059 C 
ATOM      7  C   UNL     1     -36.101  25.855   3.296  0.00  0.00    +0.059 C 
ATOM      8  C   UNL     1     -38.969  24.244   2.335  0.00  0.00    +0.076 C 
ATOM      9  C   UNL     1     -35.202  26.487   0.708  0.00  0.00    +0.182 C 
ATOM     10  C   UNL     1     -34.774  26.199   3.012  0.00  0.00    +0.182 C 
ATOM     11  C   UNL     1     -39.418  25.604   2.589  0.00  0.00    +0.342 C 
ATOM     12  C   UNL     1     -36.941  23.071   1.812  0.00  0.00    +0.006 C 
ATOM     13  C   UNL     1     -37.385  26.294  -0.291  0.00  0.00    +0.006 C 
ATOM     14  C   UNL     1     -36.472  25.676   4.640  0.00  0.00    +0.006 C 
ATOM     15  C   UNL     1     -34.683  26.919  -0.517  0.00  0.00    +0.206 C 
ATOM     16  C   UNL     1     -33.839  26.348   4.042  0.00  0.00    +0.206 C 
ATOM     17  C   UNL     1     -39.720  23.084   2.329  0.00  0.00    +0.006 C 
ATOM     18  C   UNL     1     -37.675  21.882   1.799  0.00  0.00    +0.075 C 
ATOM     19  C   UNL     1     -36.870  26.732  -1.511  0.00  0.00    +0.040 C 
ATOM     20  C   UNL     1     -35.540  25.833   5.668  0.00  0.00    +0.040 C 
ATOM     21  C   UNL     1     -39.056  21.889   2.057  0.00  0.00    +0.007 C 
ATOM     22  C   UNL     1     -35.518  27.042  -1.625  0.00  0.00    +0.171 C 
ATOM     23  C   UNL     1     -34.223  26.167   5.368  0.00  0.00    +0.171 C 
ENDROOT
BRANCH  15  24
ATOM     24  O   UNL     1     -33.359  27.227  -0.633  0.00  0.00    -0.465 OA
ATOM     25  C   UNL     1     -32.487  26.181  -1.053  0.00  0.00    +0.253 C 
ENDBRANCH  15  24
BRANCH  16  26
ATOM     26  O   UNL     1     -32.547  26.678   3.754  0.00  0.00    -0.465 OA
ATOM     27  C   UNL     1     -32.215  28.064   3.766  0.00  0.00    +0.253 C 
ENDBRANCH  16  26
BRANCH  22  28
ATOM     28  O   UNL     1     -35.027  27.466  -2.823  0.00  0.00    -0.503 OA
ATOM     29  H   UNL     1     -35.582  27.480  -3.578  0.00  0.00    +0.292 HD
ENDBRANCH  22  28
BRANCH  23  30
ATOM     30  O   UNL     1     -33.322  26.313   6.379  0.00  0.00    -0.503 OA
ATOM     31  H   UNL     1     -33.583  26.157   7.265  0.00  0.00    +0.292 HD
ENDBRANCH  23  30
BRANCH  18  33
ATOM     32  O   UNL     1     -36.660  20.213   0.410  0.00  0.00    -0.245 OA
ATOM     33  C   UNL     1     -37.002  20.623   1.517  0.00  0.00    +0.338 C 
BRANCH  33  34
ATOM     34  O   UNL     1     -36.773  19.902   2.650  0.00  0.00    -0.477 OA
ATOM     35  H   UNL     1     -37.254  20.092   3.432  0.00  0.00    +0.295 HD
ENDBRANCH  33  34
ENDBRANCH  18  33
TORSDOF 6
ENDMDL
MODEL 7
REMARK VINA RESULT:      -6.1      3.963      5.476
REMARK  Name = 195876
REMARK  6 active torsions:
REMARK  status: ('A' for Active; 'I' for Inactive)
REMARK    1  A    between atoms: C_15  and  O_24
REMARK    2  A    between atoms: C_16  and  O_26
REMARK    3  A    between atoms: C_18  and  C_33
REMARK    4  A    between atoms: C_22  and  O_28
REMARK    5  A    between atoms: C_23  and  O_30
REMARK    6  A    between atoms: C_33  and  O_34
REMARK                            x       y       z     vdW  Elec       q    Type
REMARK                         _______ _______ _______ _____ _____    ______ ____
ROOT
ATOM      1  O   UNL     1     -35.815  26.698   2.119  0.00  0.00    -0.440 OA
ATOM      2  O   UNL     1     -37.622  23.810  -0.120  0.00  0.00    -0.448 OA
ATOM      3  O   UNL     1     -34.729  28.013   3.684  0.00  0.00    -0.245 OA
ATOM      4  C   UNL     1     -36.240  25.305   1.974  0.00  0.00    +0.198 C 
ATOM      5  C   UNL     1     -35.774  24.715   3.266  0.00  0.00    +0.028 C 
ATOM      6  C   UNL     1     -37.747  25.284   1.824  0.00  0.00    +0.059 C 
ATOM      7  C   UNL     1     -35.534  24.719   0.767  0.00  0.00    +0.059 C 
ATOM      8  C   UNL     1     -35.159  25.689   4.032  0.00  0.00    +0.076 C 
ATOM      9  C   UNL     1     -38.338  24.529   0.805  0.00  0.00    +0.182 C 
ATOM     10  C   UNL     1     -36.262  23.999  -0.187  0.00  0.00    +0.182 C 
ATOM     11  C   UNL     1     -35.182  26.950   3.308  0.00  0.00    +0.342 C 
ATOM     12  C   UNL     1     -35.878  23.417   3.741  0.00  0.00    +0.006 C 
ATOM     13  C   UNL     1     -38.589  25.983   2.708  0.00  0.00    +0.006 C 
ATOM     14  C   UNL     1     -34.146  24.850   0.588  0.00  0.00    +0.006 C 
ATOM     15  C   UNL     1     -39.730  24.464   0.676  0.00  0.00    +0.206 C 
ATOM     16  C   UNL     1     -35.621  23.416  -1.286  0.00  0.00    +0.206 C 
ATOM     17  C   UNL     1     -34.628  25.431   5.282  0.00  0.00    +0.006 C 
ATOM     18  C   UNL     1     -35.349  23.126   5.002  0.00  0.00    +0.075 C 
ATOM     19  C   UNL     1     -39.977  25.925   2.576  0.00  0.00    +0.040 C 
ATOM     20  C   UNL     1     -33.508  24.275  -0.513  0.00  0.00    +0.040 C 
ATOM     21  C   UNL     1     -34.728  24.127   5.767  0.00  0.00    +0.007 C 
ATOM     22  C   UNL     1     -40.547  25.163   1.561  0.00  0.00    +0.171 C 
ATOM     23  C   UNL     1     -34.246  23.556  -1.449  0.00  0.00    +0.171 C 
ENDROOT
BRANCH  15  24
ATOM     24  O   UNL     1     -40.294  23.720  -0.319  0.00  0.00    -0.465 OA
ATOM     25  C   UNL     1     -40.610  22.365  -0.012  0.00  0.00    +0.253 C 
ENDBRANCH  15  24
BRANCH  16  26
ATOM     26  O   UNL     1     -36.341  22.712  -2.206  0.00  0.00    -0.465 OA
ATOM     27  C   UNL     1     -36.467  21.309  -1.993  0.00  0.00    +0.253 C 
ENDBRANCH  16  26
BRANCH  22  28
ATOM     28  O   UNL     1     -41.903  25.112   1.443  0.00  0.00    -0.503 OA
ATOM     29  H   UNL     1     -42.329  25.551   0.732  0.00  0.00    +0.292 HD
ENDBRANCH  22  28
BRANCH  23  30
ATOM     30  O   UNL     1     -33.612  22.995  -2.515  0.00  0.00    -0.503 OA
ATOM     31  H   UNL     1     -33.501  22.066  -2.559  0.00  0.00    +0.292 HD
ENDBRANCH  23  30
BRANCH  18  33
ATOM     32  O   UNL     1     -34.904  20.772   5.064  0.00  0.00    -0.245 OA
ATOM     33  C   UNL     1     -35.444  21.773   5.529  0.00  0.00    +0.338 C 
BRANCH  33  34
ATOM     34  O   UNL     1     -36.226  21.713   6.643  0.00  0.00    -0.477 OA
ATOM     35  H   UNL     1     -36.582  22.500   7.009  0.00  0.00    +0.295 HD
ENDBRANCH  33  34
ENDBRANCH  18  33
TORSDOF 6
ENDMDL
MODEL 8
REMARK VINA RESULT:      -6.1      2.527      3.382
REMARK  Name = 195876
REMARK  6 active torsions:
REMARK  status: ('A' for Active; 'I' for Inactive)
REMARK    1  A    between atoms: C_15  and  O_24
REMARK    2  A    between atoms: C_16  and  O_26
REMARK    3  A    between atoms: C_18  and  C_33
REMARK    4  A    between atoms: C_22  and  O_28
REMARK    5  A    between atoms: C_23  and  O_30
REMARK    6  A    between atoms: C_33  and  O_34
REMARK                            x       y       z     vdW  Elec       q    Type
REMARK                         _______ _______ _______ _____ _____    ______ ____
ROOT
ATOM      1  O   UNL     1     -36.577  24.911   0.865  0.00  0.00    -0.440 OA
ATOM      2  O   UNL     1     -35.785  21.125  -0.420  0.00  0.00    -0.448 OA
ATOM      3  O   UNL     1     -36.939  26.898   1.997  0.00  0.00    -0.245 OA
ATOM      4  C   UNL     1     -36.200  23.533   1.180  0.00  0.00    +0.198 C 
ATOM      5  C   UNL     1     -36.047  23.596   2.666  0.00  0.00    +0.028 C 
ATOM      6  C   UNL     1     -37.328  22.622   0.740  0.00  0.00    +0.059 C 
ATOM      7  C   UNL     1     -34.900  23.224   0.465  0.00  0.00    +0.059 C 
ATOM      8  C   UNL     1     -36.314  24.879   3.110  0.00  0.00    +0.076 C 
ATOM      9  C   UNL     1     -37.049  21.475  -0.011  0.00  0.00    +0.182 C 
ATOM     10  C   UNL     1     -34.771  22.040  -0.270  0.00  0.00    +0.182 C 
ATOM     11  C   UNL     1     -36.651  25.718   1.972  0.00  0.00    +0.342 C 
ATOM     12  C   UNL     1     -35.698  22.604   3.569  0.00  0.00    +0.006 C 
ATOM     13  C   UNL     1     -38.666  22.877   1.094  0.00  0.00    +0.006 C 
ATOM     14  C   UNL     1     -33.792  24.086   0.541  0.00  0.00    +0.006 C 
ATOM     15  C   UNL     1     -38.072  20.600  -0.391  0.00  0.00    +0.206 C 
ATOM     16  C   UNL     1     -33.565  21.718  -0.903  0.00  0.00    +0.206 C 
ATOM     17  C   UNL     1     -36.251  25.235   4.445  0.00  0.00    +0.006 C 
ATOM     18  C   UNL     1     -35.627  22.935   4.925  0.00  0.00    +0.075 C 
ATOM     19  C   UNL     1     -39.688  22.009   0.708  0.00  0.00    +0.040 C 
ATOM     20  C   UNL     1     -32.591  23.769  -0.097  0.00  0.00    +0.040 C 
ATOM     21  C   UNL     1     -35.901  24.242   5.360  0.00  0.00    +0.007 C 
ATOM     22  C   UNL     1     -39.390  20.868  -0.032  0.00  0.00    +0.171 C 
ATOM     23  C   UNL     1     -32.477  22.584  -0.818  0.00  0.00    +0.171 C 
ENDROOT
BRANCH  15  24
ATOM     24  O   UNL     1     -37.786  19.483  -1.119  0.00  0.00    -0.465 OA
ATOM     25  C   UNL     1     -37.536  18.283  -0.391  0.00  0.00    +0.253 C 
ENDBRANCH  15  24
BRANCH  16  26
ATOM     26  O   UNL     1     -33.449  20.559  -1.612  0.00  0.00    -0.465 OA
ATOM     27  C   UNL     1     -33.746  20.620  -3.004  0.00  0.00    +0.253 C 
ENDBRANCH  16  26
BRANCH  22  28
ATOM     28  O   UNL     1     -40.397  20.028  -0.400  0.00  0.00    -0.503 OA
ATOM     29  H   UNL     1     -40.500  19.787  -1.300  0.00  0.00    +0.292 HD
ENDBRANCH  22  28
BRANCH  23  30
ATOM     30  O   UNL     1     -31.300  22.283  -1.432  0.00  0.00    -0.503 OA
ATOM     31  H   UNL     1     -30.832  21.507  -1.193  0.00  0.00    +0.292 HD
ENDBRANCH  23  30
BRANCH  18  33
ATOM     32  O   UNL     1     -35.080  22.088   7.100  0.00  0.00    -0.245 OA
ATOM     33  C   UNL     1     -35.264  21.915   5.897  0.00  0.00    +0.338 C 
BRANCH  33  34
ATOM     34  O   UNL     1     -35.141  20.685   5.323  0.00  0.00    -0.477 OA
ATOM     35  H   UNL     1     -34.419  20.505   4.753  0.00  0.00    +0.295 HD
ENDBRANCH  33  34
ENDBRANCH  18  33
TORSDOF 6
ENDMDL
MODEL 9
REMARK VINA RESULT:      -6.1      2.315      6.186
REMARK  Name = 195876
REMARK  6 active torsions:
REMARK  status: ('A' for Active; 'I' for Inactive)
REMARK    1  A    between atoms: C_15  and  O_24
REMARK    2  A    between atoms: C_16  and  O_26
REMARK    3  A    between atoms: C_18  and  C_33
REMARK    4  A    between atoms: C_22  and  O_28
REMARK    5  A    between atoms: C_23  and  O_30
REMARK    6  A    between atoms: C_33  and  O_34
REMARK                            x       y       z     vdW  Elec       q    Type
REMARK                         _______ _______ _______ _____ _____    ______ ____
ROOT
ATOM      1  O   UNL     1     -35.363  20.126   2.106  0.00  0.00    -0.440 OA
ATOM      2  O   UNL     1     -38.441  22.782   1.813  0.00  0.00    -0.448 OA
ATOM      3  O   UNL     1     -33.434  18.856   1.948  0.00  0.00    -0.245 OA
ATOM      4  C   UNL     1     -35.947  21.303   1.462  0.00  0.00    +0.198 C 
ATOM      5  C   UNL     1     -34.891  21.652   0.463  0.00  0.00    +0.028 C 
ATOM      6  C   UNL     1     -37.256  20.891   0.820  0.00  0.00    +0.059 C 
ATOM      7  C   UNL     1     -36.138  22.373   2.519  0.00  0.00    +0.059 C 
ATOM      8  C   UNL     1     -33.843  20.755   0.557  0.00  0.00    +0.076 C 
ATOM      9  C   UNL     1     -38.407  21.661   1.020  0.00  0.00    +0.182 C 
ATOM     10  C   UNL     1     -37.358  23.051   2.615  0.00  0.00    +0.182 C 
ATOM     11  C   UNL     1     -34.136  19.784   1.598  0.00  0.00    +0.342 C 
ATOM     12  C   UNL     1     -34.848  22.682  -0.463  0.00  0.00    +0.006 C 
ATOM     13  C   UNL     1     -37.348  19.759  -0.010  0.00  0.00    +0.006 C 
ATOM     14  C   UNL     1     -35.103  22.734   3.401  0.00  0.00    +0.006 C 
ATOM     15  C   UNL     1     -39.614  21.319   0.403  0.00  0.00    +0.206 C 
ATOM     16  C   UNL     1     -37.539  24.070   3.557  0.00  0.00    +0.206 C 
ATOM     17  C   UNL     1     -32.721  20.832  -0.248  0.00  0.00    +0.006 C 
ATOM     18  C   UNL     1     -33.725  22.784  -1.291  0.00  0.00    +0.075 C 
ATOM     19  C   UNL     1     -38.554  19.413  -0.621  0.00  0.00    +0.040 C 
ATOM     20  C   UNL     1     -35.287  23.745   4.346  0.00  0.00    +0.040 C 
ATOM     21  C   UNL     1     -32.669  21.865  -1.183  0.00  0.00    +0.007 C 
ATOM     22  C   UNL     1     -39.687  20.195  -0.417  0.00  0.00    +0.171 C 
ATOM     23  C   UNL     1     -36.504  24.415   4.423  0.00  0.00    +0.171 C 
ENDROOT
BRANCH  15  24
ATOM     24  O   UNL     1     -40.728  22.081   0.602  0.00  0.00    -0.465 OA
ATOM     25  C   UNL     1     -40.972  23.126  -0.335  0.00  0.00    +0.253 C 
ENDBRANCH  15  24
BRANCH  16  26
ATOM     26  O   UNL     1     -38.732  24.728   3.637  0.00  0.00    -0.465 OA
ATOM     27  C   UNL     1     -38.868  25.915   2.861  0.00  0.00    +0.253 C 
ENDBRANCH  16  26
BRANCH  22  28
ATOM     28  O   UNL     1     -40.858  19.848  -1.020  0.00  0.00    -0.503 OA
ATOM     29  H   UNL     1     -41.666  19.919  -0.550  0.00  0.00    +0.292 HD
ENDBRANCH  22  28
BRANCH  23  30
ATOM     30  O   UNL     1     -36.669  25.402   5.345  0.00  0.00    -0.503 OA
ATOM     31  H   UNL     1     -36.461  26.289   5.125  0.00  0.00    +0.292 HD
ENDBRANCH  23  30
BRANCH  18  33
ATOM     32  O   UNL     1     -32.959  23.863  -3.290  0.00  0.00    -0.245 OA
ATOM     33  C   UNL     1     -33.651  23.854  -2.274  0.00  0.00    +0.338 C 
BRANCH  33  34
ATOM     34  O   UNL     1     -34.461  24.901  -1.950  0.00  0.00    -0.477 OA
ATOM     35  H   UNL     1     -34.179  25.780  -2.115  0.00  0.00    +0.295 HD
ENDBRANCH  33  34
ENDBRANCH  18  33
TORSDOF 6
ENDMDL
