MODEL 1
REMARK VINA RESULT:      -4.8      0.000      0.000
REMARK  Name = 5744015
REMARK  9 active torsions:
REMARK  status: ('A' for Active; 'I' for Inactive)
REMARK    1  A    between atoms: C_1  and  N_3
REMARK    2  A    between atoms: C_1  and  C_8
REMARK    3  A    between atoms: C_1  and  C_11
REMARK    4  A    between atoms: C_8  and  O_9
REMARK    5  A    between atoms: C_11  and  S_12
REMARK    6  A    between atoms: S_12  and  C_14
REMARK    7  A    between atoms: C_14  and  N_15
REMARK    8  A    between atoms: N_15  and  C_17
REMARK    9  A    between atoms: C_17  and  C_18
REMARK                            x       y       z     vdW  Elec       q    Type
REMARK                         _______ _______ _______ _____ _____    ______ ____
ROOT
ATOM      1  C   UNK A   1     -36.658  22.529   2.766  0.00  0.00    +0.183 C 
ENDROOT
BRANCH   1   3
ATOM      2  O   UNK A   0     -34.999  20.782   4.386  0.00  0.00    -0.275 OA
ATOM      3  N   UNK A   1     -36.448  22.594   4.191  0.00  0.00    -0.296 N 
ATOM      4  C   UNK A   0     -35.633  21.711   4.881  0.00  0.00    +0.223 C 
ATOM      5  C   UNK A   0     -35.571  22.019   6.353  0.00  0.00    +0.095 C 
ATOM      6  H   UNK A   1     -36.907  23.301   4.700  0.00  0.00    +0.150 HD
ENDBRANCH   1   3
BRANCH   1   8
ATOM      7  O   UNK A   1     -38.888  21.758   2.207  0.00  0.00    -0.248 OA
ATOM      8  C   UNK A   1     -37.705  21.495   2.387  0.00  0.00    +0.333 C 
BRANCH   8   9
ATOM      9  O   UNK A   1     -37.204  20.241   2.282  0.00  0.00    -0.479 OA
ATOM     10  H   UNK A   1     -36.355  20.045   2.623  0.00  0.00    +0.295 HD
ENDBRANCH   8   9
ENDBRANCH   1   8
BRANCH   1  11
ATOM     11  C   UNK A   1     -36.965  23.911   2.183  0.00  0.00    +0.095 C 
BRANCH  11  12
ATOM     12  S   UNK A   1     -37.755  25.051   3.367  0.00  0.00    -0.090 S 
BRANCH  12  14
ATOM     13  S   UNK A   1     -36.306  27.132   1.762  0.00  0.00    -0.028 S 
ATOM     14  C   UNK A   1     -36.636  26.402   3.232  0.00  0.00    +0.108 C 
BRANCH  14  15
ATOM     15  N   UNK A   1     -36.140  26.760   4.468  0.00  0.00    -0.319 N 
ATOM     16  H   UNK A   1     -35.957  27.716   4.616  0.00  0.00    +0.148 HD
BRANCH  15  17
ATOM     17  C   UNK A   1     -35.862  25.860   5.571  0.00  0.00    +0.115 C 
BRANCH  17  18
ATOM     18  C   UNK A   1     -34.410  25.516   5.566  0.00  0.00    -0.005 C 
ATOM     19  C   UNK A   1     -33.787  24.925   4.540  0.00  0.00    -0.003 C 
ENDBRANCH  17  18
ENDBRANCH  15  17
ENDBRANCH  14  15
ENDBRANCH  12  14
ENDBRANCH  11  12
ENDBRANCH   1  11
TORSDOF 9
ENDMDL
MODEL 2
REMARK VINA RESULT:      -4.7      2.652      5.083
REMARK  Name = 5744015
REMARK  9 active torsions:
REMARK  status: ('A' for Active; 'I' for Inactive)
REMARK    1  A    between atoms: C_1  and  N_3
REMARK    2  A    between atoms: C_1  and  C_8
REMARK    3  A    between atoms: C_1  and  C_11
REMARK    4  A    between atoms: C_8  and  O_9
REMARK    5  A    between atoms: C_11  and  S_12
REMARK    6  A    between atoms: S_12  and  C_14
REMARK    7  A    between atoms: C_14  and  N_15
REMARK    8  A    between atoms: N_15  and  C_17
REMARK    9  A    between atoms: C_17  and  C_18
REMARK                            x       y       z     vdW  Elec       q    Type
REMARK                         _______ _______ _______ _____ _____    ______ ____
ROOT
ATOM      1  C   UNK A   1     -35.234  22.982   4.784  0.00  0.00    +0.183 C 
ENDROOT
BRANCH   1   3
ATOM      2  O   UNK A   0     -33.365  25.047   3.963  0.00  0.00    -0.275 OA
ATOM      3  N   UNK A   1     -34.940  24.218   5.465  0.00  0.00    -0.296 N 
ATOM      4  C   UNK A   0     -34.027  25.148   4.994  0.00  0.00    +0.223 C 
ATOM      5  C   UNK A   0     -33.932  26.358   5.883  0.00  0.00    +0.095 C 
ATOM      6  H   UNK A   1     -35.412  24.411   6.308  0.00  0.00    +0.150 HD
ENDBRANCH   1   3
BRANCH   1   8
ATOM      7  O   UNK A   1     -36.091  21.995   6.827  0.00  0.00    -0.248 OA
ATOM      8  C   UNK A   1     -35.519  21.846   5.754  0.00  0.00    +0.333 C 
BRANCH   8   9
ATOM      9  O   UNK A   1     -35.063  20.646   5.321  0.00  0.00    -0.479 OA
ATOM     10  H   UNK A   1     -35.076  19.906   5.894  0.00  0.00    +0.295 HD
ENDBRANCH   8   9
ENDBRANCH   1   8
BRANCH   1  11
ATOM     11  C   UNK A   1     -36.351  23.163   3.754  0.00  0.00    +0.095 C 
BRANCH  11  12
ATOM     12  S   UNK A   1     -35.820  22.872   2.034  0.00  0.00    -0.090 S 
BRANCH  12  14
ATOM     13  S   UNK A   1     -34.800  20.064   1.752  0.00  0.00    -0.028 S 
ATOM     14  C   UNK A   1     -36.071  21.131   1.962  0.00  0.00    +0.108 C 
BRANCH  14  15
ATOM     15  N   UNK A   1     -37.403  20.816   2.137  0.00  0.00    -0.319 N 
ATOM     16  H   UNK A   1     -37.640  20.317   2.952  0.00  0.00    +0.148 HD
BRANCH  15  17
ATOM     17  C   UNK A   1     -38.486  21.151   1.234  0.00  0.00    +0.115 C 
BRANCH  17  18
ATOM     18  C   UNK A   1     -39.590  21.788   2.011  0.00  0.00    -0.005 C 
ATOM     19  C   UNK A   1     -39.756  23.111   2.123  0.00  0.00    -0.003 C 
ENDBRANCH  17  18
ENDBRANCH  15  17
ENDBRANCH  14  15
ENDBRANCH  12  14
ENDBRANCH  11  12
ENDBRANCH   1  11
TORSDOF 9
ENDMDL
MODEL 3
REMARK VINA RESULT:      -4.6      3.066      3.946
REMARK  Name = 5744015
REMARK  9 active torsions:
REMARK  status: ('A' for Active; 'I' for Inactive)
REMARK    1  A    between atoms: C_1  and  N_3
REMARK    2  A    between atoms: C_1  and  C_8
REMARK    3  A    between atoms: C_1  and  C_11
REMARK    4  A    between atoms: C_8  and  O_9
REMARK    5  A    between atoms: C_11  and  S_12
REMARK    6  A    between atoms: S_12  and  C_14
REMARK    7  A    between atoms: C_14  and  N_15
REMARK    8  A    between atoms: N_15  and  C_17
REMARK    9  A    between atoms: C_17  and  C_18
REMARK                            x       y       z     vdW  Elec       q    Type
REMARK                         _______ _______ _______ _____ _____    ______ ____
ROOT
ATOM      1  C   UNK A   1     -35.133  20.572   1.271  0.00  0.00    +0.183 C 
ENDROOT
BRANCH   1   3
ATOM      2  O   UNK A   0     -33.813  18.601  -0.403  0.00  0.00    -0.275 OA
ATOM      3  N   UNK A   1     -34.044  19.701   1.636  0.00  0.00    -0.296 N 
ATOM      4  C   UNK A   0     -33.475  18.787   0.764  0.00  0.00    +0.223 C 
ATOM      5  C   UNK A   0     -32.341  18.024   1.393  0.00  0.00    +0.095 C 
ATOM      6  H   UNK A   1     -33.686  19.758   2.552  0.00  0.00    +0.150 HD
ENDBRANCH   1   3
BRANCH   1   8
ATOM      7  O   UNK A   1     -37.150  19.506   0.449  0.00  0.00    -0.248 OA
ATOM      8  C   UNK A   1     -36.484  19.889   1.403  0.00  0.00    +0.333 C 
BRANCH   8   9
ATOM      9  O   UNK A   1     -36.892  19.756   2.689  0.00  0.00    -0.479 OA
ATOM     10  H   UNK A   1     -37.575  20.303   3.022  0.00  0.00    +0.295 HD
ENDBRANCH   8   9
ENDBRANCH   1   8
BRANCH   1  11
ATOM     11  C   UNK A   1     -35.071  21.896   2.037  0.00  0.00    +0.095 C 
BRANCH  11  12
ATOM     12  S   UNK A   1     -36.226  23.161   1.414  0.00  0.00    -0.090 S 
BRANCH  12  14
ATOM     13  S   UNK A   1     -39.031  23.380   2.459  0.00  0.00    -0.028 S 
ATOM     14  C   UNK A   1     -37.398  23.131   2.727  0.00  0.00    +0.108 C 
BRANCH  14  15
ATOM     15  N   UNK A   1     -36.786  22.845   3.930  0.00  0.00    -0.319 N 
ATOM     16  H   UNK A   1     -36.781  21.902   4.215  0.00  0.00    +0.148 HD
BRANCH  15  17
ATOM     17  C   UNK A   1     -36.148  23.801   4.813  0.00  0.00    +0.115 C 
BRANCH  17  18
ATOM     18  C   UNK A   1     -35.178  23.083   5.691  0.00  0.00    -0.005 C 
ATOM     19  C   UNK A   1     -35.412  21.883   6.235  0.00  0.00    -0.003 C 
ENDBRANCH  17  18
ENDBRANCH  15  17
ENDBRANCH  14  15
ENDBRANCH  12  14
ENDBRANCH  11  12
ENDBRANCH   1  11
TORSDOF 9
ENDMDL
MODEL 4
REMARK VINA RESULT:      -4.6      3.308      3.827
REMARK  Name = 5744015
REMARK  9 active torsions:
REMARK  status: ('A' for Active; 'I' for Inactive)
REMARK    1  A    between atoms: C_1  and  N_3
REMARK    2  A    between atoms: C_1  and  C_8
REMARK    3  A    between atoms: C_1  and  C_11
REMARK    4  A    between atoms: C_8  and  O_9
REMARK    5  A    between atoms: C_11  and  S_12
REMARK    6  A    between atoms: S_12  and  C_14
REMARK    7  A    between atoms: C_14  and  N_15
REMARK    8  A    between atoms: N_15  and  C_17
REMARK    9  A    between atoms: C_17  and  C_18
REMARK                            x       y       z     vdW  Elec       q    Type
REMARK                         _______ _______ _______ _____ _____    ______ ____
ROOT
ATOM      1  C   UNK A   1     -36.268  24.535   3.916  0.00  0.00    +0.183 C 
ENDROOT
BRANCH   1   3
ATOM      2  O   UNK A   0     -35.333  21.786   3.941  0.00  0.00    -0.275 OA
ATOM      3  N   UNK A   1     -36.104  23.676   5.062  0.00  0.00    -0.296 N 
ATOM      4  C   UNK A   0     -35.649  22.370   4.976  0.00  0.00    +0.223 C 
ATOM      5  C   UNK A   0     -35.548  21.708   6.323  0.00  0.00    +0.095 C 
ATOM      6  H   UNK A   1     -36.327  24.035   5.951  0.00  0.00    +0.150 HD
ENDBRANCH   1   3
BRANCH   1   8
ATOM      7  O   UNK A   1     -38.628  24.192   3.480  0.00  0.00    -0.248 OA
ATOM      8  C   UNK A   1     -37.712  24.967   3.725  0.00  0.00    +0.333 C 
BRANCH   8   9
ATOM      9  O   UNK A   1     -37.888  26.306   3.835  0.00  0.00    -0.479 OA
ATOM     10  H   UNK A   1     -37.792  26.724   4.668  0.00  0.00    +0.295 HD
ENDBRANCH   8   9
ENDBRANCH   1   8
BRANCH   1  11
ATOM     11  C   UNK A   1     -35.305  25.724   3.966  0.00  0.00    +0.095 C 
BRANCH  11  12
ATOM     12  S   UNK A   1     -34.457  25.917   5.569  0.00  0.00    -0.090 S 
BRANCH  12  14
ATOM     13  S   UNK A   1     -33.083  27.621   3.517  0.00  0.00    -0.028 S 
ATOM     14  C   UNK A   1     -33.275  27.136   5.107  0.00  0.00    +0.108 C 
BRANCH  14  15
ATOM     15  N   UNK A   1     -32.606  27.620   6.211  0.00  0.00    -0.319 N 
ATOM     16  H   UNK A   1     -33.002  27.428   7.093  0.00  0.00    +0.148 HD
BRANCH  15  17
ATOM     17  C   UNK A   1     -31.374  28.384   6.198  0.00  0.00    +0.115 C 
BRANCH  17  18
ATOM     18  C   UNK A   1     -31.671  29.794   6.586  0.00  0.00    -0.005 C 
ATOM     19  C   UNK A   1     -31.911  30.775   5.707  0.00  0.00    -0.003 C 
ENDBRANCH  17  18
ENDBRANCH  15  17
ENDBRANCH  14  15
ENDBRANCH  12  14
ENDBRANCH  11  12
ENDBRANCH   1  11
TORSDOF 9
ENDMDL
MODEL 5
REMARK VINA RESULT:      -4.5      3.047      5.129
REMARK  Name = 5744015
REMARK  9 active torsions:
REMARK  status: ('A' for Active; 'I' for Inactive)
REMARK    1  A    between atoms: C_1  and  N_3
REMARK    2  A    between atoms: C_1  and  C_8
REMARK    3  A    between atoms: C_1  and  C_11
REMARK    4  A    between atoms: C_8  and  O_9
REMARK    5  A    between atoms: C_11  and  S_12
REMARK    6  A    between atoms: S_12  and  C_14
REMARK    7  A    between atoms: C_14  and  N_15
REMARK    8  A    between atoms: N_15  and  C_17
REMARK    9  A    between atoms: C_17  and  C_18
REMARK                            x       y       z     vdW  Elec       q    Type
REMARK                         _______ _______ _______ _____ _____    ______ ____
ROOT
ATOM      1  C   UNK A   1     -35.262  23.059   4.684  0.00  0.00    +0.183 C 
ENDROOT
BRANCH   1   3
ATOM      2  O   UNK A   0     -33.395  25.130   3.874  0.00  0.00    -0.275 OA
ATOM      3  N   UNK A   1     -34.912  24.254   5.409  0.00  0.00    -0.296 N 
ATOM      4  C   UNK A   0     -34.004  25.190   4.940  0.00  0.00    +0.223 C 
ATOM      5  C   UNK A   0     -33.842  26.353   5.881  0.00  0.00    +0.095 C 
ATOM      6  H   UNK A   1     -35.338  24.413   6.282  0.00  0.00    +0.150 HD
ENDBRANCH   1   3
BRANCH   1   8
ATOM      7  O   UNK A   1     -35.998  21.982   6.728  0.00  0.00    -0.248 OA
ATOM      8  C   UNK A   1     -35.513  21.879   5.608  0.00  0.00    +0.333 C 
BRANCH   8   9
ATOM      9  O   UNK A   1     -35.130  20.692   5.077  0.00  0.00    -0.479 OA
ATOM     10  H   UNK A   1     -35.765  20.023   4.920  0.00  0.00    +0.295 HD
ENDBRANCH   8   9
ENDBRANCH   1   8
BRANCH   1  11
ATOM     11  C   UNK A   1     -36.431  23.308   3.727  0.00  0.00    +0.095 C 
BRANCH  11  12
ATOM     12  S   UNK A   1     -36.000  23.101   1.968  0.00  0.00    -0.090 S 
BRANCH  12  14
ATOM     13  S   UNK A   1     -38.201  21.205   1.216  0.00  0.00    -0.028 S 
ATOM     14  C   UNK A   1     -36.629  21.476   1.723  0.00  0.00    +0.108 C 
BRANCH  14  15
ATOM     15  N   UNK A   1     -35.658  20.527   1.965  0.00  0.00    -0.319 N 
ATOM     16  H   UNK A   1     -35.526  20.252   2.902  0.00  0.00    +0.148 HD
BRANCH  15  17
ATOM     17  C   UNK A   1     -34.811  19.896   0.972  0.00  0.00    +0.115 C 
BRANCH  17  18
ATOM     18  C   UNK A   1     -33.659  19.241   1.657  0.00  0.00    -0.005 C 
ATOM     19  C   UNK A   1     -33.034  18.154   1.191  0.00  0.00    -0.003 C 
ENDBRANCH  17  18
ENDBRANCH  15  17
ENDBRANCH  14  15
ENDBRANCH  12  14
ENDBRANCH  11  12
ENDBRANCH   1  11
TORSDOF 9
ENDMDL
MODEL 6
REMARK VINA RESULT:      -4.5      3.395      5.691
REMARK  Name = 5744015
REMARK  9 active torsions:
REMARK  status: ('A' for Active; 'I' for Inactive)
REMARK    1  A    between atoms: C_1  and  N_3
REMARK    2  A    between atoms: C_1  and  C_8
REMARK    3  A    between atoms: C_1  and  C_11
REMARK    4  A    between atoms: C_8  and  O_9
REMARK    5  A    between atoms: C_11  and  S_12
REMARK    6  A    between atoms: S_12  and  C_14
REMARK    7  A    between atoms: C_14  and  N_15
REMARK    8  A    between atoms: N_15  and  C_17
REMARK    9  A    between atoms: C_17  and  C_18
REMARK                            x       y       z     vdW  Elec       q    Type
REMARK                         _______ _______ _______ _____ _____    ______ ____
ROOT
ATOM      1  C   UNK A   1     -36.925  24.868   3.779  0.00  0.00    +0.183 C 
ENDROOT
BRANCH   1   3
ATOM      2  O   UNK A   0     -38.571  26.592   2.122  0.00  0.00    -0.275 OA
ATOM      3  N   UNK A   1     -38.361  24.994   3.802  0.00  0.00    -0.296 N 
ATOM      4  C   UNK A   0     -39.063  25.849   2.968  0.00  0.00    +0.223 C 
ATOM      5  C   UNK A   0     -40.550  25.766   3.183  0.00  0.00    +0.095 C 
ATOM      6  H   UNK A   1     -38.868  24.445   4.443  0.00  0.00    +0.150 HD
ENDBRANCH   1   3
BRANCH   1   8
ATOM      7  O   UNK A   1     -35.592  24.619   5.789  0.00  0.00    -0.248 OA
ATOM      8  C   UNK A   1     -36.286  25.334   5.077  0.00  0.00    +0.333 C 
BRANCH   8   9
ATOM      9  O   UNK A   1     -36.574  26.622   5.381  0.00  0.00    -0.479 OA
ATOM     10  H   UNK A   1     -37.249  26.818   6.000  0.00  0.00    +0.295 HD
ENDBRANCH   8   9
ENDBRANCH   1   8
BRANCH   1  11
ATOM     11  C   UNK A   1     -36.495  23.450   3.394  0.00  0.00    +0.095 C 
BRANCH  11  12
ATOM     12  S   UNK A   1     -36.873  23.009   1.666  0.00  0.00    -0.090 S 
BRANCH  12  14
ATOM     13  S   UNK A   1     -39.544  21.661   1.901  0.00  0.00    -0.028 S 
ATOM     14  C   UNK A   1     -37.873  21.591   1.959  0.00  0.00    +0.108 C 
BRANCH  14  15
ATOM     15  N   UNK A   1     -37.094  20.476   2.190  0.00  0.00    -0.319 N 
ATOM     16  H   UNK A   1     -37.160  20.063   3.082  0.00  0.00    +0.148 HD
BRANCH  15  17
ATOM     17  C   UNK A   1     -36.187  19.856   1.245  0.00  0.00    +0.115 C 
BRANCH  17  18
ATOM     18  C   UNK A   1     -34.782  20.130   1.665  0.00  0.00    -0.005 C 
ATOM     19  C   UNK A   1     -33.782  19.249   1.545  0.00  0.00    -0.003 C 
ENDBRANCH  17  18
ENDBRANCH  15  17
ENDBRANCH  14  15
ENDBRANCH  12  14
ENDBRANCH  11  12
ENDBRANCH   1  11
TORSDOF 9
ENDMDL
MODEL 7
REMARK VINA RESULT:      -4.5      3.865      4.816
REMARK  Name = 5744015
REMARK  9 active torsions:
REMARK  status: ('A' for Active; 'I' for Inactive)
REMARK    1  A    between atoms: C_1  and  N_3
REMARK    2  A    between atoms: C_1  and  C_8
REMARK    3  A    between atoms: C_1  and  C_11
REMARK    4  A    between atoms: C_8  and  O_9
REMARK    5  A    between atoms: C_11  and  S_12
REMARK    6  A    between atoms: S_12  and  C_14
REMARK    7  A    between atoms: C_14  and  N_15
REMARK    8  A    between atoms: N_15  and  C_17
REMARK    9  A    between atoms: C_17  and  C_18
REMARK                            x       y       z     vdW  Elec       q    Type
REMARK                         _______ _______ _______ _____ _____    ______ ____
ROOT
ATOM      1  C   UNK A   1     -34.737  25.085   4.354  0.00  0.00    +0.183 C 
ENDROOT
BRANCH   1   3
ATOM      2  O   UNK A   0     -36.702  22.967   4.641  0.00  0.00    -0.275 OA
ATOM      3  N   UNK A   1     -34.542  23.784   4.943  0.00  0.00    -0.296 N 
ATOM      4  C   UNK A   0     -35.546  22.833   5.036  0.00  0.00    +0.223 C 
ATOM      5  C   UNK A   0     -35.067  21.556   5.671  0.00  0.00    +0.095 C 
ATOM      6  H   UNK A   1     -33.651  23.560   5.297  0.00  0.00    +0.150 HD
ENDBRANCH   1   3
BRANCH   1   8
ATOM      7  O   UNK A   1     -34.173  26.600   6.161  0.00  0.00    -0.248 OA
ATOM      8  C   UNK A   1     -35.020  26.152   5.399  0.00  0.00    +0.333 C 
BRANCH   8   9
ATOM      9  O   UNK A   1     -36.315  26.552   5.417  0.00  0.00    -0.479 OA
ATOM     10  H   UNK A   1     -36.998  25.921   5.526  0.00  0.00    +0.295 HD
ENDBRANCH   8   9
ENDBRANCH   1   8
BRANCH   1  11
ATOM     11  C   UNK A   1     -33.571  25.463   3.436  0.00  0.00    +0.095 C 
BRANCH  11  12
ATOM     12  S   UNK A   1     -33.784  27.069   2.599  0.00  0.00    -0.090 S 
BRANCH  12  14
ATOM     13  S   UNK A   1     -30.865  27.711   2.869  0.00  0.00    -0.028 S 
ATOM     14  C   UNK A   1     -32.452  27.944   3.345  0.00  0.00    +0.108 C 
BRANCH  14  15
ATOM     15  N   UNK A   1     -32.914  28.827   4.300  0.00  0.00    -0.319 N 
ATOM     16  H   UNK A   1     -33.628  28.505   4.897  0.00  0.00    +0.148 HD
BRANCH  15  17
ATOM     17  C   UNK A   1     -32.447  30.183   4.508  0.00  0.00    +0.115 C 
BRANCH  17  18
ATOM     18  C   UNK A   1     -31.548  30.212   5.699  0.00  0.00    -0.005 C 
ATOM     19  C   UNK A   1     -31.716  29.440   6.778  0.00  0.00    -0.003 C 
ENDBRANCH  17  18
ENDBRANCH  15  17
ENDBRANCH  14  15
ENDBRANCH  12  14
ENDBRANCH  11  12
ENDBRANCH   1  11
TORSDOF 9
ENDMDL
MODEL 8
REMARK VINA RESULT:      -4.4      3.856      5.795
REMARK  Name = 5744015
REMARK  9 active torsions:
REMARK  status: ('A' for Active; 'I' for Inactive)
REMARK    1  A    between atoms: C_1  and  N_3
REMARK    2  A    between atoms: C_1  and  C_8
REMARK    3  A    between atoms: C_1  and  C_11
REMARK    4  A    between atoms: C_8  and  O_9
REMARK    5  A    between atoms: C_11  and  S_12
REMARK    6  A    between atoms: S_12  and  C_14
REMARK    7  A    between atoms: C_14  and  N_15
REMARK    8  A    between atoms: N_15  and  C_17
REMARK    9  A    between atoms: C_17  and  C_18
REMARK                            x       y       z     vdW  Elec       q    Type
REMARK                         _______ _______ _______ _____ _____    ______ ____
ROOT
ATOM      1  C   UNK A   1     -35.746  22.207   3.876  0.00  0.00    +0.183 C 
ENDROOT
BRANCH   1   3
ATOM      2  O   UNK A   0     -36.470  24.964   3.327  0.00  0.00    -0.275 OA
ATOM      3  N   UNK A   1     -37.056  22.723   3.567  0.00  0.00    -0.296 N 
ATOM      4  C   UNK A   0     -37.306  24.063   3.318  0.00  0.00    +0.223 C 
ATOM      5  C   UNK A   0     -38.752  24.326   2.997  0.00  0.00    +0.095 C 
ATOM      6  H   UNK A   1     -37.811  22.092   3.531  0.00  0.00    +0.150 HD
ENDBRANCH   1   3
BRANCH   1   8
ATOM      7  O   UNK A   1     -35.813  22.705   6.249  0.00  0.00    -0.248 OA
ATOM      8  C   UNK A   1     -35.586  21.897   5.356  0.00  0.00    +0.333 C 
BRANCH   8   9
ATOM      9  O   UNK A   1     -35.149  20.637   5.594  0.00  0.00    -0.479 OA
ATOM     10  H   UNK A   1     -35.377  19.943   5.008  0.00  0.00    +0.295 HD
ENDBRANCH   8   9
ENDBRANCH   1   8
BRANCH   1  11
ATOM     11  C   UNK A   1     -35.393  21.010   2.989  0.00  0.00    +0.095 C 
BRANCH  11  12
ATOM     12  S   UNK A   1     -36.708  20.555   1.810  0.00  0.00    -0.090 S 
BRANCH  12  14
ATOM     13  S   UNK A   1     -35.345  20.863  -0.845  0.00  0.00    -0.028 S 
ATOM     14  C   UNK A   1     -35.701  19.940   0.504  0.00  0.00    +0.108 C 
BRANCH  14  15
ATOM     15  N   UNK A   1     -35.254  18.665   0.783  0.00  0.00    -0.319 N 
ATOM     16  H   UNK A   1     -35.838  18.099   1.338  0.00  0.00    +0.148 HD
BRANCH  15  17
ATOM     17  C   UNK A   1     -34.005  18.081   0.336  0.00  0.00    +0.115 C 
BRANCH  17  18
ATOM     18  C   UNK A   1     -32.880  18.685   1.108  0.00  0.00    -0.005 C 
ATOM     19  C   UNK A   1     -31.978  19.521   0.581  0.00  0.00    -0.003 C 
ENDBRANCH  17  18
ENDBRANCH  15  17
ENDBRANCH  14  15
ENDBRANCH  12  14
ENDBRANCH  11  12
ENDBRANCH   1  11
TORSDOF 9
ENDMDL
MODEL 9
REMARK VINA RESULT:      -4.4      3.463      5.686
REMARK  Name = 5744015
REMARK  9 active torsions:
REMARK  status: ('A' for Active; 'I' for Inactive)
REMARK    1  A    between atoms: C_1  and  N_3
REMARK    2  A    between atoms: C_1  and  C_8
REMARK    3  A    between atoms: C_1  and  C_11
REMARK    4  A    between atoms: C_8  and  O_9
REMARK    5  A    between atoms: C_11  and  S_12
REMARK    6  A    between atoms: S_12  and  C_14
REMARK    7  A    between atoms: C_14  and  N_15
REMARK    8  A    between atoms: N_15  and  C_17
REMARK    9  A    between atoms: C_17  and  C_18
REMARK                            x       y       z     vdW  Elec       q    Type
REMARK                         _______ _______ _______ _____ _____    ______ ____
ROOT
ATOM      1  C   UNK A   1     -35.120  26.872   3.263  0.00  0.00    +0.183 C 
ENDROOT
BRANCH   1   3
ATOM      2  O   UNK A   0     -33.553  28.989   2.042  0.00  0.00    -0.275 OA
ATOM      3  N   UNK A   1     -35.313  28.294   3.398  0.00  0.00    -0.296 N 
ATOM      4  C   UNK A   0     -34.509  29.234   2.773  0.00  0.00    +0.223 C 
ATOM      5  C   UNK A   0     -34.946  30.645   3.063  0.00  0.00    +0.095 C 
ATOM      6  H   UNK A   1     -36.053  28.614   3.964  0.00  0.00    +0.150 HD
ENDBRANCH   1   3
BRANCH   1   8
ATOM      7  O   UNK A   1     -33.204  25.692   4.168  0.00  0.00    -0.248 OA
ATOM      8  C   UNK A   1     -34.246  26.304   4.369  0.00  0.00    +0.333 C 
BRANCH   8   9
ATOM      9  O   UNK A   1     -34.743  26.526   5.610  0.00  0.00    -0.479 OA
ATOM     10  H   UNK A   1     -34.544  25.934   6.307  0.00  0.00    +0.295 HD
ENDBRANCH   8   9
ENDBRANCH   1   8
BRANCH   1  11
ATOM     11  C   UNK A   1     -36.456  26.136   3.138  0.00  0.00    +0.095 C 
BRANCH  11  12
ATOM     12  S   UNK A   1     -36.387  24.661   2.068  0.00  0.00    -0.090 S 
BRANCH  12  14
ATOM     13  S   UNK A   1     -39.256  24.034   2.686  0.00  0.00    -0.028 S 
ATOM     14  C   UNK A   1     -37.627  23.693   2.858  0.00  0.00    +0.108 C 
BRANCH  14  15
ATOM     15  N   UNK A   1     -37.064  22.650   3.564  0.00  0.00    -0.319 N 
ATOM     16  H   UNK A   1     -37.658  21.900   3.801  0.00  0.00    +0.148 HD
BRANCH  15  17
ATOM     17  C   UNK A   1     -35.683  22.554   3.992  0.00  0.00    +0.115 C 
BRANCH  17  18
ATOM     18  C   UNK A   1     -35.594  22.903   5.440  0.00  0.00    -0.005 C 
ATOM     19  C   UNK A   1     -35.178  22.054   6.387  0.00  0.00    -0.003 C 
ENDBRANCH  17  18
ENDBRANCH  15  17
ENDBRANCH  14  15
ENDBRANCH  12  14
ENDBRANCH  11  12
ENDBRANCH   1  11
TORSDOF 9
ENDMDL
