MODEL 1
REMARK VINA RESULT:      -6.4      0.000      0.000
REMARK  Name = 5316301
REMARK  8 active torsions:
REMARK  status: ('A' for Active; 'I' for Inactive)
REMARK    1  A    between atoms: C_2  and  O_7
REMARK    2  A    between atoms: C_3  and  O_9
REMARK    3  A    between atoms: C_4  and  O_11
REMARK    4  A    between atoms: C_5  and  C_27
REMARK    5  A    between atoms: C_6  and  O_13
REMARK    6  A    between atoms: O_13  and  C_16
REMARK    7  A    between atoms: C_18  and  O_25
REMARK    8  A    between atoms: C_27  and  O_28
REMARK                            x       y       z     vdW  Elec       q    Type
REMARK                         _______ _______ _______ _____ _____    ______ ____
ROOT
ATOM      1  O   UNL     1     -37.071  23.208   4.201  0.00  0.00    -0.316 OA
ATOM      2  C   UNL     1     -35.859  25.805   4.012  0.00  0.00    +0.173 C 
ATOM      3  C   UNL     1     -35.234  24.664   4.816  0.00  0.00    +0.169 C 
ATOM      4  C   UNL     1     -37.361  25.588   3.821  0.00  0.00    +0.210 C 
ATOM      5  C   UNL     1     -35.647  23.306   4.243  0.00  0.00    +0.177 C 
ATOM      6  C   UNL     1     -37.661  24.171   3.331  0.00  0.00    +0.318 C 
ENDROOT
BRANCH   2   7
ATOM      7  O   UNL     1     -35.641  27.021   4.728  0.00  0.00    -0.379 OA
ATOM      8  H   UNL     1     -34.765  27.373   4.507  0.00  0.00    +0.211 HD
ENDBRANCH   2   7
BRANCH   3   9
ATOM      9  O   UNL     1     -33.815  24.782   4.775  0.00  0.00    -0.379 OA
ATOM     10  H   UNL     1     -33.548  25.626   5.171  0.00  0.00    +0.211 HD
ENDBRANCH   3   9
BRANCH   4  11
ATOM     11  O   UNL     1     -37.852  26.511   2.847  0.00  0.00    -0.377 OA
ATOM     12  H   UNL     1     -37.398  26.363   2.004  0.00  0.00    +0.211 HD
ENDBRANCH   4  11
BRANCH   6  13
ATOM     13  O   UNL     1     -39.078  24.003   3.315  0.00  0.00    -0.444 OA
BRANCH  13  16
ATOM     14  O   UNL     1     -40.471  25.799   1.779  0.00  0.00    -0.418 OA
ATOM     15  O   UNL     1     -41.283  27.909   1.416  0.00  0.00    -0.244 OA
ATOM     16  C   UNL     1     -39.630  23.581   2.137  0.00  0.00    +0.209 C 
ATOM     17  C   UNL     1     -40.341  24.466   1.335  0.00  0.00    +0.185 C 
ATOM     18  C   UNL     1     -39.482  22.261   1.731  0.00  0.00    +0.171 C 
ATOM     19  C   UNL     1     -40.911  24.061   0.131  0.00  0.00    +0.038 C 
ATOM     20  C   UNL     1     -40.047  21.836   0.526  0.00  0.00    +0.040 C 
ATOM     21  C   UNL     1     -40.760  22.734  -0.274  0.00  0.00    +0.006 C 
ATOM     22  C   UNL     1     -41.642  25.036  -0.660  0.00  0.00    +0.010 C 
ATOM     23  C   UNL     1     -41.760  26.296  -0.234  0.00  0.00    +0.082 C 
ATOM     24  C   UNL     1     -41.165  26.749   1.037  0.00  0.00    +0.346 C 
BRANCH  18  25
ATOM     25  O   UNL     1     -38.791  21.369   2.494  0.00  0.00    -0.503 OA
ATOM     26  H   UNL     1     -38.479  20.570   2.117  0.00  0.00    +0.292 HD
ENDBRANCH  18  25
ENDBRANCH  13  16
ENDBRANCH   6  13
BRANCH   5  27
ATOM     27  C   UNL     1     -35.132  22.153   5.098  0.00  0.00    +0.169 C 
BRANCH  27  28
ATOM     28  O   UNL     1     -36.048  21.930   6.155  0.00  0.00    -0.379 OA
ATOM     29  H   UNL     1     -35.562  21.832   6.988  0.00  0.00    +0.211 HD
ENDBRANCH  27  28
ENDBRANCH   5  27
TORSDOF 8
ENDMDL
MODEL 2
REMARK VINA RESULT:      -6.3      4.246      8.157
REMARK  Name = 5316301
REMARK  8 active torsions:
REMARK  status: ('A' for Active; 'I' for Inactive)
REMARK    1  A    between atoms: C_2  and  O_7
REMARK    2  A    between atoms: C_3  and  O_9
REMARK    3  A    between atoms: C_4  and  O_11
REMARK    4  A    between atoms: C_5  and  C_27
REMARK    5  A    between atoms: C_6  and  O_13
REMARK    6  A    between atoms: O_13  and  C_16
REMARK    7  A    between atoms: C_18  and  O_25
REMARK    8  A    between atoms: C_27  and  O_28
REMARK                            x       y       z     vdW  Elec       q    Type
REMARK                         _______ _______ _______ _____ _____    ______ ____
ROOT
ATOM      1  O   UNL     1     -33.833  25.087   4.848  0.00  0.00    -0.316 OA
ATOM      2  C   UNL     1     -36.230  26.124   3.652  0.00  0.00    +0.173 C 
ATOM      3  C   UNL     1     -36.076  24.652   4.039  0.00  0.00    +0.169 C 
ATOM      4  C   UNL     1     -34.867  26.790   3.460  0.00  0.00    +0.210 C 
ATOM      5  C   UNL     1     -35.087  24.496   5.196  0.00  0.00    +0.177 C 
ATOM      6  C   UNL     1     -33.932  26.493   4.633  0.00  0.00    +0.318 C 
ENDROOT
BRANCH   2   7
ATOM      7  O   UNL     1     -36.965  26.184   2.429  0.00  0.00    -0.379 OA
ATOM      8  H   UNL     1     -37.689  25.538   2.455  0.00  0.00    +0.211 HD
ENDBRANCH   2   7
BRANCH   3   9
ATOM      9  O   UNL     1     -37.345  24.134   4.430  0.00  0.00    -0.379 OA
ATOM     10  H   UNL     1     -37.431  23.220   4.118  0.00  0.00    +0.211 HD
ENDBRANCH   3   9
BRANCH   4  11
ATOM     11  O   UNL     1     -35.040  28.205   3.374  0.00  0.00    -0.377 OA
ATOM     12  H   UNL     1     -35.055  28.583   4.265  0.00  0.00    +0.211 HD
ENDBRANCH   4  11
BRANCH   6  13
ATOM     13  O   UNL     1     -32.646  27.024   4.315  0.00  0.00    -0.444 OA
BRANCH  13  16
ATOM     14  O   UNL     1     -32.350  29.356   2.902  0.00  0.00    -0.418 OA
ATOM     15  O   UNL     1     -32.417  30.519   0.931  0.00  0.00    -0.244 OA
ATOM     16  C   UNL     1     -32.273  28.160   4.980  0.00  0.00    +0.209 C 
ATOM     17  C   UNL     1     -32.115  29.357   4.293  0.00  0.00    +0.185 C 
ATOM     18  C   UNL     1     -32.050  28.124   6.351  0.00  0.00    +0.171 C 
ATOM     19  C   UNL     1     -31.737  30.527   4.947  0.00  0.00    +0.038 C 
ATOM     20  C   UNL     1     -31.670  29.287   7.024  0.00  0.00    +0.040 C 
ATOM     21  C   UNL     1     -31.514  30.488   6.325  0.00  0.00    +0.006 C 
ATOM     22  C   UNL     1     -31.589  31.747   4.171  0.00  0.00    +0.010 C 
ATOM     23  C   UNL     1     -31.814  31.737   2.855  0.00  0.00    +0.082 C 
ATOM     24  C   UNL     1     -32.215  30.512   2.140  0.00  0.00    +0.346 C 
BRANCH  18  25
ATOM     25  O   UNL     1     -32.197  26.965   7.052  0.00  0.00    -0.503 OA
ATOM     26  H   UNL     1     -32.816  26.917   7.753  0.00  0.00    +0.292 HD
ENDBRANCH  18  25
ENDBRANCH  13  16
ENDBRANCH   6  13
BRANCH   5  27
ATOM     27  C   UNL     1     -34.828  23.028   5.522  0.00  0.00    +0.169 C 
BRANCH  27  28
ATOM     28  O   UNL     1     -35.951  22.514   6.212  0.00  0.00    -0.379 OA
ATOM     29  H   UNL     1     -36.119  21.603   5.924  0.00  0.00    +0.211 HD
ENDBRANCH  27  28
ENDBRANCH   5  27
TORSDOF 8
ENDMDL
MODEL 3
REMARK VINA RESULT:      -6.1      2.167      6.187
REMARK  Name = 5316301
REMARK  8 active torsions:
REMARK  status: ('A' for Active; 'I' for Inactive)
REMARK    1  A    between atoms: C_2  and  O_7
REMARK    2  A    between atoms: C_3  and  O_9
REMARK    3  A    between atoms: C_4  and  O_11
REMARK    4  A    between atoms: C_5  and  C_27
REMARK    5  A    between atoms: C_6  and  O_13
REMARK    6  A    between atoms: O_13  and  C_16
REMARK    7  A    between atoms: C_18  and  O_25
REMARK    8  A    between atoms: C_27  and  O_28
REMARK                            x       y       z     vdW  Elec       q    Type
REMARK                         _______ _______ _______ _____ _____    ______ ____
ROOT
ATOM      1  O   UNL     1     -37.541  24.230   2.248  0.00  0.00    -0.316 OA
ATOM      2  C   UNL     1     -39.379  22.161   1.476  0.00  0.00    +0.173 C 
ATOM      3  C   UNL     1     -39.836  23.456   2.148  0.00  0.00    +0.169 C 
ATOM      4  C   UNL     1     -37.905  21.877   1.768  0.00  0.00    +0.210 C 
ATOM      5  C   UNL     1     -38.862  24.598   1.847  0.00  0.00    +0.177 C 
ATOM      6  C   UNL     1     -37.040  23.112   1.517  0.00  0.00    +0.318 C 
ENDROOT
BRANCH   2   7
ATOM      7  O   UNL     1     -40.179  21.093   1.984  0.00  0.00    -0.379 OA
ATOM      8  H   UNL     1     -40.443  21.293   2.896  0.00  0.00    +0.211 HD
ENDBRANCH   2   7
BRANCH   3   9
ATOM      9  O   UNL     1     -41.133  23.803   1.668  0.00  0.00    -0.379 OA
ATOM     10  H   UNL     1     -41.402  24.653   2.049  0.00  0.00    +0.211 HD
ENDBRANCH   3   9
BRANCH   4  11
ATOM     11  O   UNL     1     -37.446  20.829   0.914  0.00  0.00    -0.377 OA
ATOM     12  H   UNL     1     -37.960  20.834   0.092  0.00  0.00    +0.211 HD
ENDBRANCH   4  11
BRANCH   6  13
ATOM     13  O   UNL     1     -35.712  22.813   1.946  0.00  0.00    -0.444 OA
BRANCH  13  16
ATOM     14  O   UNL     1     -35.060  25.231   3.065  0.00  0.00    -0.418 OA
ATOM     15  O   UNL     1     -34.660  27.477   2.872  0.00  0.00    -0.244 OA
ATOM     16  C   UNL     1     -35.475  22.880   3.292  0.00  0.00    +0.209 C 
ATOM     17  C   UNL     1     -35.143  24.090   3.889  0.00  0.00    +0.185 C 
ATOM     18  C   UNL     1     -35.567  21.735   4.074  0.00  0.00    +0.171 C 
ATOM     19  C   UNL     1     -34.899  24.184   5.257  0.00  0.00    +0.038 C 
ATOM     20  C   UNL     1     -35.325  21.810   5.448  0.00  0.00    +0.040 C 
ATOM     21  C   UNL     1     -34.992  23.032   6.040  0.00  0.00    +0.006 C 
ATOM     22  C   UNL     1     -34.556  25.479   5.819  0.00  0.00    +0.010 C 
ATOM     23  C   UNL     1     -34.480  26.555   5.032  0.00  0.00    +0.082 C 
ATOM     24  C   UNL     1     -34.735  26.481   3.581  0.00  0.00    +0.346 C 
BRANCH  18  25
ATOM     25  O   UNL     1     -35.890  20.534   3.518  0.00  0.00    -0.503 OA
ATOM     26  H   UNL     1     -35.990  19.778   4.062  0.00  0.00    +0.292 HD
ENDBRANCH  18  25
ENDBRANCH  13  16
ENDBRANCH   6  13
BRANCH   5  27
ATOM     27  C   UNL     1     -39.234  25.870   2.602  0.00  0.00    +0.169 C 
BRANCH  27  28
ATOM     28  O   UNL     1     -38.118  26.281   3.370  0.00  0.00    -0.379 OA
ATOM     29  H   UNL     1     -38.083  27.249   3.398  0.00  0.00    +0.211 HD
ENDBRANCH  27  28
ENDBRANCH   5  27
TORSDOF 8
ENDMDL
MODEL 4
REMARK VINA RESULT:      -6.0      2.872      6.516
REMARK  Name = 5316301
REMARK  8 active torsions:
REMARK  status: ('A' for Active; 'I' for Inactive)
REMARK    1  A    between atoms: C_2  and  O_7
REMARK    2  A    between atoms: C_3  and  O_9
REMARK    3  A    between atoms: C_4  and  O_11
REMARK    4  A    between atoms: C_5  and  C_27
REMARK    5  A    between atoms: C_6  and  O_13
REMARK    6  A    between atoms: O_13  and  C_16
REMARK    7  A    between atoms: C_18  and  O_25
REMARK    8  A    between atoms: C_27  and  O_28
REMARK                            x       y       z     vdW  Elec       q    Type
REMARK                         _______ _______ _______ _____ _____    ______ ____
ROOT
ATOM      1  O   UNL     1     -36.949  23.615   2.865  0.00  0.00    -0.316 OA
ATOM      2  C   UNL     1     -35.316  21.835   4.418  0.00  0.00    +0.173 C 
ATOM      3  C   UNL     1     -36.412  21.333   3.477  0.00  0.00    +0.169 C 
ATOM      4  C   UNL     1     -35.565  23.286   4.832  0.00  0.00    +0.210 C 
ATOM      5  C   UNL     1     -36.643  22.324   2.335  0.00  0.00    +0.177 C 
ATOM      6  C   UNL     1     -35.872  24.165   3.620  0.00  0.00    +0.318 C 
ENDROOT
BRANCH   2   7
ATOM      7  O   UNL     1     -35.314  21.002   5.578  0.00  0.00    -0.379 OA
ATOM      8  H   UNL     1     -34.424  20.987   5.964  0.00  0.00    +0.211 HD
ENDBRANCH   2   7
BRANCH   3   9
ATOM      9  O   UNL     1     -36.027  20.071   2.937  0.00  0.00    -0.379 OA
ATOM     10  H   UNL     1     -35.151  19.829   3.273  0.00  0.00    +0.211 HD
ENDBRANCH   3   9
BRANCH   4  11
ATOM     11  O   UNL     1     -34.398  23.801   5.474  0.00  0.00    -0.377 OA
ATOM     12  H   UNL     1     -33.612  23.544   4.970  0.00  0.00    +0.211 HD
ENDBRANCH   4  11
BRANCH   6  13
ATOM     13  O   UNL     1     -36.231  25.461   4.098  0.00  0.00    -0.444 OA
BRANCH  13  16
ATOM     14  O   UNL     1     -33.994  26.745   5.033  0.00  0.00    -0.418 OA
ATOM     15  O   UNL     1     -32.321  26.970   6.579  0.00  0.00    -0.244 OA
ATOM     16  C   UNL     1     -35.737  26.529   3.399  0.00  0.00    +0.209 C 
ATOM     17  C   UNL     1     -34.605  27.200   3.846  0.00  0.00    +0.185 C 
ATOM     18  C   UNL     1     -36.365  26.950   2.233  0.00  0.00    +0.171 C 
ATOM     19  C   UNL     1     -34.083  28.288   3.151  0.00  0.00    +0.038 C 
ATOM     20  C   UNL     1     -35.856  28.039   1.524  0.00  0.00    +0.040 C 
ATOM     21  C   UNL     1     -34.716  28.708   1.981  0.00  0.00    +0.006 C 
ATOM     22  C   UNL     1     -32.897  28.946   3.672  0.00  0.00    +0.010 C 
ATOM     23  C   UNL     1     -32.323  28.509   4.795  0.00  0.00    +0.082 C 
ATOM     24  C   UNL     1     -32.858  27.359   5.548  0.00  0.00    +0.346 C 
BRANCH  18  25
ATOM     25  O   UNL     1     -37.476  26.312   1.770  0.00  0.00    -0.503 OA
ATOM     26  H   UNL     1     -38.320  26.708   1.870  0.00  0.00    +0.292 HD
ENDBRANCH  18  25
ENDBRANCH  13  16
ENDBRANCH   6  13
BRANCH   5  27
ATOM     27  C   UNL     1     -37.812  21.902   1.450  0.00  0.00    +0.169 C 
BRANCH  27  28
ATOM     28  O   UNL     1     -38.643  21.025   2.187  0.00  0.00    -0.379 OA
ATOM     29  H   UNL     1     -39.556  21.355   2.172  0.00  0.00    +0.211 HD
ENDBRANCH  27  28
ENDBRANCH   5  27
TORSDOF 8
ENDMDL
MODEL 5
REMARK VINA RESULT:      -6.0      4.168      6.265
REMARK  Name = 5316301
REMARK  8 active torsions:
REMARK  status: ('A' for Active; 'I' for Inactive)
REMARK    1  A    between atoms: C_2  and  O_7
REMARK    2  A    between atoms: C_3  and  O_9
REMARK    3  A    between atoms: C_4  and  O_11
REMARK    4  A    between atoms: C_5  and  C_27
REMARK    5  A    between atoms: C_6  and  O_13
REMARK    6  A    between atoms: O_13  and  C_16
REMARK    7  A    between atoms: C_18  and  O_25
REMARK    8  A    between atoms: C_27  and  O_28
REMARK                            x       y       z     vdW  Elec       q    Type
REMARK                         _______ _______ _______ _____ _____    ______ ____
ROOT
ATOM      1  O   UNL     1     -35.441  22.466   3.657  0.00  0.00    -0.316 OA
ATOM      2  C   UNL     1     -35.939  25.291   3.516  0.00  0.00    +0.173 C 
ATOM      3  C   UNL     1     -36.114  24.491   4.807  0.00  0.00    +0.169 C 
ATOM      4  C   UNL     1     -36.025  24.384   2.288  0.00  0.00    +0.210 C 
ATOM      5  C   UNL     1     -35.196  23.266   4.815  0.00  0.00    +0.177 C 
ATOM      6  C   UNL     1     -35.135  23.150   2.444  0.00  0.00    +0.318 C 
ENDROOT
BRANCH   2   7
ATOM      7  O   UNL     1     -36.979  26.269   3.458  0.00  0.00    -0.379 OA
ATOM      8  H   UNL     1     -37.836  25.838   3.609  0.00  0.00    +0.211 HD
ENDBRANCH   2   7
BRANCH   3   9
ATOM      9  O   UNL     1     -35.801  25.322   5.922  0.00  0.00    -0.379 OA
ATOM     10  H   UNL     1     -36.482  25.219   6.604  0.00  0.00    +0.211 HD
ENDBRANCH   3   9
BRANCH   4  11
ATOM     11  O   UNL     1     -35.588  25.106   1.135  0.00  0.00    -0.377 OA
ATOM     12  H   UNL     1     -35.631  26.057   1.315  0.00  0.00    +0.211 HD
ENDBRANCH   4  11
BRANCH   6  13
ATOM     13  O   UNL     1     -35.378  22.290   1.331  0.00  0.00    -0.444 OA
BRANCH  13  16
ATOM     14  O   UNL     1     -33.151  22.846  -0.172  0.00  0.00    -0.418 OA
ATOM     15  O   UNL     1     -31.886  24.305  -1.402  0.00  0.00    -0.244 OA
ATOM     16  C   UNL     1     -34.460  21.300   1.113  0.00  0.00    +0.209 C 
ATOM     17  C   UNL     1     -33.321  21.549   0.357  0.00  0.00    +0.185 C 
ATOM     18  C   UNL     1     -34.659  20.034   1.650  0.00  0.00    +0.171 C 
ATOM     19  C   UNL     1     -32.371  20.559   0.122  0.00  0.00    +0.038 C 
ATOM     20  C   UNL     1     -33.717  19.027   1.425  0.00  0.00    +0.040 C 
ATOM     21  C   UNL     1     -32.575  19.287   0.663  0.00  0.00    +0.006 C 
ATOM     22  C   UNL     1     -31.203  20.884  -0.678  0.00  0.00    +0.010 C 
ATOM     23  C   UNL     1     -31.049  22.114  -1.174  0.00  0.00    +0.082 C 
ATOM     24  C   UNL     1     -32.041  23.181  -0.939  0.00  0.00    +0.346 C 
BRANCH  18  25
ATOM     25  O   UNL     1     -35.765  19.758   2.396  0.00  0.00    -0.503 OA
ATOM     26  H   UNL     1     -35.702  19.718   3.330  0.00  0.00    +0.292 HD
ENDBRANCH  18  25
ENDBRANCH  13  16
ENDBRANCH   6  13
BRANCH   5  27
ATOM     27  C   UNL     1     -35.437  22.389   6.040  0.00  0.00    +0.169 C 
BRANCH  27  28
ATOM     28  O   UNL     1     -35.342  21.032   5.648  0.00  0.00    -0.379 OA
ATOM     29  H   UNL     1     -36.170  20.575   5.861  0.00  0.00    +0.211 HD
ENDBRANCH  27  28
ENDBRANCH   5  27
TORSDOF 8
ENDMDL
MODEL 6
REMARK VINA RESULT:      -6.0      1.625      6.182
REMARK  Name = 5316301
REMARK  8 active torsions:
REMARK  status: ('A' for Active; 'I' for Inactive)
REMARK    1  A    between atoms: C_2  and  O_7
REMARK    2  A    between atoms: C_3  and  O_9
REMARK    3  A    between atoms: C_4  and  O_11
REMARK    4  A    between atoms: C_5  and  C_27
REMARK    5  A    between atoms: C_6  and  O_13
REMARK    6  A    between atoms: O_13  and  C_16
REMARK    7  A    between atoms: C_18  and  O_25
REMARK    8  A    between atoms: C_27  and  O_28
REMARK                            x       y       z     vdW  Elec       q    Type
REMARK                         _______ _______ _______ _____ _____    ______ ____
ROOT
ATOM      1  O   UNL     1     -38.854  23.429   1.161  0.00  0.00    -0.316 OA
ATOM      2  C   UNL     1     -40.415  25.675   2.039  0.00  0.00    +0.173 C 
ATOM      3  C   UNL     1     -40.925  24.678   0.998  0.00  0.00    +0.169 C 
ATOM      4  C   UNL     1     -38.888  25.661   2.115  0.00  0.00    +0.210 C 
ATOM      5  C   UNL     1     -40.277  23.306   1.197  0.00  0.00    +0.177 C 
ATOM      6  C   UNL     1     -38.348  24.235   2.222  0.00  0.00    +0.318 C 
ENDROOT
BRANCH   2   7
ATOM      7  O   UNL     1     -40.861  26.977   1.660  0.00  0.00    -0.379 OA
ATOM      8  H   UNL     1     -40.142  27.616   1.790  0.00  0.00    +0.211 HD
ENDBRANCH   2   7
BRANCH   3   9
ATOM      9  O   UNL     1     -42.340  24.553   1.119  0.00  0.00    -0.379 OA
ATOM     10  H   UNL     1     -42.564  23.645   1.374  0.00  0.00    +0.211 HD
ENDBRANCH   3   9
BRANCH   4  11
ATOM     11  O   UNL     1     -38.465  26.387   3.270  0.00  0.00    -0.377 OA
ATOM     12  H   UNL     1     -38.524  25.816   4.050  0.00  0.00    +0.211 HD
ENDBRANCH   4  11
BRANCH   6  13
ATOM     13  O   UNL     1     -36.924  24.297   2.144  0.00  0.00    -0.444 OA
BRANCH  13  16
ATOM     14  O   UNL     1     -35.396  26.159   3.456  0.00  0.00    -0.418 OA
ATOM     15  O   UNL     1     -34.585  28.290   3.661  0.00  0.00    -0.244 OA
ATOM     16  C   UNL     1     -36.234  23.920   3.263  0.00  0.00    +0.209 C 
ATOM     17  C   UNL     1     -35.451  24.839   3.951  0.00  0.00    +0.185 C 
ATOM     18  C   UNL     1     -36.311  22.611   3.722  0.00  0.00    +0.171 C 
ATOM     19  C   UNL     1     -34.740  24.480   5.093  0.00  0.00    +0.038 C 
ATOM     20  C   UNL     1     -35.605  22.232   4.866  0.00  0.00    +0.040 C 
ATOM     21  C   UNL     1     -34.820  23.164   5.551  0.00  0.00    +0.006 C 
ATOM     22  C   UNL     1     -33.940  25.489   5.765  0.00  0.00    +0.010 C 
ATOM     23  C   UNL     1     -33.894  26.737   5.291  0.00  0.00    +0.082 C 
ATOM     24  C   UNL     1     -34.638  27.141   4.084  0.00  0.00    +0.346 C 
BRANCH  18  25
ATOM     25  O   UNL     1     -37.070  21.686   3.070  0.00  0.00    -0.503 OA
ATOM     26  H   UNL     1     -36.760  20.807   2.976  0.00  0.00    +0.292 HD
ENDBRANCH  18  25
ENDBRANCH  13  16
ENDBRANCH   6  13
BRANCH   5  27
ATOM     27  C   UNL     1     -40.681  22.326   0.099  0.00  0.00    +0.169 C 
BRANCH  27  28
ATOM     28  O   UNL     1     -40.816  21.038   0.670  0.00  0.00    -0.379 OA
ATOM     29  H   UNL     1     -40.878  20.376  -0.036  0.00  0.00    +0.211 HD
ENDBRANCH  27  28
ENDBRANCH   5  27
TORSDOF 8
ENDMDL
MODEL 7
REMARK VINA RESULT:      -6.0      1.679      6.555
REMARK  Name = 5316301
REMARK  8 active torsions:
REMARK  status: ('A' for Active; 'I' for Inactive)
REMARK    1  A    between atoms: C_2  and  O_7
REMARK    2  A    between atoms: C_3  and  O_9
REMARK    3  A    between atoms: C_4  and  O_11
REMARK    4  A    between atoms: C_5  and  C_27
REMARK    5  A    between atoms: C_6  and  O_13
REMARK    6  A    between atoms: O_13  and  C_16
REMARK    7  A    between atoms: C_18  and  O_25
REMARK    8  A    between atoms: C_27  and  O_28
REMARK                            x       y       z     vdW  Elec       q    Type
REMARK                         _______ _______ _______ _____ _____    ______ ____
ROOT
ATOM      1  O   UNL     1     -38.221  23.454   1.774  0.00  0.00    -0.316 OA
ATOM      2  C   UNL     1     -40.029  25.458   0.790  0.00  0.00    +0.173 C 
ATOM      3  C   UNL     1     -40.295  23.961   0.626  0.00  0.00    +0.169 C 
ATOM      4  C   UNL     1     -38.540  25.734   1.003  0.00  0.00    +0.210 C 
ATOM      5  C   UNL     1     -39.620  23.164   1.745  0.00  0.00    +0.177 C 
ATOM      6  C   UNL     1     -37.953  24.821   2.079  0.00  0.00    +0.318 C 
ENDROOT
BRANCH   2   7
ATOM      7  O   UNL     1     -40.471  26.117  -0.397  0.00  0.00    -0.379 OA
ATOM      8  H   UNL     1     -39.800  26.015  -1.092  0.00  0.00    +0.211 HD
ENDBRANCH   2   7
BRANCH   3   9
ATOM      9  O   UNL     1     -41.700  23.726   0.662  0.00  0.00    -0.379 OA
ATOM     10  H   UNL     1     -41.983  23.594   1.580  0.00  0.00    +0.211 HD
ENDBRANCH   3   9
BRANCH   4  11
ATOM     11  O   UNL     1     -38.366  27.089   1.422  0.00  0.00    -0.377 OA
ATOM     12  H   UNL     1     -37.533  27.171   1.910  0.00  0.00    +0.211 HD
ENDBRANCH   4  11
BRANCH   6  13
ATOM     13  O   UNL     1     -36.542  25.039   2.117  0.00  0.00    -0.444 OA
BRANCH  13  16
ATOM     14  O   UNL     1     -35.917  22.638   3.287  0.00  0.00    -0.418 OA
ATOM     15  O   UNL     1     -35.869  20.349   3.244  0.00  0.00    -0.244 OA
ATOM     16  C   UNL     1     -35.957  25.035   3.353  0.00  0.00    +0.209 C 
ATOM     17  C   UNL     1     -35.627  23.835   3.973  0.00  0.00    +0.185 C 
ATOM     18  C   UNL     1     -35.685  26.234   4.000  0.00  0.00    +0.171 C 
ATOM     19  C   UNL     1     -35.029  23.805   5.230  0.00  0.00    +0.038 C 
ATOM     20  C   UNL     1     -35.086  26.223   5.262  0.00  0.00    +0.040 C 
ATOM     21  C   UNL     1     -34.758  25.012   5.877  0.00  0.00    +0.006 C 
ATOM     22  C   UNL     1     -34.710  22.517   5.822  0.00  0.00    +0.010 C 
ATOM     23  C   UNL     1     -34.987  21.388   5.166  0.00  0.00    +0.082 C 
ATOM     24  C   UNL     1     -35.620  21.394   3.834  0.00  0.00    +0.346 C 
BRANCH  18  25
ATOM     25  O   UNL     1     -35.996  27.427   3.419  0.00  0.00    -0.503 OA
ATOM     26  H   UNL     1     -36.136  28.185   3.951  0.00  0.00    +0.292 HD
ENDBRANCH  18  25
ENDBRANCH  13  16
ENDBRANCH   6  13
BRANCH   5  27
ATOM     27  C   UNL     1     -39.772  21.660   1.538  0.00  0.00    +0.169 C 
BRANCH  27  28
ATOM     28  O   UNL     1     -38.746  21.000   2.254  0.00  0.00    -0.379 OA
ATOM     29  H   UNL     1     -38.490  20.192   1.782  0.00  0.00    +0.211 HD
ENDBRANCH  27  28
ENDBRANCH   5  27
TORSDOF 8
ENDMDL
MODEL 8
REMARK VINA RESULT:      -6.0      1.520      1.827
REMARK  Name = 5316301
REMARK  8 active torsions:
REMARK  status: ('A' for Active; 'I' for Inactive)
REMARK    1  A    between atoms: C_2  and  O_7
REMARK    2  A    between atoms: C_3  and  O_9
REMARK    3  A    between atoms: C_4  and  O_11
REMARK    4  A    between atoms: C_5  and  C_27
REMARK    5  A    between atoms: C_6  and  O_13
REMARK    6  A    between atoms: O_13  and  C_16
REMARK    7  A    between atoms: C_18  and  O_25
REMARK    8  A    between atoms: C_27  and  O_28
REMARK                            x       y       z     vdW  Elec       q    Type
REMARK                         _______ _______ _______ _____ _____    ______ ____
ROOT
ATOM      1  O   UNL     1     -36.623  22.679   4.410  0.00  0.00    -0.316 OA
ATOM      2  C   UNL     1     -36.150  25.510   4.514  0.00  0.00    +0.173 C 
ATOM      3  C   UNL     1     -35.534  24.537   5.521  0.00  0.00    +0.169 C 
ATOM      4  C   UNL     1     -37.398  24.913   3.863  0.00  0.00    +0.210 C 
ATOM      5  C   UNL     1     -35.366  23.148   4.901  0.00  0.00    +0.177 C 
ATOM      6  C   UNL     1     -37.138  23.493   3.359  0.00  0.00    +0.318 C 
ENDROOT
BRANCH   2   7
ATOM      7  O   UNL     1     -36.503  26.704   5.214  0.00  0.00    -0.379 OA
ATOM      8  H   UNL     1     -37.459  26.708   5.383  0.00  0.00    +0.211 HD
ENDBRANCH   2   7
BRANCH   3   9
ATOM      9  O   UNL     1     -34.260  25.028   5.931  0.00  0.00    -0.379 OA
ATOM     10  H   UNL     1     -34.352  25.939   6.250  0.00  0.00    +0.211 HD
ENDBRANCH   3   9
BRANCH   4  11
ATOM     11  O   UNL     1     -37.781  25.720   2.748  0.00  0.00    -0.377 OA
ATOM     12  H   UNL     1     -38.406  25.229   2.194  0.00  0.00    +0.211 HD
ENDBRANCH   4  11
BRANCH   6  13
ATOM     13  O   UNL     1     -38.378  22.957   2.898  0.00  0.00    -0.444 OA
BRANCH  13  16
ATOM     14  O   UNL     1     -39.391  24.402   0.798  0.00  0.00    -0.418 OA
ATOM     15  O   UNL     1     -40.359  26.302  -0.036  0.00  0.00    -0.244 OA
ATOM     16  C   UNL     1     -38.377  22.402   1.648  0.00  0.00    +0.209 C 
ATOM     17  C   UNL     1     -38.882  23.108   0.563  0.00  0.00    +0.185 C 
ATOM     18  C   UNL     1     -37.866  21.124   1.453  0.00  0.00    +0.171 C 
ATOM     19  C   UNL     1     -38.890  22.566  -0.719  0.00  0.00    +0.038 C 
ATOM     20  C   UNL     1     -37.867  20.563   0.174  0.00  0.00    +0.040 C 
ATOM     21  C   UNL     1     -38.377  21.281  -0.911  0.00  0.00    +0.006 C 
ATOM     22  C   UNL     1     -39.433  23.356  -1.811  0.00  0.00    +0.010 C 
ATOM     23  C   UNL     1     -39.912  24.581  -1.580  0.00  0.00    +0.082 C 
ATOM     24  C   UNL     1     -39.914  25.177  -0.231  0.00  0.00    +0.346 C 
BRANCH  18  25
ATOM     25  O   UNL     1     -37.364  20.407   2.497  0.00  0.00    -0.503 OA
ATOM     26  H   UNL     1     -37.250  19.480   2.417  0.00  0.00    +0.292 HD
ENDBRANCH  18  25
ENDBRANCH  13  16
ENDBRANCH   6  13
BRANCH   5  27
ATOM     27  C   UNL     1     -34.862  22.132   5.921  0.00  0.00    +0.169 C 
BRANCH  27  28
ATOM     28  O   UNL     1     -35.320  20.847   5.542  0.00  0.00    -0.379 OA
ATOM     29  H   UNL     1     -35.632  20.370   6.327  0.00  0.00    +0.211 HD
ENDBRANCH  27  28
ENDBRANCH   5  27
TORSDOF 8
ENDMDL
MODEL 9
REMARK VINA RESULT:      -5.9      2.028      6.425
REMARK  Name = 5316301
REMARK  8 active torsions:
REMARK  status: ('A' for Active; 'I' for Inactive)
REMARK    1  A    between atoms: C_2  and  O_7
REMARK    2  A    between atoms: C_3  and  O_9
REMARK    3  A    between atoms: C_4  and  O_11
REMARK    4  A    between atoms: C_5  and  C_27
REMARK    5  A    between atoms: C_6  and  O_13
REMARK    6  A    between atoms: O_13  and  C_16
REMARK    7  A    between atoms: C_18  and  O_25
REMARK    8  A    between atoms: C_27  and  O_28
REMARK                            x       y       z     vdW  Elec       q    Type
REMARK                         _______ _______ _______ _____ _____    ______ ____
ROOT
ATOM      1  O   UNL     1     -39.185  23.892   1.086  0.00  0.00    -0.316 OA
ATOM      2  C   UNL     1     -41.219  25.660   2.080  0.00  0.00    +0.173 C 
ATOM      3  C   UNL     1     -41.443  24.747   0.873  0.00  0.00    +0.169 C 
ATOM      4  C   UNL     1     -39.729  25.918   2.309  0.00  0.00    +0.210 C 
ATOM      5  C   UNL     1     -40.554  23.504   0.961  0.00  0.00    +0.177 C 
ATOM      6  C   UNL     1     -38.929  24.615   2.288  0.00  0.00    +0.318 C 
ENDROOT
BRANCH   2   7
ATOM      7  O   UNL     1     -41.883  26.899   1.826  0.00  0.00    -0.379 OA
ATOM      8  H   UNL     1     -41.464  27.341   1.070  0.00  0.00    +0.211 HD
ENDBRANCH   2   7
BRANCH   3   9
ATOM      9  O   UNL     1     -42.810  24.348   0.833  0.00  0.00    -0.379 OA
ATOM     10  H   UNL     1     -43.126  24.185   1.735  0.00  0.00    +0.211 HD
ENDBRANCH   3   9
BRANCH   4  11
ATOM     11  O   UNL     1     -39.546  26.535   3.584  0.00  0.00    -0.377 OA
ATOM     12  H   UNL     1     -40.099  26.087   4.241  0.00  0.00    +0.211 HD
ENDBRANCH   4  11
BRANCH   6  13
ATOM     13  O   UNL     1     -37.544  24.950   2.364  0.00  0.00    -0.444 OA
BRANCH  13  16
ATOM     14  O   UNL     1     -36.622  22.431   1.790  0.00  0.00    -0.418 OA
ATOM     15  O   UNL     1     -36.434  20.650   0.363  0.00  0.00    -0.244 OA
ATOM     16  C   UNL     1     -36.805  24.283   3.302  0.00  0.00    +0.209 C 
ATOM     17  C   UNL     1     -36.323  23.006   3.043  0.00  0.00    +0.185 C 
ATOM     18  C   UNL     1     -36.528  24.881   4.526  0.00  0.00    +0.171 C 
ATOM     19  C   UNL     1     -35.567  22.308   3.981  0.00  0.00    +0.038 C 
ATOM     20  C   UNL     1     -35.773  24.196   5.480  0.00  0.00    +0.040 C 
ATOM     21  C   UNL     1     -35.292  22.912   5.209  0.00  0.00    +0.006 C 
ATOM     22  C   UNL     1     -35.093  20.976   3.647  0.00  0.00    +0.010 C 
ATOM     23  C   UNL     1     -35.380  20.438   2.459  0.00  0.00    +0.082 C 
ATOM     24  C   UNL     1     -36.178  21.158   1.448  0.00  0.00    +0.346 C 
BRANCH  18  25
ATOM     25  O   UNL     1     -36.987  26.132   4.811  0.00  0.00    -0.503 OA
ATOM     26  H   UNL     1     -37.457  26.618   4.162  0.00  0.00    +0.292 HD
ENDBRANCH  18  25
ENDBRANCH  13  16
ENDBRANCH   6  13
BRANCH   5  27
ATOM     27  C   UNL     1     -40.673  22.637  -0.288  0.00  0.00    +0.169 C 
BRANCH  27  28
ATOM     28  O   UNL     1     -41.747  21.732  -0.109  0.00  0.00    -0.379 OA
ATOM     29  H   UNL     1     -41.503  21.067   0.553  0.00  0.00    +0.211 HD
ENDBRANCH  27  28
ENDBRANCH   5  27
TORSDOF 8
ENDMDL
