MODEL 1
REMARK VINA RESULT:      -5.5      0.000      0.000
REMARK  Name = 6070438
REMARK  5 active torsions:
REMARK  status: ('A' for Active; 'I' for Inactive)
REMARK    1  A    between atoms: C_1  and  C_7
REMARK    2  A    between atoms: C_2  and  O_13
REMARK    3  A    between atoms: C_8  and  C_10
REMARK    4  A    between atoms: C_10  and  O_11
REMARK    5  A    between atoms: O_13  and  S_14
REMARK                            x       y       z     vdW  Elec       q    Type
REMARK                         _______ _______ _______ _____ _____    ______ ____
ROOT
ATOM      1  C   UNL     1     -35.119  23.454   3.809  0.00  0.00    +0.000 C 
ATOM      2  C   UNL     1     -34.445  26.058   4.549  0.00  0.00    +0.176 C 
ATOM      3  C   UNL     1     -35.076  23.807   5.157  0.00  0.00    +0.003 C 
ATOM      4  C   UNL     1     -34.824  24.404   2.829  0.00  0.00    +0.003 C 
ATOM      5  C   UNL     1     -34.739  25.109   5.527  0.00  0.00    +0.040 C 
ATOM      6  C   UNL     1     -34.487  25.705   3.200  0.00  0.00    +0.040 C 
ENDROOT
BRANCH   1   7
ATOM      7  C   UNL     1     -35.470  22.096   3.423  0.00  0.00    +0.007 C 
ATOM      8  C   UNL     1     -35.355  21.584   2.178  0.00  0.00    +0.082 C 
BRANCH   8  10
ATOM      9  O   UNL     1     -35.231  19.434   1.098  0.00  0.00    -0.245 OA
ATOM     10  C   UNL     1     -35.738  20.182   1.915  0.00  0.00    +0.338 C 
BRANCH  10  11
ATOM     11  O   UNL     1     -36.759  19.850   2.740  0.00  0.00    -0.477 OA
ATOM     12  H   UNL     1     -36.754  19.025   3.184  0.00  0.00    +0.295 HD
ENDBRANCH  10  11
ENDBRANCH   8  10
ENDBRANCH   1   7
BRANCH   2  13
ATOM     13  O   UNL     1     -34.114  27.328   4.910  0.00  0.00    -0.322 OA
BRANCH  13  14
ATOM     14  S   UNL     1     -32.547  27.669   5.279  0.00  0.00    +0.282 S 
ATOM     15  O   UNL     1     -32.535  29.290   5.468  0.00  0.00    -0.012 OA
ATOM     16  O   UNL     1     -32.224  27.067   6.559  0.00  0.00    -0.105 OA
ATOM     17  O   UNL     1     -31.743  27.362   4.111  0.00  0.00    -0.105 OA
ENDBRANCH  13  14
ENDBRANCH   2  13
TORSDOF 5
ENDMDL
MODEL 2
REMARK VINA RESULT:      -5.5      2.834      6.953
REMARK  Name = 6070438
REMARK  5 active torsions:
REMARK  status: ('A' for Active; 'I' for Inactive)
REMARK    1  A    between atoms: C_1  and  C_7
REMARK    2  A    between atoms: C_2  and  O_13
REMARK    3  A    between atoms: C_8  and  C_10
REMARK    4  A    between atoms: C_10  and  O_11
REMARK    5  A    between atoms: O_13  and  S_14
REMARK                            x       y       z     vdW  Elec       q    Type
REMARK                         _______ _______ _______ _____ _____    ______ ____
ROOT
ATOM      1  C   UNL     1     -34.672  25.470   5.487  0.00  0.00    +0.000 C 
ATOM      2  C   UNL     1     -36.469  23.740   4.236  0.00  0.00    +0.176 C 
ATOM      3  C   UNL     1     -35.927  25.933   5.093  0.00  0.00    +0.003 C 
ATOM      4  C   UNL     1     -34.315  24.141   5.254  0.00  0.00    +0.003 C 
ATOM      5  C   UNL     1     -36.826  25.068   4.468  0.00  0.00    +0.040 C 
ATOM      6  C   UNL     1     -35.213  23.277   4.630  0.00  0.00    +0.040 C 
ENDROOT
BRANCH   1   7
ATOM      7  C   UNL     1     -33.735  26.372   6.138  0.00  0.00    +0.007 C 
ATOM      8  C   UNL     1     -32.944  27.266   5.506  0.00  0.00    +0.082 C 
BRANCH   8  10
ATOM      9  O   UNL     1     -32.147  29.339   6.442  0.00  0.00    -0.245 OA
ATOM     10  C   UNL     1     -32.038  28.134   6.286  0.00  0.00    +0.338 C 
BRANCH  10  11
ATOM     11  O   UNL     1     -31.051  27.371   6.810  0.00  0.00    -0.477 OA
ATOM     12  H   UNL     1     -31.257  26.694   7.424  0.00  0.00    +0.295 HD
ENDBRANCH  10  11
ENDBRANCH   8  10
ENDBRANCH   1   7
BRANCH   2  13
ATOM     13  O   UNL     1     -37.344  22.897   3.625  0.00  0.00    -0.322 OA
BRANCH  13  14
ATOM     14  S   UNL     1     -36.987  22.329   2.123  0.00  0.00    +0.282 S 
ATOM     15  O   UNL     1     -38.445  21.968   1.485  0.00  0.00    -0.012 OA
ATOM     16  O   UNL     1     -36.410  23.405   1.338  0.00  0.00    -0.105 OA
ATOM     17  O   UNL     1     -36.263  21.082   2.284  0.00  0.00    -0.105 OA
ENDBRANCH  13  14
ENDBRANCH   2  13
TORSDOF 5
ENDMDL
MODEL 3
REMARK VINA RESULT:      -5.4      2.754      3.702
REMARK  Name = 6070438
REMARK  5 active torsions:
REMARK  status: ('A' for Active; 'I' for Inactive)
REMARK    1  A    between atoms: C_1  and  C_7
REMARK    2  A    between atoms: C_2  and  O_13
REMARK    3  A    between atoms: C_8  and  C_10
REMARK    4  A    between atoms: C_10  and  O_11
REMARK    5  A    between atoms: O_13  and  S_14
REMARK                            x       y       z     vdW  Elec       q    Type
REMARK                         _______ _______ _______ _____ _____    ______ ____
ROOT
ATOM      1  C   UNL     1     -33.952  26.139   5.549  0.00  0.00    +0.000 C 
ATOM      2  C   UNL     1     -32.110  28.217   5.273  0.00  0.00    +0.176 C 
ATOM      3  C   UNL     1     -33.288  26.636   6.670  0.00  0.00    +0.003 C 
ATOM      4  C   UNL     1     -33.694  26.681   4.289  0.00  0.00    +0.003 C 
ATOM      5  C   UNL     1     -32.367  27.676   6.532  0.00  0.00    +0.040 C 
ATOM      6  C   UNL     1     -32.773  27.720   4.151  0.00  0.00    +0.040 C 
ENDROOT
BRANCH   1   7
ATOM      7  C   UNL     1     -34.911  25.056   5.692  0.00  0.00    +0.007 C 
ATOM      8  C   UNL     1     -34.711  23.779   5.300  0.00  0.00    +0.082 C 
BRANCH   8  10
ATOM      9  O   UNL     1     -35.922  22.080   6.506  0.00  0.00    -0.245 OA
ATOM     10  C   UNL     1     -35.765  22.766   5.510  0.00  0.00    +0.338 C 
BRANCH  10  11
ATOM     11  O   UNL     1     -36.546  22.716   4.406  0.00  0.00    -0.477 OA
ATOM     12  H   UNL     1     -36.165  22.825   3.557  0.00  0.00    +0.295 HD
ENDBRANCH  10  11
ENDBRANCH   8  10
ENDBRANCH   1   7
BRANCH   2  13
ATOM     13  O   UNL     1     -31.211  29.229   5.139  0.00  0.00    -0.322 OA
BRANCH  13  14
ATOM     14  S   UNL     1     -29.624  28.932   5.453  0.00  0.00    +0.282 S 
ATOM     15  O   UNL     1     -28.832  30.004   4.511  0.00  0.00    -0.012 OA
ATOM     16  O   UNL     1     -29.347  29.265   6.838  0.00  0.00    -0.105 OA
ATOM     17  O   UNL     1     -29.316  27.605   4.952  0.00  0.00    -0.105 OA
ENDBRANCH  13  14
ENDBRANCH   2  13
TORSDOF 5
ENDMDL
MODEL 4
REMARK VINA RESULT:      -5.4      1.959      2.501
REMARK  Name = 6070438
REMARK  5 active torsions:
REMARK  status: ('A' for Active; 'I' for Inactive)
REMARK    1  A    between atoms: C_1  and  C_7
REMARK    2  A    between atoms: C_2  and  O_13
REMARK    3  A    between atoms: C_8  and  C_10
REMARK    4  A    between atoms: C_10  and  O_11
REMARK    5  A    between atoms: O_13  and  S_14
REMARK                            x       y       z     vdW  Elec       q    Type
REMARK                         _______ _______ _______ _____ _____    ______ ____
ROOT
ATOM      1  C   UNL     1     -36.107  24.025   3.991  0.00  0.00    +0.000 C 
ATOM      2  C   UNL     1     -34.373  25.927   5.069  0.00  0.00    +0.176 C 
ATOM      3  C   UNL     1     -34.755  24.010   3.648  0.00  0.00    +0.003 C 
ATOM      4  C   UNL     1     -36.592  24.992   4.873  0.00  0.00    +0.003 C 
ATOM      5  C   UNL     1     -33.888  24.961   4.188  0.00  0.00    +0.040 C 
ATOM      6  C   UNL     1     -35.725  25.942   5.412  0.00  0.00    +0.040 C 
ENDROOT
BRANCH   1   7
ATOM      7  C   UNL     1     -37.011  23.034   3.429  0.00  0.00    +0.007 C 
ATOM      8  C   UNL     1     -38.126  23.309   2.719  0.00  0.00    +0.082 C 
BRANCH   8  10
ATOM      9  O   UNL     1     -40.100  22.300   1.772  0.00  0.00    -0.245 OA
ATOM     10  C   UNL     1     -38.959  22.208   2.192  0.00  0.00    +0.338 C 
BRANCH  10  11
ATOM     11  O   UNL     1     -38.244  21.060   2.246  0.00  0.00    -0.477 OA
ATOM     12  H   UNL     1     -38.579  20.280   1.849  0.00  0.00    +0.295 HD
ENDBRANCH  10  11
ENDBRANCH   8  10
ENDBRANCH   1   7
BRANCH   2  13
ATOM     13  O   UNL     1     -33.528  26.855   5.594  0.00  0.00    -0.322 OA
BRANCH  13  14
ATOM     14  S   UNL     1     -32.840  27.963   4.591  0.00  0.00    +0.282 S 
ATOM     15  O   UNL     1     -32.450  29.199   5.583  0.00  0.00    -0.012 OA
ATOM     16  O   UNL     1     -31.607  27.413   4.057  0.00  0.00    -0.105 OA
ATOM     17  O   UNL     1     -33.870  28.440   3.688  0.00  0.00    -0.105 OA
ENDBRANCH  13  14
ENDBRANCH   2  13
TORSDOF 5
ENDMDL
MODEL 5
REMARK VINA RESULT:      -5.4      2.636      3.745
REMARK  Name = 6070438
REMARK  5 active torsions:
REMARK  status: ('A' for Active; 'I' for Inactive)
REMARK    1  A    between atoms: C_1  and  C_7
REMARK    2  A    between atoms: C_2  and  O_13
REMARK    3  A    between atoms: C_8  and  C_10
REMARK    4  A    between atoms: C_10  and  O_11
REMARK    5  A    between atoms: O_13  and  S_14
REMARK                            x       y       z     vdW  Elec       q    Type
REMARK                         _______ _______ _______ _____ _____    ______ ____
ROOT
ATOM      1  C   UNL     1     -34.044  25.978   5.352  0.00  0.00    +0.000 C 
ATOM      2  C   UNL     1     -32.251  28.081   4.968  0.00  0.00    +0.176 C 
ATOM      3  C   UNL     1     -33.798  26.458   4.067  0.00  0.00    +0.003 C 
ATOM      4  C   UNL     1     -33.394  26.551   6.447  0.00  0.00    +0.003 C 
ATOM      5  C   UNL     1     -32.901  27.510   3.874  0.00  0.00    +0.040 C 
ATOM      6  C   UNL     1     -32.497  27.602   6.254  0.00  0.00    +0.040 C 
ENDROOT
BRANCH   1   7
ATOM      7  C   UNL     1     -34.979  24.883   5.553  0.00  0.00    +0.007 C 
ATOM      8  C   UNL     1     -34.743  23.589   5.246  0.00  0.00    +0.082 C 
BRANCH   8  10
ATOM      9  O   UNL     1     -35.946  21.962   6.555  0.00  0.00    -0.245 OA
ATOM     10  C   UNL     1     -35.774  22.565   5.509  0.00  0.00    +0.338 C 
BRANCH  10  11
ATOM     11  O   UNL     1     -36.514  22.397   4.388  0.00  0.00    -0.477 OA
ATOM     12  H   UNL     1     -37.177  23.020   4.166  0.00  0.00    +0.295 HD
ENDBRANCH  10  11
ENDBRANCH   8  10
ENDBRANCH   1   7
BRANCH   2  13
ATOM     13  O   UNL     1     -31.378  29.108   4.780  0.00  0.00    -0.322 OA
BRANCH  13  14
ATOM     14  S   UNL     1     -31.893  30.649   5.041  0.00  0.00    +0.282 S 
ATOM     15  O   UNL     1     -33.410  30.661   4.440  0.00  0.00    -0.012 OA
ATOM     16  O   UNL     1     -31.977  30.881   6.472  0.00  0.00    -0.105 OA
ATOM     17  O   UNL     1     -31.091  31.528   4.212  0.00  0.00    -0.105 OA
ENDBRANCH  13  14
ENDBRANCH   2  13
TORSDOF 5
ENDMDL
MODEL 6
REMARK VINA RESULT:      -5.4      2.676      3.711
REMARK  Name = 6070438
REMARK  5 active torsions:
REMARK  status: ('A' for Active; 'I' for Inactive)
REMARK    1  A    between atoms: C_1  and  C_7
REMARK    2  A    between atoms: C_2  and  O_13
REMARK    3  A    between atoms: C_8  and  C_10
REMARK    4  A    between atoms: C_10  and  O_11
REMARK    5  A    between atoms: O_13  and  S_14
REMARK                            x       y       z     vdW  Elec       q    Type
REMARK                         _______ _______ _______ _____ _____    ______ ____
ROOT
ATOM      1  C   UNL     1     -33.993  26.049   5.396  0.00  0.00    +0.000 C 
ATOM      2  C   UNL     1     -32.185  28.138   5.005  0.00  0.00    +0.176 C 
ATOM      3  C   UNL     1     -33.330  26.611   6.486  0.00  0.00    +0.003 C 
ATOM      4  C   UNL     1     -33.752  26.532   4.109  0.00  0.00    +0.003 C 
ATOM      5  C   UNL     1     -32.426  27.656   6.291  0.00  0.00    +0.040 C 
ATOM      6  C   UNL     1     -32.848  27.576   3.914  0.00  0.00    +0.040 C 
ENDROOT
BRANCH   1   7
ATOM      7  C   UNL     1     -34.935  24.960   5.599  0.00  0.00    +0.007 C 
ATOM      8  C   UNL     1     -34.739  23.678   5.223  0.00  0.00    +0.082 C 
BRANCH   8  10
ATOM      9  O   UNL     1     -35.941  22.061   6.546  0.00  0.00    -0.245 OA
ATOM     10  C   UNL     1     -35.774  22.659   5.496  0.00  0.00    +0.338 C 
BRANCH  10  11
ATOM     11  O   UNL     1     -36.522  22.491   4.381  0.00  0.00    -0.477 OA
ATOM     12  H   UNL     1     -36.697  21.629   4.059  0.00  0.00    +0.295 HD
ENDBRANCH  10  11
ENDBRANCH   8  10
ENDBRANCH   1   7
BRANCH   2  13
ATOM     13  O   UNL     1     -31.303  29.155   4.814  0.00  0.00    -0.322 OA
BRANCH  13  14
ATOM     14  S   UNL     1     -31.881  30.658   4.474  0.00  0.00    +0.282 S 
ATOM     15  O   UNL     1     -31.736  30.775   2.853  0.00  0.00    -0.012 OA
ATOM     16  O   UNL     1     -33.294  30.704   4.800  0.00  0.00    -0.105 OA
ATOM     17  O   UNL     1     -30.971  31.624   5.061  0.00  0.00    -0.105 OA
ENDBRANCH  13  14
ENDBRANCH   2  13
TORSDOF 5
ENDMDL
MODEL 7
REMARK VINA RESULT:      -5.3      1.759      2.449
REMARK  Name = 6070438
REMARK  5 active torsions:
REMARK  status: ('A' for Active; 'I' for Inactive)
REMARK    1  A    between atoms: C_1  and  C_7
REMARK    2  A    between atoms: C_2  and  O_13
REMARK    3  A    between atoms: C_8  and  C_10
REMARK    4  A    between atoms: C_10  and  O_11
REMARK    5  A    between atoms: O_13  and  S_14
REMARK                            x       y       z     vdW  Elec       q    Type
REMARK                         _______ _______ _______ _____ _____    ______ ____
ROOT
ATOM      1  C   UNL     1     -35.625  21.661   3.363  0.00  0.00    +0.000 C 
ATOM      2  C   UNL     1     -35.497  23.985   4.902  0.00  0.00    +0.176 C 
ATOM      3  C   UNL     1     -35.242  21.591   4.701  0.00  0.00    +0.003 C 
ATOM      4  C   UNL     1     -35.944  22.895   2.793  0.00  0.00    +0.003 C 
ATOM      5  C   UNL     1     -35.178  22.753   5.472  0.00  0.00    +0.040 C 
ATOM      6  C   UNL     1     -35.880  24.056   3.562  0.00  0.00    +0.040 C 
ENDROOT
BRANCH   1   7
ATOM      7  C   UNL     1     -35.692  20.450   2.560  0.00  0.00    +0.007 C 
ATOM      8  C   UNL     1     -35.924  20.407   1.230  0.00  0.00    +0.082 C 
BRANCH   8  10
ATOM      9  O   UNL     1     -35.085  18.652  -0.193  0.00  0.00    -0.245 OA
ATOM     10  C   UNL     1     -35.958  19.109   0.526  0.00  0.00    +0.338 C 
BRANCH  10  11
ATOM     11  O   UNL     1     -37.130  18.493   0.809  0.00  0.00    -0.477 OA
ATOM     12  H   UNL     1     -37.360  17.699   0.368  0.00  0.00    +0.295 HD
ENDBRANCH  10  11
ENDBRANCH   8  10
ENDBRANCH   1   7
BRANCH   2  13
ATOM     13  O   UNL     1     -35.433  25.118   5.652  0.00  0.00    -0.322 OA
BRANCH  13  14
ATOM     14  S   UNL     1     -34.260  26.225   5.325  0.00  0.00    +0.282 S 
ATOM     15  O   UNL     1     -33.151  25.379   4.477  0.00  0.00    -0.012 OA
ATOM     16  O   UNL     1     -34.806  27.246   4.449  0.00  0.00    -0.105 OA
ATOM     17  O   UNL     1     -33.647  26.603   6.584  0.00  0.00    -0.105 OA
ENDBRANCH  13  14
ENDBRANCH   2  13
TORSDOF 5
ENDMDL
MODEL 8
REMARK VINA RESULT:      -5.3      3.143      6.901
REMARK  Name = 6070438
REMARK  5 active torsions:
REMARK  status: ('A' for Active; 'I' for Inactive)
REMARK    1  A    between atoms: C_1  and  C_7
REMARK    2  A    between atoms: C_2  and  O_13
REMARK    3  A    between atoms: C_8  and  C_10
REMARK    4  A    between atoms: C_10  and  O_11
REMARK    5  A    between atoms: O_13  and  S_14
REMARK                            x       y       z     vdW  Elec       q    Type
REMARK                         _______ _______ _______ _____ _____    ______ ____
ROOT
ATOM      1  C   UNL     1     -34.551  25.583   5.466  0.00  0.00    +0.000 C 
ATOM      2  C   UNL     1     -36.335  23.818   4.247  0.00  0.00    +0.176 C 
ATOM      3  C   UNL     1     -34.083  24.395   4.906  0.00  0.00    +0.003 C 
ATOM      4  C   UNL     1     -35.912  25.889   5.417  0.00  0.00    +0.003 C 
ATOM      5  C   UNL     1     -34.975  23.512   4.296  0.00  0.00    +0.040 C 
ATOM      6  C   UNL     1     -36.803  25.006   4.807  0.00  0.00    +0.040 C 
ENDROOT
BRANCH   1   7
ATOM      7  C   UNL     1     -33.621  26.503   6.102  0.00  0.00    +0.007 C 
ATOM      8  C   UNL     1     -32.830  27.386   5.454  0.00  0.00    +0.082 C 
BRANCH   8  10
ATOM      9  O   UNL     1     -32.089  29.470   6.411  0.00  0.00    -0.245 OA
ATOM     10  C   UNL     1     -31.933  28.276   6.219  0.00  0.00    +0.338 C 
BRANCH  10  11
ATOM     11  O   UNL     1     -30.891  27.547   6.682  0.00  0.00    -0.477 OA
ATOM     12  H   UNL     1     -30.015  27.865   6.583  0.00  0.00    +0.295 HD
ENDBRANCH  10  11
ENDBRANCH   8  10
ENDBRANCH   1   7
BRANCH   2  13
ATOM     13  O   UNL     1     -37.205  22.956   3.654  0.00  0.00    -0.322 OA
BRANCH  13  14
ATOM     14  S   UNL     1     -37.897  23.382   2.223  0.00  0.00    +0.282 S 
ATOM     15  O   UNL     1     -36.868  24.489   1.606  0.00  0.00    -0.012 OA
ATOM     16  O   UNL     1     -37.897  22.231   1.339  0.00  0.00    -0.105 OA
ATOM     17  O   UNL     1     -39.141  24.066   2.521  0.00  0.00    -0.105 OA
ENDBRANCH  13  14
ENDBRANCH   2  13
TORSDOF 5
ENDMDL
MODEL 9
REMARK VINA RESULT:      -5.2      2.581      3.494
REMARK  Name = 6070438
REMARK  5 active torsions:
REMARK  status: ('A' for Active; 'I' for Inactive)
REMARK    1  A    between atoms: C_1  and  C_7
REMARK    2  A    between atoms: C_2  and  O_13
REMARK    3  A    between atoms: C_8  and  C_10
REMARK    4  A    between atoms: C_10  and  O_11
REMARK    5  A    between atoms: O_13  and  S_14
REMARK                            x       y       z     vdW  Elec       q    Type
REMARK                         _______ _______ _______ _____ _____    ______ ____
ROOT
ATOM      1  C   UNL     1     -34.838  20.929   1.883  0.00  0.00    +0.000 C 
ATOM      2  C   UNL     1     -35.417  23.512   2.765  0.00  0.00    +0.176 C 
ATOM      3  C   UNL     1     -35.480  21.121   3.106  0.00  0.00    +0.003 C 
ATOM      4  C   UNL     1     -34.485  22.030   1.101  0.00  0.00    +0.003 C 
ATOM      5  C   UNL     1     -35.770  22.413   3.547  0.00  0.00    +0.040 C 
ATOM      6  C   UNL     1     -34.775  23.321   1.542  0.00  0.00    +0.040 C 
ENDROOT
BRANCH   1   7
ATOM      7  C   UNL     1     -34.536  19.583   1.423  0.00  0.00    +0.007 C 
ATOM      8  C   UNL     1     -33.301  19.042   1.350  0.00  0.00    +0.082 C 
BRANCH   8  10
ATOM      9  O   UNL     1     -32.079  17.032   0.823  0.00  0.00    -0.245 OA
ATOM     10  C   UNL     1     -33.127  17.655   0.872  0.00  0.00    +0.338 C 
BRANCH  10  11
ATOM     11  O   UNL     1     -34.333  17.173   0.491  0.00  0.00    -0.477 OA
ATOM     12  H   UNL     1     -35.089  17.725   0.522  0.00  0.00    +0.295 HD
ENDBRANCH  10  11
ENDBRANCH   8  10
ENDBRANCH   1   7
BRANCH   2  13
ATOM     13  O   UNL     1     -35.698  24.771   3.197  0.00  0.00    -0.322 OA
BRANCH  13  14
ATOM     14  S   UNL     1     -34.934  25.344   4.537  0.00  0.00    +0.282 S 
ATOM     15  O   UNL     1     -34.990  26.965   4.355  0.00  0.00    -0.012 OA
ATOM     16  O   UNL     1     -35.717  24.998   5.709  0.00  0.00    -0.105 OA
ATOM     17  O   UNL     1     -33.541  24.946   4.453  0.00  0.00    -0.105 OA
ENDBRANCH  13  14
ENDBRANCH   2  13
TORSDOF 5
ENDMDL
