MODEL 1
REMARK VINA RESULT:      -6.8      0.000      0.000
REMARK  Name = 193656
REMARK  12 active torsions:
REMARK  status: ('A' for Active; 'I' for Inactive)
REMARK    1  A    between atoms: C_1  and  C_4
REMARK    2  A    between atoms: C_1  and  N_16
REMARK    3  A    between atoms: C_1  and  C_27
REMARK    4  A    between atoms: N_3  and  C_6
REMARK    5  A    between atoms: C_11  and  N_14
REMARK    6  A    between atoms: C_17  and  O_19
REMARK    7  A    between atoms: O_19  and  C_20
REMARK    8  A    between atoms: C_20  and  C_21
REMARK    9  A    between atoms: C_27  and  C_28
REMARK   10  A    between atoms: C_28  and  C_29
REMARK   11  A    between atoms: C_29  and  N_30
REMARK   12  A    between atoms: N_30  and  C_33
REMARK                            x       y       z     vdW  Elec       q    Type
REMARK                         _______ _______ _______ _____ _____    ______ ____
ROOT
ATOM      1  C   UNL     1     -34.658  30.077   2.578  0.00  0.00    +0.151 C 
ENDROOT
BRANCH   1   4
ATOM      2  O   UNL     1     -34.141  27.930   1.606  0.00  0.00    -0.273 OA
ATOM      3  N   UNL     1     -35.158  28.011   3.718  0.00  0.00    -0.283 N 
ATOM      4  C   UNL     1     -34.622  28.547   2.551  0.00  0.00    +0.244 C 
ATOM      5  H   UNL     1     -35.479  28.658   4.387  0.00  0.00    +0.155 HD
BRANCH   3   6
ATOM      6  C   UNL     1     -35.296  26.643   4.057  0.00  0.00    +0.050 C 
ATOM      7  C   UNL     1     -34.237  25.966   4.661  0.00  0.00    +0.016 C 
ATOM      8  C   UNL     1     -36.489  25.974   3.786  0.00  0.00    +0.016 C 
ATOM      9  C   UNL     1     -34.372  24.618   4.995  0.00  0.00    +0.025 C 
ATOM     10  C   UNL     1     -36.625  24.628   4.120  0.00  0.00    +0.025 C 
ATOM     11  C   UNL     1     -35.567  23.949   4.725  0.00  0.00    +0.143 C 
BRANCH  11  14
ATOM     12  O   UNL     1     -36.010  22.271   6.243  0.00  0.00    -0.126 OA
ATOM     13  O   UNL     1     -35.517  21.709   4.178  0.00  0.00    -0.126 OA
ATOM     14  N   UNL     1     -35.704  22.577   5.065  0.00  0.00    +0.058 N 
ENDBRANCH  11  14
ENDBRANCH   3   6
ENDBRANCH   1   4
BRANCH   1  16
ATOM     15  O   UNL     1     -35.631  32.480   1.270  0.00  0.00    -0.226 OA
ATOM     16  N   UNL     1     -36.022  30.516   2.443  0.00  0.00    -0.264 N 
ATOM     17  C   UNL     1     -36.396  31.680   1.800  0.00  0.00    +0.402 C 
ATOM     18  H   UNL     1     -36.731  29.953   2.830  0.00  0.00    +0.153 HD
BRANCH  17  19
ATOM     19  O   UNL     1     -37.755  31.815   1.839  0.00  0.00    -0.430 OA
BRANCH  19  20
ATOM     20  C   UNL     1     -38.333  32.619   0.803  0.00  0.00    +0.237 C 
BRANCH  20  21
ATOM     21  C   UNL     1     -39.162  33.701   1.427  0.00  0.00    +0.021 C 
ATOM     22  C   UNL     1     -40.540  33.737   1.212  0.00  0.00    -0.001 C 
ATOM     23  C   UNL     1     -38.555  34.672   2.224  0.00  0.00    -0.001 C 
ATOM     24  C   UNL     1     -41.311  34.744   1.794  0.00  0.00    -0.000 C 
ATOM     25  C   UNL     1     -39.326  35.679   2.806  0.00  0.00    -0.000 C 
ATOM     26  C   UNL     1     -40.704  35.715   2.590  0.00  0.00    -0.000 C 
ENDBRANCH  20  21
ENDBRANCH  19  20
ENDBRANCH  17  19
ENDBRANCH   1  16
BRANCH   1  27
ATOM     27  C   UNL     1     -33.989  30.666   3.827  0.00  0.00    +0.031 C 
BRANCH  27  28
ATOM     28  C   UNL     1     -32.463  30.781   3.725  0.00  0.00    +0.029 C 
BRANCH  28  29
ATOM     29  C   UNL     1     -31.785  30.237   4.978  0.00  0.00    +0.129 C 
BRANCH  29  30
ATOM     30  N   UNL     1     -32.436  28.984   5.363  0.00  0.00    -0.240 NA
BRANCH  30  33
ATOM     31  N   UNL     1     -30.572  28.354   6.588  0.00  0.00    -0.370 N 
ATOM     32  N   UNL     1     -32.597  27.627   7.338  0.00  0.00    -0.370 N 
ATOM     33  C   UNL     1     -31.930  28.351   6.376  0.00  0.00    +0.189 C 
ATOM     34  H   UNL     1     -29.978  28.837   5.969  0.00  0.00    +0.159 HD
ATOM     35  H   UNL     1     -30.193  27.873   7.359  0.00  0.00    +0.159 HD
ATOM     36  H   UNL     1     -33.578  27.546   7.303  0.00  0.00    +0.159 HD
ATOM     37  H   UNL     1     -32.094  27.191   8.064  0.00  0.00    +0.159 HD
ENDBRANCH  30  33
ENDBRANCH  29  30
ENDBRANCH  28  29
ENDBRANCH  27  28
ENDBRANCH   1  27
TORSDOF 12
ENDMDL
MODEL 2
REMARK VINA RESULT:      -6.6      5.749      9.016
REMARK  Name = 193656
REMARK  12 active torsions:
REMARK  status: ('A' for Active; 'I' for Inactive)
REMARK    1  A    between atoms: C_1  and  C_4
REMARK    2  A    between atoms: C_1  and  N_16
REMARK    3  A    between atoms: C_1  and  C_27
REMARK    4  A    between atoms: N_3  and  C_6
REMARK    5  A    between atoms: C_11  and  N_14
REMARK    6  A    between atoms: C_17  and  O_19
REMARK    7  A    between atoms: O_19  and  C_20
REMARK    8  A    between atoms: C_20  and  C_21
REMARK    9  A    between atoms: C_27  and  C_28
REMARK   10  A    between atoms: C_28  and  C_29
REMARK   11  A    between atoms: C_29  and  N_30
REMARK   12  A    between atoms: N_30  and  C_33
REMARK                            x       y       z     vdW  Elec       q    Type
REMARK                         _______ _______ _______ _____ _____    ______ ____
ROOT
ATOM      1  C   UNL     1     -36.641  22.269   0.307  0.00  0.00    +0.151 C 
ENDROOT
BRANCH   1   4
ATOM      2  O   UNL     1     -36.048  20.211  -0.802  0.00  0.00    -0.273 OA
ATOM      3  N   UNL     1     -34.555  21.142   0.750  0.00  0.00    -0.283 N 
ATOM      4  C   UNL     1     -35.734  21.073   0.013  0.00  0.00    +0.244 C 
ATOM      5  H   UNL     1     -34.458  21.922   1.343  0.00  0.00    +0.155 HD
BRANCH   3   6
ATOM      6  C   UNL     1     -33.479  20.222   0.746  0.00  0.00    +0.050 C 
ATOM      7  C   UNL     1     -33.590  19.016   1.438  0.00  0.00    +0.016 C 
ATOM      8  C   UNL     1     -32.308  20.523   0.050  0.00  0.00    +0.016 C 
ATOM      9  C   UNL     1     -32.530  18.110   1.434  0.00  0.00    +0.025 C 
ATOM     10  C   UNL     1     -31.248  19.617   0.045  0.00  0.00    +0.025 C 
ATOM     11  C   UNL     1     -31.359  18.411   0.737  0.00  0.00    +0.143 C 
BRANCH  11  14
ATOM     12  O   UNL     1     -29.134  17.891   1.052  0.00  0.00    -0.126 OA
ATOM     13  O   UNL     1     -30.500  16.295   0.412  0.00  0.00    -0.126 OA
ATOM     14  N   UNL     1     -30.279  17.488   0.733  0.00  0.00    +0.058 N 
ENDBRANCH  11  14
ENDBRANCH   3   6
ENDBRANCH   1   4
BRANCH   1  16
ATOM     15  O   UNL     1     -38.652  22.190   2.402  0.00  0.00    -0.226 OA
ATOM     16  N   UNL     1     -36.490  22.643   1.689  0.00  0.00    -0.264 N 
ATOM     17  C   UNL     1     -37.507  22.572   2.622  0.00  0.00    +0.402 C 
ATOM     18  H   UNL     1     -35.610  22.968   1.988  0.00  0.00    +0.153 HD
BRANCH  17  19
ATOM     19  O   UNL     1     -37.050  22.994   3.839  0.00  0.00    -0.430 OA
BRANCH  19  20
ATOM     20  C   UNL     1     -35.658  22.774   4.093  0.00  0.00    +0.237 C 
BRANCH  20  21
ATOM     21  C   UNL     1     -34.997  24.092   4.372  0.00  0.00    +0.021 C 
ATOM     22  C   UNL     1     -34.214  24.701   3.391  0.00  0.00    -0.001 C 
ATOM     23  C   UNL     1     -35.167  24.708   5.612  0.00  0.00    -0.001 C 
ATOM     24  C   UNL     1     -33.601  25.927   3.651  0.00  0.00    -0.000 C 
ATOM     25  C   UNL     1     -34.553  25.934   5.872  0.00  0.00    -0.000 C 
ATOM     26  C   UNL     1     -33.770  26.543   4.892  0.00  0.00    -0.000 C 
ENDBRANCH  20  21
ENDBRANCH  19  20
ENDBRANCH  17  19
ENDBRANCH   1  16
BRANCH   1  27
ATOM     27  C   UNL     1     -36.389  23.453  -0.635  0.00  0.00    +0.031 C 
BRANCH  27  28
ATOM     28  C   UNL     1     -35.800  24.689   0.055  0.00  0.00    +0.029 C 
BRANCH  28  29
ATOM     29  C   UNL     1     -36.812  25.828   0.104  0.00  0.00    +0.129 C 
BRANCH  29  30
ATOM     30  N   UNL     1     -37.674  25.646   1.272  0.00  0.00    -0.240 NA
BRANCH  30  33
ATOM     31  N   UNL     1     -37.959  26.048   3.537  0.00  0.00    -0.370 N 
ATOM     32  N   UNL     1     -36.540  27.431   2.411  0.00  0.00    -0.370 N 
ATOM     33  C   UNL     1     -37.389  26.351   2.323  0.00  0.00    +0.189 C 
ATOM     34  H   UNL     1     -38.588  25.294   3.612  0.00  0.00    +0.159 HD
ATOM     35  H   UNL     1     -37.739  26.586   4.332  0.00  0.00    +0.159 HD
ATOM     36  H   UNL     1     -36.066  27.752   1.611  0.00  0.00    +0.159 HD
ATOM     37  H   UNL     1     -36.407  27.884   3.276  0.00  0.00    +0.159 HD
ENDBRANCH  30  33
ENDBRANCH  29  30
ENDBRANCH  28  29
ENDBRANCH  27  28
ENDBRANCH   1  27
TORSDOF 12
ENDMDL
MODEL 3
REMARK VINA RESULT:      -6.6      2.826      9.556
REMARK  Name = 193656
REMARK  12 active torsions:
REMARK  status: ('A' for Active; 'I' for Inactive)
REMARK    1  A    between atoms: C_1  and  C_4
REMARK    2  A    between atoms: C_1  and  N_16
REMARK    3  A    between atoms: C_1  and  C_27
REMARK    4  A    between atoms: N_3  and  C_6
REMARK    5  A    between atoms: C_11  and  N_14
REMARK    6  A    between atoms: C_17  and  O_19
REMARK    7  A    between atoms: O_19  and  C_20
REMARK    8  A    between atoms: C_20  and  C_21
REMARK    9  A    between atoms: C_27  and  C_28
REMARK   10  A    between atoms: C_28  and  C_29
REMARK   11  A    between atoms: C_29  and  N_30
REMARK   12  A    between atoms: N_30  and  C_33
REMARK                            x       y       z     vdW  Elec       q    Type
REMARK                         _______ _______ _______ _____ _____    ______ ____
ROOT
ATOM      1  C   UNL     1     -34.794  28.588   2.518  0.00  0.00    +0.151 C 
ENDROOT
BRANCH   1   4
ATOM      2  O   UNL     1     -34.785  30.617   3.825  0.00  0.00    -0.273 OA
ATOM      3  N   UNL     1     -35.799  30.626   1.709  0.00  0.00    -0.283 N 
ATOM      4  C   UNL     1     -35.125  30.058   2.786  0.00  0.00    +0.244 C 
ATOM      5  H   UNL     1     -35.971  30.034   0.942  0.00  0.00    +0.155 HD
BRANCH   3   6
ATOM      6  C   UNL     1     -36.267  31.956   1.587  0.00  0.00    +0.050 C 
ATOM      7  C   UNL     1     -37.608  32.249   1.834  0.00  0.00    +0.016 C 
ATOM      8  C   UNL     1     -35.386  32.975   1.222  0.00  0.00    +0.016 C 
ATOM      9  C   UNL     1     -38.069  33.560   1.714  0.00  0.00    +0.025 C 
ATOM     10  C   UNL     1     -35.846  34.285   1.103  0.00  0.00    +0.025 C 
ATOM     11  C   UNL     1     -37.188  34.578   1.349  0.00  0.00    +0.143 C 
BRANCH  11  14
ATOM     12  O   UNL     1     -38.628  36.282   1.932  0.00  0.00    -0.126 OA
ATOM     13  O   UNL     1     -37.088  36.687   0.420  0.00  0.00    -0.126 OA
ATOM     14  N   UNL     1     -37.657  35.913   1.227  0.00  0.00    +0.058 N 
ENDBRANCH  11  14
ENDBRANCH   3   6
ENDBRANCH   1   4
BRANCH   1  16
ATOM     15  O   UNL     1     -33.033  26.804   3.986  0.00  0.00    -0.226 OA
ATOM     16  N   UNL     1     -35.101  27.817   3.695  0.00  0.00    -0.264 N 
ATOM     17  C   UNL     1     -34.196  26.990   4.331  0.00  0.00    +0.402 C 
ATOM     18  H   UNL     1     -36.009  27.884   4.069  0.00  0.00    +0.153 HD
BRANCH  17  19
ATOM     19  O   UNL     1     -34.787  26.402   5.414  0.00  0.00    -0.430 OA
BRANCH  19  20
ATOM     20  C   UNL     1     -36.023  25.724   5.158  0.00  0.00    +0.237 C 
BRANCH  20  21
ATOM     21  C   UNL     1     -35.755  24.255   5.010  0.00  0.00    +0.021 C 
ATOM     22  C   UNL     1     -35.950  23.631   3.778  0.00  0.00    -0.001 C 
ATOM     23  C   UNL     1     -35.311  23.514   6.105  0.00  0.00    -0.001 C 
ATOM     24  C   UNL     1     -35.700  22.266   3.641  0.00  0.00    -0.000 C 
ATOM     25  C   UNL     1     -35.060  22.148   5.968  0.00  0.00    -0.000 C 
ATOM     26  C   UNL     1     -35.256  21.524   4.736  0.00  0.00    -0.000 C 
ENDBRANCH  20  21
ENDBRANCH  19  20
ENDBRANCH  17  19
ENDBRANCH   1  16
BRANCH   1  27
ATOM     27  C   UNL     1     -35.501  28.036   1.274  0.00  0.00    +0.031 C 
BRANCH  27  28
ATOM     28  C   UNL     1     -35.932  26.570   1.398  0.00  0.00    +0.029 C 
BRANCH  28  29
ATOM     29  C   UNL     1     -37.440  26.422   1.220  0.00  0.00    +0.129 C 
BRANCH  29  30
ATOM     30  N   UNL     1     -38.087  26.562   2.525  0.00  0.00    -0.240 NA
BRANCH  30  33
ATOM     31  N   UNL     1     -40.169  25.793   1.860  0.00  0.00    -0.370 N 
ATOM     32  N   UNL     1     -39.336  24.967   3.814  0.00  0.00    -0.370 N 
ATOM     33  C   UNL     1     -39.119  25.810   2.748  0.00  0.00    +0.189 C 
ATOM     34  H   UNL     1     -40.140  26.353   1.051  0.00  0.00    +0.159 HD
ATOM     35  H   UNL     1     -40.951  25.220   2.034  0.00  0.00    +0.159 HD
ATOM     36  H   UNL     1     -38.659  24.886   4.524  0.00  0.00    +0.159 HD
ATOM     37  H   UNL     1     -40.169  24.445   3.867  0.00  0.00    +0.159 HD
ENDBRANCH  30  33
ENDBRANCH  29  30
ENDBRANCH  28  29
ENDBRANCH  27  28
ENDBRANCH   1  27
TORSDOF 12
ENDMDL
MODEL 4
REMARK VINA RESULT:      -6.5      1.770      2.510
REMARK  Name = 193656
REMARK  12 active torsions:
REMARK  status: ('A' for Active; 'I' for Inactive)
REMARK    1  A    between atoms: C_1  and  C_4
REMARK    2  A    between atoms: C_1  and  N_16
REMARK    3  A    between atoms: C_1  and  C_27
REMARK    4  A    between atoms: N_3  and  C_6
REMARK    5  A    between atoms: C_11  and  N_14
REMARK    6  A    between atoms: C_17  and  O_19
REMARK    7  A    between atoms: O_19  and  C_20
REMARK    8  A    between atoms: C_20  and  C_21
REMARK    9  A    between atoms: C_27  and  C_28
REMARK   10  A    between atoms: C_28  and  C_29
REMARK   11  A    between atoms: C_29  and  N_30
REMARK   12  A    between atoms: N_30  and  C_33
REMARK                            x       y       z     vdW  Elec       q    Type
REMARK                         _______ _______ _______ _____ _____    ______ ____
ROOT
ATOM      1  C   UNL     1     -32.511  29.609   3.585  0.00  0.00    +0.151 C 
ENDROOT
BRANCH   1   4
ATOM      2  O   UNL     1     -31.505  27.499   4.181  0.00  0.00    -0.273 OA
ATOM      3  N   UNL     1     -33.840  27.639   4.003  0.00  0.00    -0.283 N 
ATOM      4  C   UNL     1     -32.536  28.123   3.949  0.00  0.00    +0.244 C 
ATOM      5  H   UNL     1     -34.553  28.290   3.809  0.00  0.00    +0.155 HD
BRANCH   3   6
ATOM      6  C   UNL     1     -34.261  26.323   4.305  0.00  0.00    +0.050 C 
ATOM      7  C   UNL     1     -34.631  25.991   5.609  0.00  0.00    +0.016 C 
ATOM      8  C   UNL     1     -34.306  25.357   3.300  0.00  0.00    +0.016 C 
ATOM      9  C   UNL     1     -35.047  24.693   5.907  0.00  0.00    +0.025 C 
ATOM     10  C   UNL     1     -34.722  24.060   3.597  0.00  0.00    +0.025 C 
ATOM     11  C   UNL     1     -35.092  23.728   4.900  0.00  0.00    +0.143 C 
BRANCH  11  14
ATOM     12  O   UNL     1     -35.396  21.514   4.330  0.00  0.00    -0.126 OA
ATOM     13  O   UNL     1     -35.995  22.167   6.339  0.00  0.00    -0.126 OA
ATOM     14  N   UNL     1     -35.515  22.407   5.204  0.00  0.00    +0.058 N 
ENDBRANCH  11  14
ENDBRANCH   3   6
ENDBRANCH   1   4
BRANCH   1  16
ATOM     15  O   UNL     1     -33.699  31.318   1.560  0.00  0.00    -0.226 OA
ATOM     16  N   UNL     1     -33.863  30.100   3.528  0.00  0.00    -0.264 N 
ATOM     17  C   UNL     1     -34.346  30.913   2.521  0.00  0.00    +0.402 C 
ATOM     18  H   UNL     1     -34.482  29.840   4.249  0.00  0.00    +0.153 HD
BRANCH  17  19
ATOM     19  O   UNL     1     -35.661  31.204   2.750  0.00  0.00    -0.430 OA
BRANCH  19  20
ATOM     20  C   UNL     1     -36.469  31.401   1.584  0.00  0.00    +0.237 C 
BRANCH  20  21
ATOM     21  C   UNL     1     -36.989  32.808   1.580  0.00  0.00    +0.021 C 
ATOM     22  C   UNL     1     -36.167  33.855   1.163  0.00  0.00    -0.001 C 
ATOM     23  C   UNL     1     -38.296  33.069   1.991  0.00  0.00    -0.001 C 
ATOM     24  C   UNL     1     -36.651  35.163   1.158  0.00  0.00    -0.000 C 
ATOM     25  C   UNL     1     -38.781  34.378   1.987  0.00  0.00    -0.000 C 
ATOM     26  C   UNL     1     -37.958  35.424   1.571  0.00  0.00    -0.000 C 
ENDBRANCH  20  21
ENDBRANCH  19  20
ENDBRANCH  17  19
ENDBRANCH   1  16
BRANCH   1  27
ATOM     27  C   UNL     1     -31.642  30.440   4.537  0.00  0.00    +0.031 C 
BRANCH  27  28
ATOM     28  C   UNL     1     -32.130  30.441   5.991  0.00  0.00    +0.029 C 
BRANCH  28  29
ATOM     29  C   UNL     1     -31.138  29.729   6.905  0.00  0.00    +0.129 C 
BRANCH  29  30
ATOM     30  N   UNL     1     -29.826  29.711   6.258  0.00  0.00    -0.240 NA
BRANCH  30  33
ATOM     31  N   UNL     1     -28.653  27.818   5.616  0.00  0.00    -0.370 N 
ATOM     32  N   UNL     1     -28.482  28.450   7.799  0.00  0.00    -0.370 N 
ATOM     33  C   UNL     1     -29.035  28.731   6.570  0.00  0.00    +0.189 C 
ATOM     34  H   UNL     1     -28.981  27.905   4.691  0.00  0.00    +0.159 HD
ATOM     35  H   UNL     1     -28.053  27.076   5.857  0.00  0.00    +0.159 HD
ATOM     36  H   UNL     1     -28.675  29.029   8.570  0.00  0.00    +0.159 HD
ATOM     37  H   UNL     1     -27.891  27.670   7.906  0.00  0.00    +0.159 HD
ENDBRANCH  30  33
ENDBRANCH  29  30
ENDBRANCH  28  29
ENDBRANCH  27  28
ENDBRANCH   1  27
TORSDOF 12
ENDMDL
MODEL 5
REMARK VINA RESULT:      -6.4      5.003     10.348
REMARK  Name = 193656
REMARK  12 active torsions:
REMARK  status: ('A' for Active; 'I' for Inactive)
REMARK    1  A    between atoms: C_1  and  C_4
REMARK    2  A    between atoms: C_1  and  N_16
REMARK    3  A    between atoms: C_1  and  C_27
REMARK    4  A    between atoms: N_3  and  C_6
REMARK    5  A    between atoms: C_11  and  N_14
REMARK    6  A    between atoms: C_17  and  O_19
REMARK    7  A    between atoms: O_19  and  C_20
REMARK    8  A    between atoms: C_20  and  C_21
REMARK    9  A    between atoms: C_27  and  C_28
REMARK   10  A    between atoms: C_28  and  C_29
REMARK   11  A    between atoms: C_29  and  N_30
REMARK   12  A    between atoms: N_30  and  C_33
REMARK                            x       y       z     vdW  Elec       q    Type
REMARK                         _______ _______ _______ _____ _____    ______ ____
ROOT
ATOM      1  C   UNL     1     -36.304  23.249   3.698  0.00  0.00    +0.151 C 
ENDROOT
BRANCH   1   4
ATOM      2  O   UNL     1     -36.854  25.290   2.536  0.00  0.00    -0.273 OA
ATOM      3  N   UNL     1     -38.584  23.837   3.170  0.00  0.00    -0.283 N 
ATOM      4  C   UNL     1     -37.263  24.264   3.071  0.00  0.00    +0.244 C 
ATOM      5  H   UNL     1     -38.728  22.970   3.614  0.00  0.00    +0.155 HD
BRANCH   3   6
ATOM      6  C   UNL     1     -39.744  24.503   2.707  0.00  0.00    +0.050 C 
ATOM      7  C   UNL     1     -40.232  25.612   3.397  0.00  0.00    +0.016 C 
ATOM      8  C   UNL     1     -40.397  24.050   1.561  0.00  0.00    +0.016 C 
ATOM      9  C   UNL     1     -41.376  26.268   2.941  0.00  0.00    +0.025 C 
ATOM     10  C   UNL     1     -41.539  24.705   1.105  0.00  0.00    +0.025 C 
ATOM     11  C   UNL     1     -42.029  25.815   1.794  0.00  0.00    +0.143 C 
BRANCH  11  14
ATOM     12  O   UNL     1     -43.710  27.373   2.048  0.00  0.00    -0.126 OA
ATOM     13  O   UNL     1     -43.671  26.167   0.214  0.00  0.00    -0.126 OA
ATOM     14  N   UNL     1     -43.193  26.483   1.330  0.00  0.00    +0.058 N 
ENDBRANCH  11  14
ENDBRANCH   3   6
ENDBRANCH   1   4
BRANCH   1  16
ATOM     15  O   UNL     1     -35.188  20.617   4.211  0.00  0.00    -0.226 OA
ATOM     16  N   UNL     1     -36.041  22.202   2.746  0.00  0.00    -0.264 N 
ATOM     17  C   UNL     1     -35.506  20.973   3.081  0.00  0.00    +0.402 C 
ATOM     18  H   UNL     1     -36.256  22.371   1.800  0.00  0.00    +0.153 HD
BRANCH  17  19
ATOM     19  O   UNL     1     -35.379  20.202   1.960  0.00  0.00    -0.430 OA
BRANCH  19  20
ATOM     20  C   UNL     1     -34.578  20.755   0.909  0.00  0.00    +0.237 C 
BRANCH  20  21
ATOM     21  C   UNL     1     -33.313  19.957   0.785  0.00  0.00    +0.021 C 
ATOM     22  C   UNL     1     -32.236  20.464   0.059  0.00  0.00    -0.001 C 
ATOM     23  C   UNL     1     -33.216  18.707   1.397  0.00  0.00    -0.001 C 
ATOM     24  C   UNL     1     -31.061  19.722  -0.056  0.00  0.00    -0.000 C 
ATOM     25  C   UNL     1     -32.040  17.965   1.283  0.00  0.00    -0.000 C 
ATOM     26  C   UNL     1     -30.963  18.472   0.556  0.00  0.00    -0.000 C 
ENDBRANCH  20  21
ENDBRANCH  19  20
ENDBRANCH  17  19
ENDBRANCH   1  16
BRANCH   1  27
ATOM     27  C   UNL     1     -35.010  23.892   4.212  0.00  0.00    +0.031 C 
BRANCH  27  28
ATOM     28  C   UNL     1     -35.141  24.544   5.594  0.00  0.00    +0.029 C 
BRANCH  28  29
ATOM     29  C   UNL     1     -34.343  25.842   5.669  0.00  0.00    +0.129 C 
BRANCH  29  30
ATOM     30  N   UNL     1     -33.921  26.217   4.319  0.00  0.00    -0.240 NA
BRANCH  30  33
ATOM     31  N   UNL     1     -35.446  27.767   3.517  0.00  0.00    -0.370 N 
ATOM     32  N   UNL     1     -33.325  28.506   3.902  0.00  0.00    -0.370 N 
ATOM     33  C   UNL     1     -34.182  27.429   3.942  0.00  0.00    +0.189 C 
ATOM     34  H   UNL     1     -36.157  27.086   3.496  0.00  0.00    +0.159 HD
ATOM     35  H   UNL     1     -35.639  28.689   3.231  0.00  0.00    +0.159 HD
ATOM     36  H   UNL     1     -32.387  28.399   4.182  0.00  0.00    +0.159 HD
ATOM     37  H   UNL     1     -33.649  29.383   3.594  0.00  0.00    +0.159 HD
ENDBRANCH  30  33
ENDBRANCH  29  30
ENDBRANCH  28  29
ENDBRANCH  27  28
ENDBRANCH   1  27
TORSDOF 12
ENDMDL
MODEL 6
REMARK VINA RESULT:      -6.3      5.725      9.130
REMARK  Name = 193656
REMARK  12 active torsions:
REMARK  status: ('A' for Active; 'I' for Inactive)
REMARK    1  A    between atoms: C_1  and  C_4
REMARK    2  A    between atoms: C_1  and  N_16
REMARK    3  A    between atoms: C_1  and  C_27
REMARK    4  A    between atoms: N_3  and  C_6
REMARK    5  A    between atoms: C_11  and  N_14
REMARK    6  A    between atoms: C_17  and  O_19
REMARK    7  A    between atoms: O_19  and  C_20
REMARK    8  A    between atoms: C_20  and  C_21
REMARK    9  A    between atoms: C_27  and  C_28
REMARK   10  A    between atoms: C_28  and  C_29
REMARK   11  A    between atoms: C_29  and  N_30
REMARK   12  A    between atoms: N_30  and  C_33
REMARK                            x       y       z     vdW  Elec       q    Type
REMARK                         _______ _______ _______ _____ _____    ______ ____
ROOT
ATOM      1  C   UNL     1     -36.333  22.169   2.276  0.00  0.00    +0.151 C 
ENDROOT
BRANCH   1   4
ATOM      2  O   UNL     1     -35.287  20.360   3.481  0.00  0.00    -0.273 OA
ATOM      3  N   UNL     1     -35.106  20.428   1.143  0.00  0.00    -0.283 N 
ATOM      4  C   UNL     1     -35.507  20.886   2.395  0.00  0.00    +0.244 C 
ATOM      5  H   UNL     1     -35.394  20.966   0.370  0.00  0.00    +0.155 HD
BRANCH   3   6
ATOM      6  C   UNL     1     -34.334  19.279   0.850  0.00  0.00    +0.050 C 
ATOM      7  C   UNL     1     -34.939  18.159   0.281  0.00  0.00    +0.016 C 
ATOM      8  C   UNL     1     -32.968  19.267   1.132  0.00  0.00    +0.016 C 
ATOM      9  C   UNL     1     -34.178  17.026  -0.008  0.00  0.00    +0.025 C 
ATOM     10  C   UNL     1     -32.206  18.135   0.843  0.00  0.00    +0.025 C 
ATOM     11  C   UNL     1     -32.811  17.015   0.273  0.00  0.00    +0.143 C 
BRANCH  11  14
ATOM     12  O   UNL     1     -30.867  15.784   0.428  0.00  0.00    -0.126 OA
ATOM     13  O   UNL     1     -32.542  14.951  -0.721  0.00  0.00    -0.126 OA
ATOM     14  N   UNL     1     -32.036  15.861  -0.021  0.00  0.00    +0.058 N 
ENDBRANCH  11  14
ENDBRANCH   3   6
ENDBRANCH   1   4
BRANCH   1  16
ATOM     15  O   UNL     1     -36.661  23.609   4.777  0.00  0.00    -0.226 OA
ATOM     16  N   UNL     1     -35.552  23.275   2.765  0.00  0.00    -0.264 N 
ATOM     17  C   UNL     1     -35.781  23.903   3.975  0.00  0.00    +0.402 C 
ATOM     18  H   UNL     1     -34.812  23.604   2.206  0.00  0.00    +0.153 HD
BRANCH  17  19
ATOM     19  O   UNL     1     -34.874  24.911   4.152  0.00  0.00    -0.430 OA
BRANCH  19  20
ATOM     20  C   UNL     1     -34.582  25.256   5.511  0.00  0.00    +0.237 C 
BRANCH  20  21
ATOM     21  C   UNL     1     -33.646  26.428   5.529  0.00  0.00    +0.021 C 
ATOM     22  C   UNL     1     -33.365  27.114   4.348  0.00  0.00    -0.001 C 
ATOM     23  C   UNL     1     -33.059  26.832   6.728  0.00  0.00    -0.001 C 
ATOM     24  C   UNL     1     -32.495  28.205   4.365  0.00  0.00    -0.000 C 
ATOM     25  C   UNL     1     -32.189  27.924   6.745  0.00  0.00    -0.000 C 
ATOM     26  C   UNL     1     -31.907  28.609   5.564  0.00  0.00    -0.000 C 
ENDBRANCH  20  21
ENDBRANCH  19  20
ENDBRANCH  17  19
ENDBRANCH   1  16
BRANCH   1  27
ATOM     27  C   UNL     1     -36.846  22.417   0.852  0.00  0.00    +0.031 C 
BRANCH  27  28
ATOM     28  C   UNL     1     -38.190  23.154   0.790  0.00  0.00    +0.029 C 
BRANCH  28  29
ATOM     29  C   UNL     1     -37.995  24.664   0.876  0.00  0.00    +0.129 C 
BRANCH  29  30
ATOM     30  N   UNL     1     -39.084  25.237   1.669  0.00  0.00    -0.240 NA
BRANCH  30  33
ATOM     31  N   UNL     1     -39.559  24.782   3.891  0.00  0.00    -0.370 N 
ATOM     32  N   UNL     1     -37.907  26.296   3.475  0.00  0.00    -0.370 N 
ATOM     33  C   UNL     1     -38.841  25.447   2.925  0.00  0.00    +0.189 C 
ATOM     34  H   UNL     1     -40.262  24.144   3.630  0.00  0.00    +0.159 HD
ATOM     35  H   UNL     1     -39.372  24.946   4.843  0.00  0.00    +0.159 HD
ATOM     36  H   UNL     1     -37.324  26.833   2.891  0.00  0.00    +0.159 HD
ATOM     37  H   UNL     1     -37.820  26.366   4.453  0.00  0.00    +0.159 HD
ENDBRANCH  30  33
ENDBRANCH  29  30
ENDBRANCH  28  29
ENDBRANCH  27  28
ENDBRANCH   1  27
TORSDOF 12
ENDMDL
MODEL 7
REMARK VINA RESULT:      -6.3      4.859      9.454
REMARK  Name = 193656
REMARK  12 active torsions:
REMARK  status: ('A' for Active; 'I' for Inactive)
REMARK    1  A    between atoms: C_1  and  C_4
REMARK    2  A    between atoms: C_1  and  N_16
REMARK    3  A    between atoms: C_1  and  C_27
REMARK    4  A    between atoms: N_3  and  C_6
REMARK    5  A    between atoms: C_11  and  N_14
REMARK    6  A    between atoms: C_17  and  O_19
REMARK    7  A    between atoms: O_19  and  C_20
REMARK    8  A    between atoms: C_20  and  C_21
REMARK    9  A    between atoms: C_27  and  C_28
REMARK   10  A    between atoms: C_28  and  C_29
REMARK   11  A    between atoms: C_29  and  N_30
REMARK   12  A    between atoms: N_30  and  C_33
REMARK                            x       y       z     vdW  Elec       q    Type
REMARK                         _______ _______ _______ _____ _____    ______ ____
ROOT
ATOM      1  C   UNL     1     -36.858  25.228   4.121  0.00  0.00    +0.151 C 
ENDROOT
BRANCH   1   4
ATOM      2  O   UNL     1     -37.783  26.639   2.396  0.00  0.00    -0.273 OA
ATOM      3  N   UNL     1     -39.218  25.246   3.623  0.00  0.00    -0.283 N 
ATOM      4  C   UNL     1     -37.994  25.808   3.275  0.00  0.00    +0.244 C 
ATOM      5  H   UNL     1     -39.199  24.572   4.341  0.00  0.00    +0.155 HD
BRANCH   3   6
ATOM      6  C   UNL     1     -40.488  25.529   3.066  0.00  0.00    +0.050 C 
ATOM      7  C   UNL     1     -41.343  26.430   3.701  0.00  0.00    +0.016 C 
ATOM      8  C   UNL     1     -40.884  24.907   1.882  0.00  0.00    +0.016 C 
ATOM      9  C   UNL     1     -42.594  26.709   3.151  0.00  0.00    +0.025 C 
ATOM     10  C   UNL     1     -42.134  25.186   1.332  0.00  0.00    +0.025 C 
ATOM     11  C   UNL     1     -42.990  26.087   1.967  0.00  0.00    +0.143 C 
BRANCH  11  14
ATOM     12  O   UNL     1     -44.450  27.481   0.853  0.00  0.00    -0.126 OA
ATOM     13  O   UNL     1     -45.168  25.504   1.482  0.00  0.00    -0.126 OA
ATOM     14  N   UNL     1     -44.264  26.371   1.408  0.00  0.00    +0.058 N 
ENDBRANCH  11  14
ENDBRANCH   3   6
ENDBRANCH   1   4
BRANCH   1  16
ATOM     15  O   UNL     1     -36.221  22.774   5.538  0.00  0.00    -0.226 OA
ATOM     16  N   UNL     1     -36.455  23.964   3.560  0.00  0.00    -0.264 N 
ATOM     17  C   UNL     1     -36.170  22.843   4.314  0.00  0.00    +0.402 C 
ATOM     18  H   UNL     1     -36.379  23.895   2.581  0.00  0.00    +0.153 HD
BRANCH  17  19
ATOM     19  O   UNL     1     -35.821  21.808   3.493  0.00  0.00    -0.430 OA
BRANCH  19  20
ATOM     20  C   UNL     1     -35.680  22.133   2.105  0.00  0.00    +0.237 C 
BRANCH  20  21
ATOM     21  C   UNL     1     -34.629  21.250   1.499  0.00  0.00    +0.021 C 
ATOM     22  C   UNL     1     -34.502  19.926   1.921  0.00  0.00    -0.001 C 
ATOM     23  C   UNL     1     -33.781  21.753   0.513  0.00  0.00    -0.001 C 
ATOM     24  C   UNL     1     -33.526  19.106   1.357  0.00  0.00    -0.000 C 
ATOM     25  C   UNL     1     -32.804  20.931  -0.052  0.00  0.00    -0.000 C 
ATOM     26  C   UNL     1     -32.676  19.608   0.371  0.00  0.00    -0.000 C 
ENDBRANCH  20  21
ENDBRANCH  19  20
ENDBRANCH  17  19
ENDBRANCH   1  16
BRANCH   1  27
ATOM     27  C   UNL     1     -35.673  26.191   4.268  0.00  0.00    +0.031 C 
BRANCH  27  28
ATOM     28  C   UNL     1     -34.872  26.004   5.562  0.00  0.00    +0.029 C 
BRANCH  28  29
ATOM     29  C   UNL     1     -33.410  26.390   5.365  0.00  0.00    +0.129 C 
BRANCH  29  30
ATOM     30  N   UNL     1     -32.959  27.150   6.531  0.00  0.00    -0.240 NA
BRANCH  30  33
ATOM     31  N   UNL     1     -32.375  29.184   5.587  0.00  0.00    -0.370 N 
ATOM     32  N   UNL     1     -30.757  28.083   6.754  0.00  0.00    -0.370 N 
ATOM     33  C   UNL     1     -32.064  28.064   6.321  0.00  0.00    +0.189 C 
ATOM     34  H   UNL     1     -33.281  29.294   5.216  0.00  0.00    +0.159 HD
ATOM     35  H   UNL     1     -31.692  29.876   5.430  0.00  0.00    +0.159 HD
ATOM     36  H   UNL     1     -30.406  27.339   7.293  0.00  0.00    +0.159 HD
ATOM     37  H   UNL     1     -30.174  28.843   6.526  0.00  0.00    +0.159 HD
ENDBRANCH  30  33
ENDBRANCH  29  30
ENDBRANCH  28  29
ENDBRANCH  27  28
ENDBRANCH   1  27
TORSDOF 12
ENDMDL
MODEL 8
REMARK VINA RESULT:      -6.3      5.255      7.776
REMARK  Name = 193656
REMARK  12 active torsions:
REMARK  status: ('A' for Active; 'I' for Inactive)
REMARK    1  A    between atoms: C_1  and  C_4
REMARK    2  A    between atoms: C_1  and  N_16
REMARK    3  A    between atoms: C_1  and  C_27
REMARK    4  A    between atoms: N_3  and  C_6
REMARK    5  A    between atoms: C_11  and  N_14
REMARK    6  A    between atoms: C_17  and  O_19
REMARK    7  A    between atoms: O_19  and  C_20
REMARK    8  A    between atoms: C_20  and  C_21
REMARK    9  A    between atoms: C_27  and  C_28
REMARK   10  A    between atoms: C_28  and  C_29
REMARK   11  A    between atoms: C_29  and  N_30
REMARK   12  A    between atoms: N_30  and  C_33
REMARK                            x       y       z     vdW  Elec       q    Type
REMARK                         _______ _______ _______ _____ _____    ______ ____
ROOT
ATOM      1  C   UNL     1     -35.648  22.897   3.863  0.00  0.00    +0.151 C 
ENDROOT
BRANCH   1   4
ATOM      2  O   UNL     1     -35.128  20.600   4.387  0.00  0.00    -0.273 OA
ATOM      3  N   UNL     1     -35.250  21.258   2.138  0.00  0.00    -0.283 N 
ATOM      4  C   UNL     1     -35.300  21.448   3.516  0.00  0.00    +0.244 C 
ATOM      5  H   UNL     1     -35.439  22.049   1.583  0.00  0.00    +0.155 HD
BRANCH   3   6
ATOM      6  C   UNL     1     -34.961  20.061   1.441  0.00  0.00    +0.050 C 
ATOM      7  C   UNL     1     -33.716  19.449   1.592  0.00  0.00    +0.016 C 
ATOM      8  C   UNL     1     -35.920  19.493   0.603  0.00  0.00    +0.016 C 
ATOM      9  C   UNL     1     -33.432  18.269   0.905  0.00  0.00    +0.025 C 
ATOM     10  C   UNL     1     -35.636  18.313  -0.084  0.00  0.00    +0.025 C 
ATOM     11  C   UNL     1     -34.392  17.701   0.067  0.00  0.00    +0.143 C 
BRANCH  11  14
ATOM     12  O   UNL     1     -33.300  15.679  -0.123  0.00  0.00    -0.126 OA
ATOM     13  O   UNL     1     -34.656  16.290  -1.738  0.00  0.00    -0.126 OA
ATOM     14  N   UNL     1     -34.102  16.500  -0.632  0.00  0.00    +0.058 N 
ENDBRANCH  11  14
ENDBRANCH   3   6
ENDBRANCH   1   4
BRANCH   1  16
ATOM     15  O   UNL     1     -37.193  23.984   1.657  0.00  0.00    -0.226 OA
ATOM     16  N   UNL     1     -37.076  23.066   3.785  0.00  0.00    -0.264 N 
ATOM     17  C   UNL     1     -37.730  23.595   2.689  0.00  0.00    +0.402 C 
ATOM     18  H   UNL     1     -37.618  22.789   4.558  0.00  0.00    +0.153 HD
BRANCH  17  19
ATOM     19  O   UNL     1     -39.076  23.624   2.922  0.00  0.00    -0.430 OA
BRANCH  19  20
ATOM     20  C   UNL     1     -39.901  23.888   1.781  0.00  0.00    +0.237 C 
BRANCH  20  21
ATOM     21  C   UNL     1     -40.907  24.943   2.138  0.00  0.00    +0.021 C 
ATOM     22  C   UNL     1     -42.070  25.083   1.381  0.00  0.00    -0.001 C 
ATOM     23  C   UNL     1     -40.678  25.783   3.228  0.00  0.00    -0.001 C 
ATOM     24  C   UNL     1     -43.004  26.063   1.713  0.00  0.00    -0.000 C 
ATOM     25  C   UNL     1     -41.613  26.764   3.561  0.00  0.00    -0.000 C 
ATOM     26  C   UNL     1     -42.776  26.904   2.803  0.00  0.00    -0.000 C 
ENDBRANCH  20  21
ENDBRANCH  19  20
ENDBRANCH  17  19
ENDBRANCH   1  16
BRANCH   1  27
ATOM     27  C   UNL     1     -35.094  23.332   5.225  0.00  0.00    +0.031 C 
BRANCH  27  28
ATOM     28  C   UNL     1     -35.510  24.747   5.647  0.00  0.00    +0.029 C 
BRANCH  28  29
ATOM     29  C   UNL     1     -34.449  25.771   5.260  0.00  0.00    +0.129 C 
BRANCH  29  30
ATOM     30  N   UNL     1     -35.089  26.860   4.521  0.00  0.00    -0.240 NA
BRANCH  30  33
ATOM     31  N   UNL     1     -36.776  26.897   2.933  0.00  0.00    -0.370 N 
ATOM     32  N   UNL     1     -34.777  26.003   2.299  0.00  0.00    -0.370 N 
ATOM     33  C   UNL     1     -35.492  26.591   3.318  0.00  0.00    +0.189 C 
ATOM     34  H   UNL     1     -37.394  27.321   3.571  0.00  0.00    +0.159 HD
ATOM     35  H   UNL     1     -37.078  26.690   2.019  0.00  0.00    +0.159 HD
ATOM     36  H   UNL     1     -33.842  25.735   2.444  0.00  0.00    +0.159 HD
ATOM     37  H   UNL     1     -35.202  25.852   1.423  0.00  0.00    +0.159 HD
ENDBRANCH  30  33
ENDBRANCH  29  30
ENDBRANCH  28  29
ENDBRANCH  27  28
ENDBRANCH   1  27
TORSDOF 12
ENDMDL
MODEL 9
REMARK VINA RESULT:      -6.2      5.406     10.505
REMARK  Name = 193656
REMARK  12 active torsions:
REMARK  status: ('A' for Active; 'I' for Inactive)
REMARK    1  A    between atoms: C_1  and  C_4
REMARK    2  A    between atoms: C_1  and  N_16
REMARK    3  A    between atoms: C_1  and  C_27
REMARK    4  A    between atoms: N_3  and  C_6
REMARK    5  A    between atoms: C_11  and  N_14
REMARK    6  A    between atoms: C_17  and  O_19
REMARK    7  A    between atoms: O_19  and  C_20
REMARK    8  A    between atoms: C_20  and  C_21
REMARK    9  A    between atoms: C_27  and  C_28
REMARK   10  A    between atoms: C_28  and  C_29
REMARK   11  A    between atoms: C_29  and  N_30
REMARK   12  A    between atoms: N_30  and  C_33
REMARK                            x       y       z     vdW  Elec       q    Type
REMARK                         _______ _______ _______ _____ _____    ______ ____
ROOT
ATOM      1  C   UNL     1     -37.641  22.819   0.989  0.00  0.00    +0.151 C 
ENDROOT
BRANCH   1   4
ATOM      2  O   UNL     1     -36.964  25.134   1.032  0.00  0.00    -0.273 OA
ATOM      3  N   UNL     1     -36.172  23.683   2.696  0.00  0.00    -0.283 N 
ATOM      4  C   UNL     1     -36.886  24.025   1.551  0.00  0.00    +0.244 C 
ATOM      5  H   UNL     1     -36.242  22.745   2.988  0.00  0.00    +0.155 HD
BRANCH   3   6
ATOM      6  C   UNL     1     -35.359  24.526   3.491  0.00  0.00    +0.050 C 
ATOM      7  C   UNL     1     -34.203  25.090   2.951  0.00  0.00    +0.016 C 
ATOM      8  C   UNL     1     -35.713  24.792   4.814  0.00  0.00    +0.016 C 
ATOM      9  C   UNL     1     -33.401  25.921   3.734  0.00  0.00    +0.025 C 
ATOM     10  C   UNL     1     -34.912  25.622   5.596  0.00  0.00    +0.025 C 
ATOM     11  C   UNL     1     -33.757  26.187   5.057  0.00  0.00    +0.143 C 
BRANCH  11  14
ATOM     12  O   UNL     1     -33.128  27.066   7.094  0.00  0.00    -0.126 OA
ATOM     13  O   UNL     1     -32.052  27.722   5.296  0.00  0.00    -0.126 OA
ATOM     14  N   UNL     1     -32.940  27.033   5.854  0.00  0.00    +0.058 N 
ENDBRANCH  11  14
ENDBRANCH   3   6
ENDBRANCH   1   4
BRANCH   1  16
ATOM     15  O   UNL     1     -37.368  20.451  -0.670  0.00  0.00    -0.226 OA
ATOM     16  N   UNL     1     -36.893  21.623   1.276  0.00  0.00    -0.264 N 
ATOM     17  C   UNL     1     -36.818  20.539   0.423  0.00  0.00    +0.402 C 
ATOM     18  H   UNL     1     -36.406  21.574   2.130  0.00  0.00    +0.153 HD
BRANCH  17  19
ATOM     19  O   UNL     1     -36.035  19.566   0.978  0.00  0.00    -0.430 OA
BRANCH  19  20
ATOM     20  C   UNL     1     -35.004  20.023   1.862  0.00  0.00    +0.237 C 
BRANCH  20  21
ATOM     21  C   UNL     1     -33.667  19.712   1.258  0.00  0.00    +0.021 C 
ATOM     22  C   UNL     1     -33.039  20.646   0.434  0.00  0.00    -0.001 C 
ATOM     23  C   UNL     1     -33.051  18.489   1.522  0.00  0.00    -0.001 C 
ATOM     24  C   UNL     1     -31.795  20.357  -0.127  0.00  0.00    -0.000 C 
ATOM     25  C   UNL     1     -31.806  18.199   0.962  0.00  0.00    -0.000 C 
ATOM     26  C   UNL     1     -31.179  19.133   0.137  0.00  0.00    -0.000 C 
ENDBRANCH  20  21
ENDBRANCH  19  20
ENDBRANCH  17  19
ENDBRANCH   1  16
BRANCH   1  27
ATOM     27  C   UNL     1     -39.084  22.728   1.503  0.00  0.00    +0.031 C 
BRANCH  27  28
ATOM     28  C   UNL     1     -40.105  23.478   0.639  0.00  0.00    +0.029 C 
BRANCH  28  29
ATOM     29  C   UNL     1     -40.985  24.387   1.490  0.00  0.00    +0.129 C 
BRANCH  29  30
ATOM     30  N   UNL     1     -40.287  25.655   1.706  0.00  0.00    -0.240 NA
BRANCH  30  33
ATOM     31  N   UNL     1     -38.822  26.119   3.441  0.00  0.00    -0.370 N 
ATOM     32  N   UNL     1     -41.048  26.327   3.882  0.00  0.00    -0.370 N 
ATOM     33  C   UNL     1     -40.097  26.013   2.937  0.00  0.00    +0.189 C 
ATOM     34  H   UNL     1     -38.048  25.921   2.866  0.00  0.00    +0.159 HD
ATOM     35  H   UNL     1     -38.683  26.392   4.377  0.00  0.00    +0.159 HD
ATOM     36  H   UNL     1     -42.004  26.292   3.650  0.00  0.00    +0.159 HD
ATOM     37  H   UNL     1     -40.773  26.588   4.791  0.00  0.00    +0.159 HD
ENDBRANCH  30  33
ENDBRANCH  29  30
ENDBRANCH  28  29
ENDBRANCH  27  28
ENDBRANCH   1  27
TORSDOF 12
ENDMDL
