MODEL 1
REMARK VINA RESULT:      -6.4      0.000      0.000
REMARK  Name = 195714
REMARK  6 active torsions:
REMARK  status: ('A' for Active; 'I' for Inactive)
REMARK    1  A    between atoms: C_6  and  C_20
REMARK    2  A    between atoms: C_17  and  C_24
REMARK    3  A    between atoms: C_20  and  O_21
REMARK    4  A    between atoms: C_24  and  O_25
REMARK    5  A    between atoms: O_25  and  C_27
REMARK    6  A    between atoms: C_27  and  O_28
REMARK                            x       y       z     vdW  Elec       q    Type
REMARK                         _______ _______ _______ _____ _____    ______ ____
ROOT
ATOM      1  O   UNL     1     -34.101  19.724   1.561  0.00  0.00    -0.455 OA
ATOM      2  O   UNL     1     -34.061  17.612   0.609  0.00  0.00    -0.250 OA
ATOM      3  C   UNL     1     -34.889  20.886   1.235  0.00  0.00    +0.140 C 
ATOM      4  C   UNL     1     -34.406  21.437  -0.152  0.00  0.00    +0.053 C 
ATOM      5  C   UNL     1     -34.860  21.954   2.327  0.00  0.00    +0.041 C 
ATOM      6  C   UNL     1     -35.631  19.352  -0.137  0.00  0.00    +0.182 C 
ATOM      7  C   UNL     1     -36.241  20.249   0.925  0.00  0.00    +0.062 C 
ATOM      8  C   UNL     1     -34.975  20.349  -1.109  0.00  0.00    +0.029 C 
ATOM      9  C   UNL     1     -35.749  23.154   1.935  0.00  0.00    +0.026 C 
ATOM     10  C   UNL     1     -35.255  21.453   3.721  0.00  0.00    +0.004 C 
ATOM     11  C   UNL     1     -34.965  22.817  -0.430  0.00  0.00    -0.028 C 
ATOM     12  C   UNL     1     -34.523  18.736   0.687  0.00  0.00    +0.326 C 
ATOM     13  C   UNL     1     -35.517  24.296   2.932  0.00  0.00    +0.016 C 
ATOM     14  C   UNL     1     -35.092  22.566   4.776  0.00  0.00    +0.011 C 
ATOM     15  C   UNL     1     -32.874  21.521  -0.276  0.00  0.00    +0.008 C 
ATOM     16  C   UNL     1     -35.546  23.586   0.504  0.00  0.00    -0.031 C 
ATOM     17  C   UNL     1     -35.842  23.851   4.367  0.00  0.00    +0.100 C 
ATOM     18  C   UNL     1     -35.563  22.052   6.141  0.00  0.00    +0.001 C 
ENDROOT
BRANCH   6  20
ATOM     19  O   UNL     1     -36.640  18.215  -1.989  0.00  0.00    -0.250 OA
ATOM     20  C   UNL     1     -36.592  18.422  -0.785  0.00  0.00    +0.326 C 
BRANCH  20  21
ATOM     21  O   UNL     1     -37.391  17.857   0.166  0.00  0.00    -0.444 OA
ATOM     22  C   UNL     1     -37.758  16.494  -0.072  0.00  0.00    +0.256 C 
ENDBRANCH  20  21
ENDBRANCH   6  20
BRANCH  17  24
ATOM     23  O   UNL     1     -36.313  25.579   5.969  0.00  0.00    -0.250 OA
ATOM     24  C   UNL     1     -35.491  24.985   5.285  0.00  0.00    +0.325 C 
BRANCH  24  25
ATOM     25  O   UNL     1     -34.145  25.210   5.216  0.00  0.00    -0.361 OA
BRANCH  25  27
ATOM     26  O   UNL     1     -33.946  27.400   4.484  0.00  0.00    -0.202 OA
ATOM     27  C   UNL     1     -33.712  26.502   5.282  0.00  0.00    +0.519 C 
BRANCH  27  28
ATOM     28  O   UNL     1     -32.957  26.625   6.411  0.00  0.00    -0.414 OA
ATOM     29  C   UNL     1     -32.181  27.824   6.511  0.00  0.00    +0.259 C 
ENDBRANCH  27  28
ENDBRANCH  25  27
ENDBRANCH  24  25
ENDBRANCH  17  24
TORSDOF 6
ENDMDL
MODEL 2
REMARK VINA RESULT:      -5.9      2.628      5.130
REMARK  Name = 195714
REMARK  6 active torsions:
REMARK  status: ('A' for Active; 'I' for Inactive)
REMARK    1  A    between atoms: C_6  and  C_20
REMARK    2  A    between atoms: C_17  and  C_24
REMARK    3  A    between atoms: C_20  and  O_21
REMARK    4  A    between atoms: C_24  and  O_25
REMARK    5  A    between atoms: O_25  and  C_27
REMARK    6  A    between atoms: C_27  and  O_28
REMARK                            x       y       z     vdW  Elec       q    Type
REMARK                         _______ _______ _______ _____ _____    ______ ____
ROOT
ATOM      1  O   UNL     1     -36.217  24.842   1.503  0.00  0.00    -0.455 OA
ATOM      2  O   UNL     1     -37.190  23.309   0.062  0.00  0.00    -0.250 OA
ATOM      3  C   UNL     1     -35.579  24.654   2.782  0.00  0.00    +0.140 C 
ATOM      4  C   UNL     1     -36.679  24.253   3.827  0.00  0.00    +0.053 C 
ATOM      5  C   UNL     1     -34.767  25.867   3.229  0.00  0.00    +0.041 C 
ATOM      6  C   UNL     1     -36.080  22.622   2.146  0.00  0.00    +0.182 C 
ATOM      7  C   UNL     1     -34.812  23.356   2.542  0.00  0.00    +0.062 C 
ATOM      8  C   UNL     1     -36.991  22.796   3.375  0.00  0.00    +0.029 C 
ATOM      9  C   UNL     1     -34.082  25.592   4.585  0.00  0.00    +0.026 C 
ATOM     10  C   UNL     1     -33.724  26.348   2.213  0.00  0.00    +0.004 C 
ATOM     11  C   UNL     1     -36.154  24.330   5.246  0.00  0.00    -0.028 C 
ATOM     12  C   UNL     1     -36.577  23.573   1.081  0.00  0.00    +0.326 C 
ATOM     13  C   UNL     1     -33.472  26.895   5.113  0.00  0.00    +0.016 C 
ATOM     14  C   UNL     1     -33.031  27.637   2.699  0.00  0.00    +0.011 C 
ATOM     15  C   UNL     1     -37.943  25.127   3.750  0.00  0.00    +0.008 C 
ATOM     16  C   UNL     1     -35.008  24.941   5.583  0.00  0.00    -0.031 C 
ATOM     17  C   UNL     1     -32.451  27.470   4.119  0.00  0.00    +0.100 C 
ATOM     18  C   UNL     1     -31.949  28.046   1.694  0.00  0.00    +0.001 C 
ENDROOT
BRANCH   6  20
ATOM     19  O   UNL     1     -36.691  20.315   1.926  0.00  0.00    -0.250 OA
ATOM     20  C   UNL     1     -35.872  21.205   1.747  0.00  0.00    +0.326 C 
BRANCH  20  21
ATOM     21  O   UNL     1     -34.645  21.071   1.165  0.00  0.00    -0.444 OA
ATOM     22  C   UNL     1     -34.029  19.789   1.319  0.00  0.00    +0.256 C 
ENDBRANCH  20  21
ENDBRANCH   6  20
BRANCH  17  24
ATOM     23  O   UNL     1     -32.730  29.733   4.875  0.00  0.00    -0.250 OA
ATOM     24  C   UNL     1     -31.982  28.790   4.658  0.00  0.00    +0.325 C 
BRANCH  24  25
ATOM     25  O   UNL     1     -30.631  28.734   4.854  0.00  0.00    -0.361 OA
BRANCH  25  27
ATOM     26  O   UNL     1     -30.189  29.622   6.948  0.00  0.00    -0.202 OA
ATOM     27  C   UNL     1     -30.176  28.704   6.140  0.00  0.00    +0.519 C 
BRANCH  27  28
ATOM     28  O   UNL     1     -29.693  27.450   6.375  0.00  0.00    -0.414 OA
ATOM     29  C   UNL     1     -28.346  27.385   6.856  0.00  0.00    +0.259 C 
ENDBRANCH  27  28
ENDBRANCH  25  27
ENDBRANCH  24  25
ENDBRANCH  17  24
TORSDOF 6
ENDMDL
MODEL 3
REMARK VINA RESULT:      -5.9      2.702      8.373
REMARK  Name = 195714
REMARK  6 active torsions:
REMARK  status: ('A' for Active; 'I' for Inactive)
REMARK    1  A    between atoms: C_6  and  C_20
REMARK    2  A    between atoms: C_17  and  C_24
REMARK    3  A    between atoms: C_20  and  O_21
REMARK    4  A    between atoms: C_24  and  O_25
REMARK    5  A    between atoms: O_25  and  C_27
REMARK    6  A    between atoms: C_27  and  O_28
REMARK                            x       y       z     vdW  Elec       q    Type
REMARK                         _______ _______ _______ _____ _____    ______ ____
ROOT
ATOM      1  O   UNL     1     -33.549  27.849   4.871  0.00  0.00    -0.455 OA
ATOM      2  O   UNL     1     -32.194  29.503   5.763  0.00  0.00    -0.250 OA
ATOM      3  C   UNL     1     -33.428  27.094   3.648  0.00  0.00    +0.140 C 
ATOM      4  C   UNL     1     -33.689  28.064   2.443  0.00  0.00    +0.053 C 
ATOM      5  C   UNL     1     -34.335  25.866   3.612  0.00  0.00    +0.041 C 
ATOM      6  C   UNL     1     -31.626  28.333   3.676  0.00  0.00    +0.182 C 
ATOM      7  C   UNL     1     -31.923  26.847   3.600  0.00  0.00    +0.062 C 
ATOM      8  C   UNL     1     -32.380  28.908   2.463  0.00  0.00    +0.029 C 
ATOM      9  C   UNL     1     -34.135  25.083   2.296  0.00  0.00    +0.026 C 
ATOM     10  C   UNL     1     -34.174  24.917   4.805  0.00  0.00    +0.004 C 
ATOM     11  C   UNL     1     -33.880  27.305   1.146  0.00  0.00    -0.028 C 
ATOM     12  C   UNL     1     -32.435  28.671   4.907  0.00  0.00    +0.326 C 
ATOM     13  C   UNL     1     -35.213  23.999   2.188  0.00  0.00    +0.016 C 
ATOM     14  C   UNL     1     -35.200  23.768   4.741  0.00  0.00    +0.011 C 
ATOM     15  C   UNL     1     -34.919  28.967   2.639  0.00  0.00    +0.008 C 
ATOM     16  C   UNL     1     -34.095  25.981   1.084  0.00  0.00    -0.031 C 
ATOM     17  C   UNL     1     -35.149  23.035   3.384  0.00  0.00    +0.100 C 
ATOM     18  C   UNL     1     -34.962  22.804   5.909  0.00  0.00    +0.001 C 
ENDROOT
BRANCH   6  20
ATOM     19  O   UNL     1     -29.683  29.607   3.089  0.00  0.00    -0.250 OA
ATOM     20  C   UNL     1     -30.179  28.672   3.701  0.00  0.00    +0.326 C 
BRANCH  20  21
ATOM     21  O   UNL     1     -29.517  27.786   4.499  0.00  0.00    -0.444 OA
ATOM     22  C   UNL     1     -28.775  28.365   5.577  0.00  0.00    +0.256 C 
ENDBRANCH  20  21
ENDBRANCH   6  20
BRANCH  17  24
ATOM     23  O   UNL     1     -37.467  22.427   3.202  0.00  0.00    -0.250 OA
ATOM     24  C   UNL     1     -36.296  22.076   3.257  0.00  0.00    +0.325 C 
BRANCH  24  25
ATOM     25  O   UNL     1     -35.805  20.802   3.212  0.00  0.00    -0.361 OA
BRANCH  25  27
ATOM     26  O   UNL     1     -36.523  20.083   1.129  0.00  0.00    -0.202 OA
ATOM     27  C   UNL     1     -35.661  20.218   1.987  0.00  0.00    +0.519 C 
BRANCH  27  28
ATOM     28  O   UNL     1     -34.367  19.801   1.880  0.00  0.00    -0.414 OA
ATOM     29  C   UNL     1     -33.659  20.268   0.726  0.00  0.00    +0.259 C 
ENDBRANCH  27  28
ENDBRANCH  25  27
ENDBRANCH  24  25
ENDBRANCH  17  24
TORSDOF 6
ENDMDL
MODEL 4
REMARK VINA RESULT:      -5.8      2.503      7.373
REMARK  Name = 195714
REMARK  6 active torsions:
REMARK  status: ('A' for Active; 'I' for Inactive)
REMARK    1  A    between atoms: C_6  and  C_20
REMARK    2  A    between atoms: C_17  and  C_24
REMARK    3  A    between atoms: C_20  and  O_21
REMARK    4  A    between atoms: C_24  and  O_25
REMARK    5  A    between atoms: O_25  and  C_27
REMARK    6  A    between atoms: C_27  and  O_28
REMARK                            x       y       z     vdW  Elec       q    Type
REMARK                         _______ _______ _______ _____ _____    ______ ____
ROOT
ATOM      1  O   UNL     1     -34.737  25.210   1.612  0.00  0.00    -0.455 OA
ATOM      2  O   UNL     1     -35.402  27.415   1.357  0.00  0.00    -0.250 OA
ATOM      3  C   UNL     1     -35.415  24.089   2.213  0.00  0.00    +0.140 C 
ATOM      4  C   UNL     1     -35.487  24.327   3.762  0.00  0.00    +0.053 C 
ATOM      5  C   UNL     1     -34.778  22.746   1.860  0.00  0.00    +0.041 C 
ATOM      6  C   UNL     1     -36.875  25.712   2.347  0.00  0.00    +0.182 C 
ATOM      7  C   UNL     1     -36.847  24.322   1.740  0.00  0.00    +0.062 C 
ATOM      8  C   UNL     1     -36.554  25.459   3.831  0.00  0.00    +0.029 C 
ATOM      9  C   UNL     1     -35.568  21.585   2.503  0.00  0.00    +0.026 C 
ATOM     10  C   UNL     1     -34.617  22.490   0.357  0.00  0.00    +0.004 C 
ATOM     11  C   UNL     1     -35.908  23.074   4.501  0.00  0.00    -0.028 C 
ATOM     12  C   UNL     1     -35.623  26.270   1.708  0.00  0.00    +0.326 C 
ATOM     13  C   UNL     1     -34.779  20.283   2.326  0.00  0.00    +0.016 C 
ATOM     14  C   UNL     1     -33.869  21.167   0.098  0.00  0.00    +0.011 C 
ATOM     15  C   UNL     1     -34.154  24.800   4.370  0.00  0.00    +0.008 C 
ATOM     16  C   UNL     1     -35.927  21.852   3.944  0.00  0.00    -0.031 C 
ATOM     17  C   UNL     1     -34.530  19.986   0.839  0.00  0.00    +0.100 C 
ATOM     18  C   UNL     1     -33.790  20.910  -1.411  0.00  0.00    +0.001 C 
ENDROOT
BRANCH   6  20
ATOM     19  O   UNL     1     -38.375  27.127   1.127  0.00  0.00    -0.250 OA
ATOM     20  C   UNL     1     -38.141  26.457   2.123  0.00  0.00    +0.326 C 
BRANCH  20  21
ATOM     21  O   UNL     1     -38.973  26.273   3.188  0.00  0.00    -0.444 OA
ATOM     22  C   UNL     1     -40.210  25.615   2.894  0.00  0.00    +0.256 C 
ENDBRANCH  20  21
ENDBRANCH   6  20
BRANCH  17  24
ATOM     23  O   UNL     1     -34.072  17.675   0.362  0.00  0.00    -0.250 OA
ATOM     24  C   UNL     1     -33.668  18.760   0.758  0.00  0.00    +0.325 C 
BRANCH  24  25
ATOM     25  O   UNL     1     -32.409  19.076   1.185  0.00  0.00    -0.361 OA
BRANCH  25  27
ATOM     26  O   UNL     1     -30.812  17.399   1.289  0.00  0.00    -0.202 OA
ATOM     27  C   UNL     1     -31.371  18.325   0.716  0.00  0.00    +0.519 C 
BRANCH  27  28
ATOM     28  O   UNL     1     -31.056  18.791  -0.526  0.00  0.00    -0.414 OA
ATOM     29  C   UNL     1     -30.151  19.901  -0.561  0.00  0.00    +0.259 C 
ENDBRANCH  27  28
ENDBRANCH  25  27
ENDBRANCH  24  25
ENDBRANCH  17  24
TORSDOF 6
ENDMDL
MODEL 5
REMARK VINA RESULT:      -5.6      1.910      7.932
REMARK  Name = 195714
REMARK  6 active torsions:
REMARK  status: ('A' for Active; 'I' for Inactive)
REMARK    1  A    between atoms: C_6  and  C_20
REMARK    2  A    between atoms: C_17  and  C_24
REMARK    3  A    between atoms: C_20  and  O_21
REMARK    4  A    between atoms: C_24  and  O_25
REMARK    5  A    between atoms: O_25  and  C_27
REMARK    6  A    between atoms: C_27  and  O_28
REMARK                            x       y       z     vdW  Elec       q    Type
REMARK                         _______ _______ _______ _____ _____    ______ ____
ROOT
ATOM      1  O   UNL     1     -36.108  21.630   3.653  0.00  0.00    -0.455 OA
ATOM      2  O   UNL     1     -36.288  23.016   5.501  0.00  0.00    -0.250 OA
ATOM      3  C   UNL     1     -35.994  21.946   2.251  0.00  0.00    +0.140 C 
ATOM      4  C   UNL     1     -37.361  22.544   1.766  0.00  0.00    +0.053 C 
ATOM      5  C   UNL     1     -35.547  20.756   1.404  0.00  0.00    +0.041 C 
ATOM      6  C   UNL     1     -35.996  23.904   3.226  0.00  0.00    +0.182 C 
ATOM      7  C   UNL     1     -35.062  23.154   2.295  0.00  0.00    +0.062 C 
ATOM      8  C   UNL     1     -37.321  23.945   2.444  0.00  0.00    +0.029 C 
ATOM      9  C   UNL     1     -35.409  21.165  -0.078  0.00  0.00    +0.026 C 
ATOM     10  C   UNL     1     -34.251  20.086   1.877  0.00  0.00    +0.004 C 
ATOM     11  C   UNL     1     -37.432  22.622   0.255  0.00  0.00    -0.028 C 
ATOM     12  C   UNL     1     -36.144  22.853   4.303  0.00  0.00    +0.326 C 
ATOM     13  C   UNL     1     -35.188  19.908  -0.928  0.00  0.00    +0.016 C 
ATOM     14  C   UNL     1     -33.936  18.833   1.035  0.00  0.00    +0.011 C 
ATOM     15  C   UNL     1     -38.583  21.742   2.248  0.00  0.00    +0.008 C 
ATOM     16  C   UNL     1     -36.573  21.994  -0.564  0.00  0.00    -0.031 C 
ATOM     17  C   UNL     1     -33.930  19.150  -0.475  0.00  0.00    +0.100 C 
ATOM     18  C   UNL     1     -32.601  18.233   1.489  0.00  0.00    +0.001 C 
ENDROOT
BRANCH   6  20
ATOM     19  O   UNL     1     -36.127  26.282   3.493  0.00  0.00    -0.250 OA
ATOM     20  C   UNL     1     -35.503  25.241   3.647  0.00  0.00    +0.326 C 
BRANCH  20  21
ATOM     21  O   UNL     1     -34.271  25.114   4.218  0.00  0.00    -0.444 OA
ATOM     22  C   UNL     1     -34.076  25.849   5.430  0.00  0.00    +0.256 C 
ENDBRANCH  20  21
ENDBRANCH   6  20
BRANCH  17  24
ATOM     23  O   UNL     1     -32.894  17.604  -1.995  0.00  0.00    -0.250 OA
ATOM     24  C   UNL     1     -33.846  17.887  -1.281  0.00  0.00    +0.325 C 
BRANCH  24  25
ATOM     25  O   UNL     1     -34.978  17.150  -1.070  0.00  0.00    -0.361 OA
BRANCH  25  27
ATOM     26  O   UNL     1     -33.797  15.341  -0.234  0.00  0.00    -0.202 OA
ATOM     27  C   UNL     1     -34.841  15.930  -0.476  0.00  0.00    +0.519 C 
BRANCH  27  28
ATOM     28  O   UNL     1     -36.093  15.469  -0.193  0.00  0.00    -0.414 OA
ATOM     29  C   UNL     1     -37.140  16.444  -0.246  0.00  0.00    +0.259 C 
ENDBRANCH  27  28
ENDBRANCH  25  27
ENDBRANCH  24  25
ENDBRANCH  17  24
TORSDOF 6
ENDMDL
MODEL 6
REMARK VINA RESULT:      -5.5      2.626      7.673
REMARK  Name = 195714
REMARK  6 active torsions:
REMARK  status: ('A' for Active; 'I' for Inactive)
REMARK    1  A    between atoms: C_6  and  C_20
REMARK    2  A    between atoms: C_17  and  C_24
REMARK    3  A    between atoms: C_20  and  O_21
REMARK    4  A    between atoms: C_24  and  O_25
REMARK    5  A    between atoms: O_25  and  C_27
REMARK    6  A    between atoms: C_27  and  O_28
REMARK                            x       y       z     vdW  Elec       q    Type
REMARK                         _______ _______ _______ _____ _____    ______ ____
ROOT
ATOM      1  O   UNL     1     -35.758  24.954   1.577  0.00  0.00    -0.455 OA
ATOM      2  O   UNL     1     -36.977  26.912   1.355  0.00  0.00    -0.250 OA
ATOM      3  C   UNL     1     -36.020  23.768   2.353  0.00  0.00    +0.140 C 
ATOM      4  C   UNL     1     -35.864  24.128   3.872  0.00  0.00    +0.053 C 
ATOM      5  C   UNL     1     -35.150  22.581   1.945  0.00  0.00    +0.041 C 
ATOM      6  C   UNL     1     -37.782  25.017   2.699  0.00  0.00    +0.182 C 
ATOM      7  C   UNL     1     -37.527  23.619   2.166  0.00  0.00    +0.062 C 
ATOM      8  C   UNL     1     -37.144  24.984   4.100  0.00  0.00    +0.029 C 
ATOM      9  C   UNL     1     -35.502  21.335   2.786  0.00  0.00    +0.026 C 
ATOM     10  C   UNL     1     -35.208  22.229   0.453  0.00  0.00    +0.004 C 
ATOM     11  C   UNL     1     -35.824  22.886   4.739  0.00  0.00    -0.028 C 
ATOM     12  C   UNL     1     -36.843  25.785   1.797  0.00  0.00    +0.326 C 
ATOM     13  C   UNL     1     -34.464  20.239   2.517  0.00  0.00    +0.016 C 
ATOM     14  C   UNL     1     -34.220  21.096   0.113  0.00  0.00    +0.011 C 
ATOM     15  C   UNL     1     -34.599  24.950   4.178  0.00  0.00    +0.008 C 
ATOM     16  C   UNL     1     -35.646  21.647   4.255  0.00  0.00    -0.031 C 
ATOM     17  C   UNL     1     -34.426  19.869   1.026  0.00  0.00    +0.100 C 
ATOM     18  C   UNL     1     -34.357  20.724  -1.368  0.00  0.00    +0.001 C 
ENDROOT
BRANCH   6  20
ATOM     19  O   UNL     1     -39.608  26.534   3.032  0.00  0.00    -0.250 OA
ATOM     20  C   UNL     1     -39.211  25.426   2.698  0.00  0.00    +0.326 C 
BRANCH  20  21
ATOM     21  O   UNL     1     -39.983  24.384   2.273  0.00  0.00    -0.444 OA
ATOM     22  C   UNL     1     -41.082  24.739   1.428  0.00  0.00    +0.256 C 
ENDBRANCH  20  21
ENDBRANCH   6  20
BRANCH  17  24
ATOM     23  O   UNL     1     -32.135  19.176   0.810  0.00  0.00    -0.250 OA
ATOM     24  C   UNL     1     -33.320  18.873   0.833  0.00  0.00    +0.325 C 
BRANCH  24  25
ATOM     25  O   UNL     1     -33.864  17.627   0.698  0.00  0.00    -0.361 OA
BRANCH  25  27
ATOM     26  O   UNL     1     -33.788  17.233  -1.584  0.00  0.00    -0.202 OA
ATOM     27  C   UNL     1     -33.557  16.916  -0.425  0.00  0.00    +0.519 C 
BRANCH  27  28
ATOM     28  O   UNL     1     -32.937  15.768  -0.028  0.00  0.00    -0.414 OA
ATOM     29  C   UNL     1     -31.538  15.687  -0.319  0.00  0.00    +0.259 C 
ENDBRANCH  27  28
ENDBRANCH  25  27
ENDBRANCH  24  25
ENDBRANCH  17  24
TORSDOF 6
ENDMDL
MODEL 7
REMARK VINA RESULT:      -5.4      2.938      7.241
REMARK  Name = 195714
REMARK  6 active torsions:
REMARK  status: ('A' for Active; 'I' for Inactive)
REMARK    1  A    between atoms: C_6  and  C_20
REMARK    2  A    between atoms: C_17  and  C_24
REMARK    3  A    between atoms: C_20  and  O_21
REMARK    4  A    between atoms: C_24  and  O_25
REMARK    5  A    between atoms: O_25  and  C_27
REMARK    6  A    between atoms: C_27  and  O_28
REMARK                            x       y       z     vdW  Elec       q    Type
REMARK                         _______ _______ _______ _____ _____    ______ ____
ROOT
ATOM      1  O   UNL     1     -36.957  21.269   1.219  0.00  0.00    -0.455 OA
ATOM      2  O   UNL     1     -38.893  21.676   2.425  0.00  0.00    -0.250 OA
ATOM      3  C   UNL     1     -35.786  22.087   1.019  0.00  0.00    +0.140 C 
ATOM      4  C   UNL     1     -36.185  23.306   0.114  0.00  0.00    +0.053 C 
ATOM      5  C   UNL     1     -34.601  21.308   0.453  0.00  0.00    +0.041 C 
ATOM      6  C   UNL     1     -37.021  23.270   2.383  0.00  0.00    +0.182 C 
ATOM      7  C   UNL     1     -35.614  22.702   2.405  0.00  0.00    +0.062 C 
ATOM      8  C   UNL     1     -37.031  24.145   1.117  0.00  0.00    +0.029 C 
ATOM      9  C   UNL     1     -33.372  22.229   0.294  0.00  0.00    +0.026 C 
ATOM     10  C   UNL     1     -34.212  20.063   1.259  0.00  0.00    +0.004 C 
ATOM     11  C   UNL     1     -34.966  24.047  -0.393  0.00  0.00    -0.028 C 
ATOM     12  C   UNL     1     -37.779  22.003   2.057  0.00  0.00    +0.326 C 
ATOM     13  C   UNL     1     -32.282  21.482  -0.484  0.00  0.00    +0.016 C 
ATOM     14  C   UNL     1     -33.083  19.280   0.559  0.00  0.00    +0.011 C 
ATOM     15  C   UNL     1     -37.031  22.908  -1.109  0.00  0.00    +0.008 C 
ATOM     16  C   UNL     1     -33.717  23.559  -0.328  0.00  0.00    -0.031 C 
ATOM     17  C   UNL     1     -31.876  20.187   0.239  0.00  0.00    +0.100 C 
ATOM     18  C   UNL     1     -32.673  18.085   1.427  0.00  0.00    +0.001 C 
ENDROOT
BRANCH   6  20
ATOM     19  O   UNL     1     -38.419  24.681   3.724  0.00  0.00    -0.250 OA
ATOM     20  C   UNL     1     -37.412  23.996   3.620  0.00  0.00    +0.326 C 
BRANCH  20  21
ATOM     21  O   UNL     1     -36.481  23.774   4.592  0.00  0.00    -0.444 OA
ATOM     22  C   UNL     1     -35.993  24.945   5.254  0.00  0.00    +0.256 C 
ENDBRANCH  20  21
ENDBRANCH   6  20
BRANCH  17  24
ATOM     23  O   UNL     1     -31.157  19.055  -1.754  0.00  0.00    -0.250 OA
ATOM     24  C   UNL     1     -30.890  19.468  -0.634  0.00  0.00    +0.325 C 
BRANCH  24  25
ATOM     25  O   UNL     1     -29.698  19.375   0.027  0.00  0.00    -0.361 OA
BRANCH  25  27
ATOM     26  O   UNL     1     -27.993  18.152  -0.956  0.00  0.00    -0.202 OA
ATOM     27  C   UNL     1     -28.938  18.263  -0.186  0.00  0.00    +0.519 C 
BRANCH  27  28
ATOM     28  O   UNL     1     -29.421  17.274   0.620  0.00  0.00    -0.414 OA
ATOM     29  C   UNL     1     -29.700  16.028  -0.026  0.00  0.00    +0.259 C 
ENDBRANCH  27  28
ENDBRANCH  25  27
ENDBRANCH  24  25
ENDBRANCH  17  24
TORSDOF 6
ENDMDL
MODEL 8
REMARK VINA RESULT:      -5.4      2.808      5.262
REMARK  Name = 195714
REMARK  6 active torsions:
REMARK  status: ('A' for Active; 'I' for Inactive)
REMARK    1  A    between atoms: C_6  and  C_20
REMARK    2  A    between atoms: C_17  and  C_24
REMARK    3  A    between atoms: C_20  and  O_21
REMARK    4  A    between atoms: C_24  and  O_25
REMARK    5  A    between atoms: O_25  and  C_27
REMARK    6  A    between atoms: C_27  and  O_28
REMARK                            x       y       z     vdW  Elec       q    Type
REMARK                         _______ _______ _______ _____ _____    ______ ____
ROOT
ATOM      1  O   UNL     1     -36.098  24.492   1.389  0.00  0.00    -0.455 OA
ATOM      2  O   UNL     1     -37.025  22.761   0.158  0.00  0.00    -0.250 OA
ATOM      3  C   UNL     1     -35.458  24.487   2.680  0.00  0.00    +0.140 C 
ATOM      4  C   UNL     1     -36.549  24.195   3.770  0.00  0.00    +0.053 C 
ATOM      5  C   UNL     1     -34.680  25.770   2.967  0.00  0.00    +0.041 C 
ATOM      6  C   UNL     1     -35.902  22.378   2.312  0.00  0.00    +0.182 C 
ATOM      7  C   UNL     1     -34.656  23.191   2.608  0.00  0.00    +0.062 C 
ATOM      8  C   UNL     1     -36.820  22.684   3.509  0.00  0.00    +0.029 C 
ATOM      9  C   UNL     1     -33.991  25.690   4.347  0.00  0.00    +0.026 C 
ATOM     10  C   UNL     1     -33.648  26.144   1.897  0.00  0.00    +0.004 C 
ATOM     11  C   UNL     1     -36.030  24.467   5.167  0.00  0.00    -0.028 C 
ATOM     12  C   UNL     1     -36.423  23.170   1.134  0.00  0.00    +0.326 C 
ATOM     13  C   UNL     1     -33.418  27.067   4.702  0.00  0.00    +0.016 C 
ATOM     14  C   UNL     1     -32.992  27.503   2.212  0.00  0.00    +0.011 C 
ATOM     15  C   UNL     1     -37.836  25.017   3.583  0.00  0.00    +0.008 C 
ATOM     16  C   UNL     1     -34.901  25.148   5.421  0.00  0.00    -0.031 C 
ATOM     17  C   UNL     1     -32.410  27.536   3.641  0.00  0.00    +0.100 C 
ATOM     18  C   UNL     1     -31.919  27.810   1.161  0.00  0.00    +0.001 C 
ENDROOT
BRANCH   6  20
ATOM     19  O   UNL     1     -36.422  20.042   2.446  0.00  0.00    -0.250 OA
ATOM     20  C   UNL     1     -35.654  20.928   2.098  0.00  0.00    +0.326 C 
BRANCH  20  21
ATOM     21  O   UNL     1     -34.458  20.758   1.465  0.00  0.00    -0.444 OA
ATOM     22  C   UNL     1     -34.002  19.405   1.364  0.00  0.00    +0.256 C 
ENDBRANCH  20  21
ENDBRANCH   6  20
BRANCH  17  24
ATOM     23  O   UNL     1     -30.814  29.242   4.201  0.00  0.00    -0.250 OA
ATOM     24  C   UNL     1     -31.979  28.926   4.006  0.00  0.00    +0.325 C 
BRANCH  24  25
ATOM     25  O   UNL     1     -33.083  29.730   4.069  0.00  0.00    -0.361 OA
BRANCH  25  27
ATOM     26  O   UNL     1     -32.301  31.853   3.567  0.00  0.00    -0.202 OA
ATOM     27  C   UNL     1     -33.053  30.906   3.379  0.00  0.00    +0.519 C 
BRANCH  27  28
ATOM     28  O   UNL     1     -34.026  30.847   2.424  0.00  0.00    -0.414 OA
ATOM     29  C   UNL     1     -35.372  30.823   2.911  0.00  0.00    +0.259 C 
ENDBRANCH  27  28
ENDBRANCH  25  27
ENDBRANCH  24  25
ENDBRANCH  17  24
TORSDOF 6
ENDMDL
MODEL 9
REMARK VINA RESULT:      -5.4      1.954      3.543
REMARK  Name = 195714
REMARK  6 active torsions:
REMARK  status: ('A' for Active; 'I' for Inactive)
REMARK    1  A    between atoms: C_6  and  C_20
REMARK    2  A    between atoms: C_17  and  C_24
REMARK    3  A    between atoms: C_20  and  O_21
REMARK    4  A    between atoms: C_24  and  O_25
REMARK    5  A    between atoms: O_25  and  C_27
REMARK    6  A    between atoms: C_27  and  O_28
REMARK                            x       y       z     vdW  Elec       q    Type
REMARK                         _______ _______ _______ _____ _____    ______ ____
ROOT
ATOM      1  O   UNL     1     -35.293  22.955  -0.146  0.00  0.00    -0.455 OA
ATOM      2  O   UNL     1     -35.316  21.244  -1.709  0.00  0.00    -0.250 OA
ATOM      3  C   UNL     1     -35.511  22.927   1.279  0.00  0.00    +0.140 C 
ATOM      4  C   UNL     1     -37.025  22.604   1.540  0.00  0.00    +0.053 C 
ATOM      5  C   UNL     1     -35.062  24.208   1.978  0.00  0.00    +0.041 C 
ATOM      6  C   UNL     1     -35.626  20.822   0.694  0.00  0.00    +0.182 C 
ATOM      7  C   UNL     1     -34.791  21.638   1.664  0.00  0.00    +0.062 C 
ATOM      8  C   UNL     1     -37.071  21.097   1.151  0.00  0.00    +0.029 C 
ATOM      9  C   UNL     1     -35.288  24.103   3.502  0.00  0.00    +0.026 C 
ATOM     10  C   UNL     1     -33.609  24.612   1.700  0.00  0.00    +0.004 C 
ATOM     11  C   UNL     1     -37.407  22.851   2.985  0.00  0.00    -0.028 C 
ATOM     12  C   UNL     1     -35.390  21.636  -0.558  0.00  0.00    +0.326 C 
ATOM     13  C   UNL     1     -35.047  25.476   4.141  0.00  0.00    +0.016 C 
ATOM     14  C   UNL     1     -33.276  25.968   2.353  0.00  0.00    +0.011 C 
ATOM     15  C   UNL     1     -37.985  23.422   0.659  0.00  0.00    +0.008 C 
ATOM     16  C   UNL     1     -36.641  23.533   3.851  0.00  0.00    -0.031 C 
ATOM     17  C   UNL     1     -33.621  25.974   3.857  0.00  0.00    +0.100 C 
ATOM     18  C   UNL     1     -31.799  26.303   2.114  0.00  0.00    +0.001 C 
ENDROOT
BRANCH   6  20
ATOM     19  O   UNL     1     -35.890  18.547  -0.012  0.00  0.00    -0.250 OA
ATOM     20  C   UNL     1     -35.275  19.379   0.641  0.00  0.00    +0.326 C 
BRANCH  20  21
ATOM     21  O   UNL     1     -34.183  19.147   1.425  0.00  0.00    -0.444 OA
ATOM     22  C   UNL     1     -33.124  18.414   0.800  0.00  0.00    +0.256 C 
ENDBRANCH  20  21
ENDBRANCH   6  20
BRANCH  17  24
ATOM     23  O   UNL     1     -33.924  28.358   3.856  0.00  0.00    -0.250 OA
ATOM     24  C   UNL     1     -33.502  27.359   4.422  0.00  0.00    +0.325 C 
BRANCH  24  25
ATOM     25  O   UNL     1     -32.868  27.292   5.631  0.00  0.00    -0.361 OA
BRANCH  25  27
ATOM     26  O   UNL     1     -32.112  29.306   6.491  0.00  0.00    -0.202 OA
ATOM     27  C   UNL     1     -31.932  28.244   5.912  0.00  0.00    +0.519 C 
BRANCH  27  28
ATOM     28  O   UNL     1     -30.737  27.800   5.428  0.00  0.00    -0.414 OA
ATOM     29  C   UNL     1     -30.013  28.731   4.615  0.00  0.00    +0.259 C 
ENDBRANCH  27  28
ENDBRANCH  25  27
ENDBRANCH  24  25
ENDBRANCH  17  24
TORSDOF 6
ENDMDL
