MODEL 1
REMARK VINA RESULT:      -7.3      0.000      0.000
REMARK  Name = 54711171
REMARK  9 active torsions:
REMARK  status: ('A' for Active; 'I' for Inactive)
REMARK    1  A    between atoms: C_5  and  C_13
REMARK    2  A    between atoms: C_9  and  O_26
REMARK    3  A    between atoms: C_10  and  C_24
REMARK    4  A    between atoms: C_12  and  C_28
REMARK    5  A    between atoms: C_16  and  O_19
REMARK    6  A    between atoms: C_18  and  O_21
REMARK    7  A    between atoms: C_29  and  C_30
REMARK    8  A    between atoms: C_33  and  O_36
REMARK    9  A    between atoms: C_35  and  O_38
REMARK                            x       y       z     vdW  Elec       q    Type
REMARK                         _______ _______ _______ _____ _____    ______ ____
ROOT
ATOM      1  O   UNL     1     -30.410  38.974   1.814  0.00  0.00    -0.444 OA
ATOM      2  O   UNL     1     -34.780  38.681   0.117  0.00  0.00    -0.457 OA
ATOM      3  O   UNL     1     -29.892  36.801   1.296  0.00  0.00    -0.245 OA
ATOM      4  C   UNL     1     -32.799  38.918   1.599  0.00  0.00    +0.133 C 
ATOM      5  C   UNL     1     -31.596  39.757   2.056  0.00  0.00    +0.203 C 
ATOM      6  C   UNL     1     -32.173  37.581   1.389  0.00  0.00    +0.098 C 
ATOM      7  C   UNL     1     -33.556  39.314   0.348  0.00  0.00    +0.133 C 
ATOM      8  C   UNL     1     -30.706  37.687   1.485  0.00  0.00    +0.341 C 
ATOM      9  C   UNL     1     -32.851  36.462   1.089  0.00  0.00    +0.139 C 
ATOM     10  C   UNL     1     -33.182  40.252  -0.534  0.00  0.00    +0.071 C 
ATOM     11  C   UNL     1     -34.295  36.433   0.990  0.00  0.00    +0.074 C 
ATOM     12  C   UNL     1     -35.119  37.421   0.578  0.00  0.00    +0.148 C 
ENDROOT
BRANCH   5  13
ATOM     13  C   UNL     1     -31.674  40.154   3.520  0.00  0.00    +0.021 C 
ATOM     14  C   UNL     1     -30.979  39.419   4.481  0.00  0.00    +0.039 C 
ATOM     15  C   UNL     1     -32.440  41.254   3.904  0.00  0.00    +0.003 C 
ATOM     16  C   UNL     1     -31.050  39.784   5.825  0.00  0.00    +0.167 C 
ATOM     17  C   UNL     1     -32.512  41.619   5.249  0.00  0.00    +0.040 C 
ATOM     18  C   UNL     1     -31.816  40.885   6.209  0.00  0.00    +0.167 C 
BRANCH  16  19
ATOM     19  O   UNL     1     -30.364  39.060   6.753  0.00  0.00    -0.503 OA
ATOM     20  H   UNL     1     -30.471  39.246   7.665  0.00  0.00    +0.292 HD
ENDBRANCH  16  19
BRANCH  18  21
ATOM     21  O   UNL     1     -31.894  41.251   7.519  0.00  0.00    -0.503 OA
ATOM     22  H   UNL     1     -31.139  41.598   7.953  0.00  0.00    +0.292 HD
ENDBRANCH  18  21
ENDBRANCH   5  13
BRANCH  10  24
ATOM     23  O   UNL     1     -34.791  41.498  -1.768  0.00  0.00    -0.291 OA
ATOM     24  C   UNL     1     -34.018  40.544  -1.727  0.00  0.00    +0.176 C 
ATOM     25  C   UNL     1     -33.894  39.590  -2.885  0.00  0.00    +0.077 C 
ENDBRANCH  10  24
BRANCH   9  26
ATOM     26  O   UNL     1     -32.269  35.227   0.904  0.00  0.00    -0.505 OA
ATOM     27  H   UNL     1     -32.532  34.501   1.435  0.00  0.00    +0.292 HD
ENDBRANCH   9  26
BRANCH  12  28
ATOM     28  C   UNL     1     -36.544  37.197   0.516  0.00  0.00    +0.038 C 
ATOM     29  C   UNL     1     -37.177  36.328   1.310  0.00  0.00    +0.003 C 
BRANCH  29  30
ATOM     30  C   UNL     1     -38.625  36.058   1.276  0.00  0.00    +0.003 C 
ATOM     31  C   UNL     1     -39.339  35.929   2.467  0.00  0.00    +0.040 C 
ATOM     32  C   UNL     1     -39.283  35.932   0.052  0.00  0.00    +0.003 C 
ATOM     33  C   UNL     1     -40.710  35.675   2.435  0.00  0.00    +0.167 C 
ATOM     34  C   UNL     1     -40.653  35.677   0.020  0.00  0.00    +0.040 C 
ATOM     35  C   UNL     1     -41.368  35.548   1.212  0.00  0.00    +0.167 C 
BRANCH  33  36
ATOM     36  O   UNL     1     -41.396  35.551   3.606  0.00  0.00    -0.503 OA
ATOM     37  H   UNL     1     -42.214  35.993   3.718  0.00  0.00    +0.292 HD
ENDBRANCH  33  36
BRANCH  35  38
ATOM     38  O   UNL     1     -42.706  35.299   1.167  0.00  0.00    -0.503 OA
ATOM     39  H   UNL     1     -43.202  35.262   1.960  0.00  0.00    +0.292 HD
ENDBRANCH  35  38
ENDBRANCH  29  30
ENDBRANCH  12  28
TORSDOF 9
ENDMDL
MODEL 2
REMARK VINA RESULT:      -7.3      4.813      8.772
REMARK  Name = 54711171
REMARK  9 active torsions:
REMARK  status: ('A' for Active; 'I' for Inactive)
REMARK    1  A    between atoms: C_5  and  C_13
REMARK    2  A    between atoms: C_9  and  O_26
REMARK    3  A    between atoms: C_10  and  C_24
REMARK    4  A    between atoms: C_12  and  C_28
REMARK    5  A    between atoms: C_16  and  O_19
REMARK    6  A    between atoms: C_18  and  O_21
REMARK    7  A    between atoms: C_29  and  C_30
REMARK    8  A    between atoms: C_33  and  O_36
REMARK    9  A    between atoms: C_35  and  O_38
REMARK                            x       y       z     vdW  Elec       q    Type
REMARK                         _______ _______ _______ _____ _____    ______ ____
ROOT
ATOM      1  O   UNL     1     -37.262  36.494  -0.553  0.00  0.00    -0.444 OA
ATOM      2  O   UNL     1     -34.622  32.896   0.912  0.00  0.00    -0.457 OA
ATOM      3  O   UNL     1     -35.514  37.976  -0.575  0.00  0.00    -0.245 OA
ATOM      4  C   UNL     1     -36.310  34.712   0.742  0.00  0.00    +0.133 C 
ATOM      5  C   UNL     1     -37.597  35.251   0.096  0.00  0.00    +0.203 C 
ATOM      6  C   UNL     1     -35.397  35.886   0.623  0.00  0.00    +0.098 C 
ATOM      7  C   UNL     1     -35.630  33.493   0.151  0.00  0.00    +0.133 C 
ATOM      8  C   UNL     1     -36.016  36.925  -0.220  0.00  0.00    +0.341 C 
ATOM      9  C   UNL     1     -34.167  35.950   1.155  0.00  0.00    +0.139 C 
ATOM     10  C   UNL     1     -35.940  32.906  -1.014  0.00  0.00    +0.071 C 
ATOM     11  C   UNL     1     -33.613  34.880   1.958  0.00  0.00    +0.074 C 
ATOM     12  C   UNL     1     -33.839  33.554   1.845  0.00  0.00    +0.148 C 
ENDROOT
BRANCH   5  13
ATOM     13  C   UNL     1     -38.716  35.466   1.100  0.00  0.00    +0.021 C 
ATOM     14  C   UNL     1     -38.439  35.452   2.467  0.00  0.00    +0.039 C 
ATOM     15  C   UNL     1     -40.020  35.679   0.655  0.00  0.00    +0.003 C 
ATOM     16  C   UNL     1     -39.468  35.651   3.389  0.00  0.00    +0.167 C 
ATOM     17  C   UNL     1     -41.048  35.878   1.576  0.00  0.00    +0.040 C 
ATOM     18  C   UNL     1     -40.772  35.864   2.943  0.00  0.00    +0.167 C 
BRANCH  16  19
ATOM     19  O   UNL     1     -39.184  35.637   4.722  0.00  0.00    -0.503 OA
ATOM     20  H   UNL     1     -39.398  34.885   5.239  0.00  0.00    +0.292 HD
ENDBRANCH  16  19
BRANCH  18  21
ATOM     21  O   UNL     1     -41.784  36.059   3.834  0.00  0.00    -0.503 OA
ATOM     22  H   UNL     1     -41.591  36.322   4.713  0.00  0.00    +0.292 HD
ENDBRANCH  18  21
ENDBRANCH   5  13
BRANCH  10  24
ATOM     23  O   UNL     1     -34.161  31.801  -2.143  0.00  0.00    -0.291 OA
ATOM     24  C   UNL     1     -35.191  31.712  -1.481  0.00  0.00    +0.176 C 
ATOM     25  C   UNL     1     -35.777  30.370  -1.126  0.00  0.00    +0.077 C 
ENDBRANCH  10  24
BRANCH   9  26
ATOM     26  O   UNL     1     -33.331  37.039   1.051  0.00  0.00    -0.505 OA
ATOM     27  H   UNL     1     -32.489  36.948   0.651  0.00  0.00    +0.292 HD
ENDBRANCH   9  26
BRANCH  12  28
ATOM     28  C   UNL     1     -33.167  32.626   2.724  0.00  0.00    +0.038 C 
ATOM     29  C   UNL     1     -33.651  31.411   3.003  0.00  0.00    +0.003 C 
BRANCH  29  30
ATOM     30  C   UNL     1     -33.008  30.435   3.900  0.00  0.00    +0.003 C 
ATOM     31  C   UNL     1     -33.030  29.078   3.584  0.00  0.00    +0.040 C 
ATOM     32  C   UNL     1     -32.377  30.870   5.066  0.00  0.00    +0.003 C 
ATOM     33  C   UNL     1     -32.421  28.153   4.433  0.00  0.00    +0.167 C 
ATOM     34  C   UNL     1     -31.768  29.947   5.915  0.00  0.00    +0.040 C 
ATOM     35  C   UNL     1     -31.790  28.588   5.599  0.00  0.00    +0.167 C 
BRANCH  33  36
ATOM     36  O   UNL     1     -32.449  26.829   4.114  0.00  0.00    -0.503 OA
ATOM     37  H   UNL     1     -31.732  26.444   3.649  0.00  0.00    +0.292 HD
ENDBRANCH  33  36
BRANCH  35  38
ATOM     38  O   UNL     1     -31.192  27.695   6.437  0.00  0.00    -0.503 OA
ATOM     39  H   UNL     1     -31.715  27.140   6.980  0.00  0.00    +0.292 HD
ENDBRANCH  35  38
ENDBRANCH  29  30
ENDBRANCH  12  28
TORSDOF 9
ENDMDL
MODEL 3
REMARK VINA RESULT:      -7.1      2.245      8.702
REMARK  Name = 54711171
REMARK  9 active torsions:
REMARK  status: ('A' for Active; 'I' for Inactive)
REMARK    1  A    between atoms: C_5  and  C_13
REMARK    2  A    between atoms: C_9  and  O_26
REMARK    3  A    between atoms: C_10  and  C_24
REMARK    4  A    between atoms: C_12  and  C_28
REMARK    5  A    between atoms: C_16  and  O_19
REMARK    6  A    between atoms: C_18  and  O_21
REMARK    7  A    between atoms: C_29  and  C_30
REMARK    8  A    between atoms: C_33  and  O_36
REMARK    9  A    between atoms: C_35  and  O_38
REMARK                            x       y       z     vdW  Elec       q    Type
REMARK                         _______ _______ _______ _____ _____    ______ ____
ROOT
ATOM      1  O   UNL     1     -37.715  35.143  -0.911  0.00  0.00    -0.444 OA
ATOM      2  O   UNL     1     -34.119  37.376   1.125  0.00  0.00    -0.457 OA
ATOM      3  O   UNL     1     -37.576  36.353  -2.853  0.00  0.00    -0.245 OA
ATOM      4  C   UNL     1     -36.369  36.494   0.546  0.00  0.00    +0.133 C 
ATOM      5  C   UNL     1     -37.329  35.296   0.470  0.00  0.00    +0.203 C 
ATOM      6  C   UNL     1     -36.527  37.094  -0.811  0.00  0.00    +0.098 C 
ATOM      7  C   UNL     1     -34.897  36.257   0.815  0.00  0.00    +0.133 C 
ATOM      8  C   UNL     1     -37.321  36.199  -1.672  0.00  0.00    +0.341 C 
ATOM      9  C   UNL     1     -35.968  38.250  -1.200  0.00  0.00    +0.139 C 
ATOM     10  C   UNL     1     -34.281  35.067   0.831  0.00  0.00    +0.071 C 
ATOM     11  C   UNL     1     -35.181  39.072  -0.305  0.00  0.00    +0.074 C 
ATOM     12  C   UNL     1     -34.394  38.669   0.715  0.00  0.00    +0.148 C 
ENDROOT
BRANCH   5  13
ATOM     13  C   UNL     1     -38.559  35.468   1.344  0.00  0.00    +0.021 C 
ATOM     14  C   UNL     1     -39.815  35.625   0.758  0.00  0.00    +0.039 C 
ATOM     15  C   UNL     1     -38.432  35.468   2.733  0.00  0.00    +0.003 C 
ATOM     16  C   UNL     1     -40.945  35.782   1.562  0.00  0.00    +0.167 C 
ATOM     17  C   UNL     1     -39.562  35.625   3.536  0.00  0.00    +0.040 C 
ATOM     18  C   UNL     1     -40.818  35.782   2.951  0.00  0.00    +0.167 C 
BRANCH  16  19
ATOM     19  O   UNL     1     -42.166  35.932   0.977  0.00  0.00    -0.503 OA
ATOM     20  H   UNL     1     -42.314  35.608   0.111  0.00  0.00    +0.292 HD
ENDBRANCH  16  19
BRANCH  18  21
ATOM     21  O   UNL     1     -41.914  35.935   3.745  0.00  0.00    -0.503 OA
ATOM     22  H   UNL     1     -42.104  35.300   4.408  0.00  0.00    +0.292 HD
ENDBRANCH  18  21
ENDBRANCH   5  13
BRANCH  10  24
ATOM     23  O   UNL     1     -31.982  35.034   0.219  0.00  0.00    -0.291 OA
ATOM     24  C   UNL     1     -32.825  34.972   1.109  0.00  0.00    +0.176 C 
ATOM     25  C   UNL     1     -32.427  34.765   2.547  0.00  0.00    +0.077 C 
ENDBRANCH  10  24
BRANCH   9  26
ATOM     26  O   UNL     1     -36.124  38.806  -2.451  0.00  0.00    -0.505 OA
ATOM     27  H   UNL     1     -35.850  38.333  -3.211  0.00  0.00    +0.292 HD
ENDBRANCH   9  26
BRANCH  12  28
ATOM     28  C   UNL     1     -33.654  39.640   1.487  0.00  0.00    +0.038 C 
ATOM     29  C   UNL     1     -34.246  40.600   2.204  0.00  0.00    +0.003 C 
BRANCH  29  30
ATOM     30  C   UNL     1     -33.534  41.617   2.997  0.00  0.00    +0.003 C 
ATOM     31  C   UNL     1     -33.569  42.956   2.609  0.00  0.00    +0.040 C 
ATOM     32  C   UNL     1     -32.825  41.241   4.139  0.00  0.00    +0.003 C 
ATOM     33  C   UNL     1     -32.896  43.919   3.359  0.00  0.00    +0.167 C 
ATOM     34  C   UNL     1     -32.151  42.204   4.889  0.00  0.00    +0.040 C 
ATOM     35  C   UNL     1     -32.186  43.544   4.500  0.00  0.00    +0.167 C 
BRANCH  33  36
ATOM     36  O   UNL     1     -32.938  45.224   2.969  0.00  0.00    -0.503 OA
ATOM     37  H   UNL     1     -33.274  45.449   2.124  0.00  0.00    +0.292 HD
ENDBRANCH  33  36
BRANCH  35  38
ATOM     38  O   UNL     1     -31.524  44.474   5.242  0.00  0.00    -0.503 OA
ATOM     39  H   UNL     1     -30.925  44.202   5.909  0.00  0.00    +0.292 HD
ENDBRANCH  35  38
ENDBRANCH  29  30
ENDBRANCH  12  28
TORSDOF 9
ENDMDL
MODEL 4
REMARK VINA RESULT:      -7.1      5.816     10.153
REMARK  Name = 54711171
REMARK  9 active torsions:
REMARK  status: ('A' for Active; 'I' for Inactive)
REMARK    1  A    between atoms: C_5  and  C_13
REMARK    2  A    between atoms: C_9  and  O_26
REMARK    3  A    between atoms: C_10  and  C_24
REMARK    4  A    between atoms: C_12  and  C_28
REMARK    5  A    between atoms: C_16  and  O_19
REMARK    6  A    between atoms: C_18  and  O_21
REMARK    7  A    between atoms: C_29  and  C_30
REMARK    8  A    between atoms: C_33  and  O_36
REMARK    9  A    between atoms: C_35  and  O_38
REMARK                            x       y       z     vdW  Elec       q    Type
REMARK                         _______ _______ _______ _____ _____    ______ ____
ROOT
ATOM      1  O   UNL     1     -38.057  33.874  -0.810  0.00  0.00    -0.444 OA
ATOM      2  O   UNL     1     -35.552  30.953   1.883  0.00  0.00    -0.457 OA
ATOM      3  O   UNL     1     -36.209  34.815  -1.787  0.00  0.00    -0.245 OA
ATOM      4  C   UNL     1     -37.046  32.761   1.060  0.00  0.00    +0.133 C 
ATOM      5  C   UNL     1     -38.376  33.167   0.405  0.00  0.00    +0.203 C 
ATOM      6  C   UNL     1     -36.062  33.547   0.260  0.00  0.00    +0.098 C 
ATOM      7  C   UNL     1     -36.629  31.304   1.065  0.00  0.00    +0.133 C 
ATOM      8  C   UNL     1     -36.731  34.167  -0.898  0.00  0.00    +0.341 C 
ATOM      9  C   UNL     1     -34.749  33.619   0.526  0.00  0.00    +0.139 C 
ATOM     10  C   UNL     1     -37.229  30.311   0.393  0.00  0.00    +0.071 C 
ATOM     11  C   UNL     1     -34.153  32.966   1.673  0.00  0.00    +0.074 C 
ATOM     12  C   UNL     1     -34.532  31.810   2.259  0.00  0.00    +0.148 C 
ENDROOT
BRANCH   5  13
ATOM     13  C   UNL     1     -39.237  34.033   1.307  0.00  0.00    +0.021 C 
ATOM     14  C   UNL     1     -40.628  33.972   1.214  0.00  0.00    +0.039 C 
ATOM     15  C   UNL     1     -38.638  34.890   2.231  0.00  0.00    +0.003 C 
ATOM     16  C   UNL     1     -41.418  34.767   2.043  0.00  0.00    +0.167 C 
ATOM     17  C   UNL     1     -39.429  35.685   3.060  0.00  0.00    +0.040 C 
ATOM     18  C   UNL     1     -40.819  35.623   2.967  0.00  0.00    +0.167 C 
BRANCH  16  19
ATOM     19  O   UNL     1     -42.775  34.696   1.944  0.00  0.00    -0.503 OA
ATOM     20  H   UNL     1     -43.309  34.828   2.702  0.00  0.00    +0.292 HD
ENDBRANCH  16  19
BRANCH  18  21
ATOM     21  O   UNL     1     -41.581  36.404   3.782  0.00  0.00    -0.503 OA
ATOM     22  H   UNL     1     -41.399  37.320   3.858  0.00  0.00    +0.292 HD
ENDBRANCH  18  21
ENDBRANCH   5  13
BRANCH  10  24
ATOM     23  O   UNL     1     -37.114  28.129   1.335  0.00  0.00    -0.291 OA
ATOM     24  C   UNL     1     -36.717  28.919   0.483  0.00  0.00    +0.176 C 
ATOM     25  C   UNL     1     -35.656  28.528  -0.511  0.00  0.00    +0.077 C 
ENDBRANCH  10  24
BRANCH   9  26
ATOM     26  O   UNL     1     -33.846  34.353  -0.210  0.00  0.00    -0.505 OA
ATOM     27  H   UNL     1     -34.030  34.565  -1.103  0.00  0.00    +0.292 HD
ENDBRANCH   9  26
BRANCH  12  28
ATOM     28  C   UNL     1     -33.792  31.292   3.386  0.00  0.00    +0.038 C 
ATOM     29  C   UNL     1     -32.463  31.145   3.375  0.00  0.00    +0.003 C 
BRANCH  29  30
ATOM     30  C   UNL     1     -31.667  30.613   4.495  0.00  0.00    +0.003 C 
ATOM     31  C   UNL     1     -32.252  29.749   5.419  0.00  0.00    +0.040 C 
ATOM     32  C   UNL     1     -30.325  30.973   4.629  0.00  0.00    +0.003 C 
ATOM     33  C   UNL     1     -31.499  29.245   6.479  0.00  0.00    +0.167 C 
ATOM     34  C   UNL     1     -29.571  30.469   5.689  0.00  0.00    +0.040 C 
ATOM     35  C   UNL     1     -30.158  29.605   6.614  0.00  0.00    +0.167 C 
BRANCH  33  36
ATOM     36  O   UNL     1     -32.083  28.402   7.376  0.00  0.00    -0.503 OA
ATOM     37  H   UNL     1     -32.995  28.487   7.573  0.00  0.00    +0.292 HD
ENDBRANCH  33  36
BRANCH  35  38
ATOM     38  O   UNL     1     -29.411  29.119   7.645  0.00  0.00    -0.503 OA
ATOM     39  H   UNL     1     -28.617  29.552   7.891  0.00  0.00    +0.292 HD
ENDBRANCH  35  38
ENDBRANCH  29  30
ENDBRANCH  12  28
TORSDOF 9
ENDMDL
MODEL 5
REMARK VINA RESULT:      -7.0     11.330     14.254
REMARK  Name = 54711171
REMARK  9 active torsions:
REMARK  status: ('A' for Active; 'I' for Inactive)
REMARK    1  A    between atoms: C_5  and  C_13
REMARK    2  A    between atoms: C_9  and  O_26
REMARK    3  A    between atoms: C_10  and  C_24
REMARK    4  A    between atoms: C_12  and  C_28
REMARK    5  A    between atoms: C_16  and  O_19
REMARK    6  A    between atoms: C_18  and  O_21
REMARK    7  A    between atoms: C_29  and  C_30
REMARK    8  A    between atoms: C_33  and  O_36
REMARK    9  A    between atoms: C_35  and  O_38
REMARK                            x       y       z     vdW  Elec       q    Type
REMARK                         _______ _______ _______ _____ _____    ______ ____
ROOT
ATOM      1  O   UNL     1     -37.079  23.218   0.716  0.00  0.00    -0.444 OA
ATOM      2  O   UNL     1     -39.818  26.951   1.503  0.00  0.00    -0.457 OA
ATOM      3  O   UNL     1     -38.728  22.032  -0.347  0.00  0.00    -0.245 OA
ATOM      4  C   UNL     1     -38.383  24.939   1.763  0.00  0.00    +0.133 C 
ATOM      5  C   UNL     1     -36.988  24.301   1.664  0.00  0.00    +0.203 C 
ATOM      6  C   UNL     1     -39.224  23.942   1.039  0.00  0.00    +0.098 C 
ATOM      7  C   UNL     1     -38.621  26.313   1.169  0.00  0.00    +0.133 C 
ATOM      8  C   UNL     1     -38.368  22.940   0.380  0.00  0.00    +0.341 C 
ATOM      9  C   UNL     1     -40.562  23.996   0.952  0.00  0.00    +0.139 C 
ATOM     10  C   UNL     1     -37.767  26.993   0.390  0.00  0.00    +0.071 C 
ATOM     11  C   UNL     1     -41.342  25.024   1.611  0.00  0.00    +0.074 C 
ATOM     12  C   UNL     1     -40.989  26.304   1.855  0.00  0.00    +0.148 C 
ENDROOT
BRANCH   5  13
ATOM     13  C   UNL     1     -36.476  23.790   2.999  0.00  0.00    +0.021 C 
ATOM     14  C   UNL     1     -36.112  22.452   3.141  0.00  0.00    +0.039 C 
ATOM     15  C   UNL     1     -36.370  24.661   4.083  0.00  0.00    +0.003 C 
ATOM     16  C   UNL     1     -35.640  21.984   4.368  0.00  0.00    +0.167 C 
ATOM     17  C   UNL     1     -35.899  24.193   5.310  0.00  0.00    +0.040 C 
ATOM     18  C   UNL     1     -35.534  22.855   5.452  0.00  0.00    +0.167 C 
BRANCH  16  19
ATOM     19  O   UNL     1     -35.285  20.674   4.494  0.00  0.00    -0.503 OA
ATOM     20  H   UNL     1     -35.388  20.089   3.769  0.00  0.00    +0.292 HD
ENDBRANCH  16  19
BRANCH  18  21
ATOM     21  O   UNL     1     -35.075  22.409   6.655  0.00  0.00    -0.503 OA
ATOM     22  H   UNL     1     -34.166  22.211   6.765  0.00  0.00    +0.292 HD
ENDBRANCH  18  21
ENDBRANCH   5  13
BRANCH  10  24
ATOM     23  O   UNL     1     -37.875  29.368   0.489  0.00  0.00    -0.291 OA
ATOM     24  C   UNL     1     -38.125  28.337  -0.130  0.00  0.00    +0.176 C 
ATOM     25  C   UNL     1     -38.842  28.377  -1.453  0.00  0.00    +0.077 C 
ENDBRANCH  10  24
BRANCH   9  26
ATOM     26  O   UNL     1     -41.336  23.068   0.291  0.00  0.00    -0.505 OA
ATOM     27  H   UNL     1     -41.206  22.915  -0.623  0.00  0.00    +0.292 HD
ENDBRANCH   9  26
BRANCH  12  28
ATOM     28  C   UNL     1     -41.918  27.200   2.502  0.00  0.00    +0.038 C 
ATOM     29  C   UNL     1     -42.346  27.020   3.756  0.00  0.00    +0.003 C 
BRANCH  29  30
ATOM     30  C   UNL     1     -43.299  27.900   4.455  0.00  0.00    +0.003 C 
ATOM     31  C   UNL     1     -42.876  29.133   4.951  0.00  0.00    +0.040 C 
ATOM     32  C   UNL     1     -44.626  27.501   4.618  0.00  0.00    +0.003 C 
ATOM     33  C   UNL     1     -43.778  29.966   5.612  0.00  0.00    +0.167 C 
ATOM     34  C   UNL     1     -45.528  28.334   5.279  0.00  0.00    +0.040 C 
ATOM     35  C   UNL     1     -45.105  29.567   5.776  0.00  0.00    +0.167 C 
BRANCH  33  36
ATOM     36  O   UNL     1     -43.353  31.168   6.093  0.00  0.00    -0.503 OA
ATOM     37  H   UNL     1     -42.516  31.236   6.508  0.00  0.00    +0.292 HD
ENDBRANCH  33  36
BRANCH  35  38
ATOM     38  O   UNL     1     -45.996  30.372   6.420  0.00  0.00    -0.503 OA
ATOM     39  H   UNL     1     -45.861  31.298   6.438  0.00  0.00    +0.292 HD
ENDBRANCH  35  38
ENDBRANCH  29  30
ENDBRANCH  12  28
TORSDOF 9
ENDMDL
MODEL 6
REMARK VINA RESULT:      -7.0     14.426     17.643
REMARK  Name = 54711171
REMARK  9 active torsions:
REMARK  status: ('A' for Active; 'I' for Inactive)
REMARK    1  A    between atoms: C_5  and  C_13
REMARK    2  A    between atoms: C_9  and  O_26
REMARK    3  A    between atoms: C_10  and  C_24
REMARK    4  A    between atoms: C_12  and  C_28
REMARK    5  A    between atoms: C_16  and  O_19
REMARK    6  A    between atoms: C_18  and  O_21
REMARK    7  A    between atoms: C_29  and  C_30
REMARK    8  A    between atoms: C_33  and  O_36
REMARK    9  A    between atoms: C_35  and  O_38
REMARK                            x       y       z     vdW  Elec       q    Type
REMARK                         _______ _______ _______ _____ _____    ______ ____
ROOT
ATOM      1  O   UNL     1     -37.106  26.018   3.453  0.00  0.00    -0.444 OA
ATOM      2  O   UNL     1     -34.870  22.353   1.547  0.00  0.00    -0.457 OA
ATOM      3  O   UNL     1     -36.328  25.597   5.568  0.00  0.00    -0.245 OA
ATOM      4  C   UNL     1     -36.599  23.934   2.376  0.00  0.00    +0.133 C 
ATOM      5  C   UNL     1     -37.321  25.283   2.231  0.00  0.00    +0.203 C 
ATOM      6  C   UNL     1     -36.263  23.925   3.830  0.00  0.00    +0.098 C 
ATOM      7  C   UNL     1     -35.341  23.668   1.575  0.00  0.00    +0.133 C 
ATOM      8  C   UNL     1     -36.551  25.243   4.424  0.00  0.00    +0.341 C 
ATOM      9  C   UNL     1     -35.717  22.886   4.478  0.00  0.00    +0.139 C 
ATOM     10  C   UNL     1     -34.664  24.570   0.850  0.00  0.00    +0.071 C 
ATOM     11  C   UNL     1     -35.441  21.623   3.825  0.00  0.00    +0.074 C 
ATOM     12  C   UNL     1     -35.089  21.413   2.539  0.00  0.00    +0.148 C 
ENDROOT
BRANCH   5  13
ATOM     13  C   UNL     1     -38.808  25.132   1.963  0.00  0.00    +0.021 C 
ATOM     14  C   UNL     1     -39.283  24.016   1.275  0.00  0.00    +0.039 C 
ATOM     15  C   UNL     1     -39.699  26.109   2.406  0.00  0.00    +0.003 C 
ATOM     16  C   UNL     1     -40.649  23.877   1.030  0.00  0.00    +0.167 C 
ATOM     17  C   UNL     1     -41.065  25.970   2.161  0.00  0.00    +0.040 C 
ATOM     18  C   UNL     1     -41.540  24.854   1.473  0.00  0.00    +0.167 C 
BRANCH  16  19
ATOM     19  O   UNL     1     -41.101  22.780   0.359  0.00  0.00    -0.503 OA
ATOM     20  H   UNL     1     -40.989  21.926   0.727  0.00  0.00    +0.292 HD
ENDBRANCH  16  19
BRANCH  18  21
ATOM     21  O   UNL     1     -42.876  24.729   1.239  0.00  0.00    -0.503 OA
ATOM     22  H   UNL     1     -43.354  25.441   0.860  0.00  0.00    +0.292 HD
ENDBRANCH  18  21
ENDBRANCH   5  13
BRANCH  10  24
ATOM     23  O   UNL     1     -32.310  24.402   0.539  0.00  0.00    -0.291 OA
ATOM     24  C   UNL     1     -33.438  24.179   0.108  0.00  0.00    +0.176 C 
ATOM     25  C   UNL     1     -33.645  23.513  -1.227  0.00  0.00    +0.077 C 
ENDBRANCH  10  24
BRANCH   9  26
ATOM     26  O   UNL     1     -35.417  22.878   5.822  0.00  0.00    -0.505 OA
ATOM     27  H   UNL     1     -36.091  22.720   6.452  0.00  0.00    +0.292 HD
ENDBRANCH   9  26
BRANCH  12  28
ATOM     28  C   UNL     1     -34.822  20.073   2.070  0.00  0.00    +0.038 C 
ATOM     29  C   UNL     1     -33.802  19.780   1.257  0.00  0.00    +0.003 C 
BRANCH  29  30
ATOM     30  C   UNL     1     -33.495  18.433   0.745  0.00  0.00    +0.003 C 
ATOM     31  C   UNL     1     -32.200  17.926   0.844  0.00  0.00    +0.040 C 
ATOM     32  C   UNL     1     -34.502  17.663   0.161  0.00  0.00    +0.003 C 
ATOM     33  C   UNL     1     -31.910  16.651   0.359  0.00  0.00    +0.167 C 
ATOM     34  C   UNL     1     -34.212  16.388  -0.325  0.00  0.00    +0.040 C 
ATOM     35  C   UNL     1     -32.915  15.882  -0.226  0.00  0.00    +0.167 C 
BRANCH  33  36
ATOM     36  O   UNL     1     -30.640  16.168   0.461  0.00  0.00    -0.503 OA
ATOM     37  H   UNL     1     -29.963  16.703   0.827  0.00  0.00    +0.292 HD
ENDBRANCH  33  36
BRANCH  35  38
ATOM     38  O   UNL     1     -32.645  14.635  -0.703  0.00  0.00    -0.503 OA
ATOM     39  H   UNL     1     -32.621  13.905  -0.117  0.00  0.00    +0.292 HD
ENDBRANCH  35  38
ENDBRANCH  29  30
ENDBRANCH  12  28
TORSDOF 9
ENDMDL
MODEL 7
REMARK VINA RESULT:      -7.0     14.371     18.156
REMARK  Name = 54711171
REMARK  9 active torsions:
REMARK  status: ('A' for Active; 'I' for Inactive)
REMARK    1  A    between atoms: C_5  and  C_13
REMARK    2  A    between atoms: C_9  and  O_26
REMARK    3  A    between atoms: C_10  and  C_24
REMARK    4  A    between atoms: C_12  and  C_28
REMARK    5  A    between atoms: C_16  and  O_19
REMARK    6  A    between atoms: C_18  and  O_21
REMARK    7  A    between atoms: C_29  and  C_30
REMARK    8  A    between atoms: C_33  and  O_36
REMARK    9  A    between atoms: C_35  and  O_38
REMARK                            x       y       z     vdW  Elec       q    Type
REMARK                         _______ _______ _______ _____ _____    ______ ____
ROOT
ATOM      1  O   UNL     1     -39.798  23.126   2.201  0.00  0.00    -0.444 OA
ATOM      2  O   UNL     1     -35.294  21.804   2.364  0.00  0.00    -0.457 OA
ATOM      3  O   UNL     1     -40.543  21.068   1.518  0.00  0.00    -0.245 OA
ATOM      4  C   UNL     1     -37.446  22.902   1.781  0.00  0.00    +0.133 C 
ATOM      5  C   UNL     1     -38.568  23.878   2.169  0.00  0.00    +0.203 C 
ATOM      6  C   UNL     1     -38.223  21.704   1.347  0.00  0.00    +0.098 C 
ATOM      7  C   UNL     1     -36.427  22.481   2.822  0.00  0.00    +0.133 C 
ATOM      8  C   UNL     1     -39.649  21.881   1.673  0.00  0.00    +0.341 C 
ATOM      9  C   UNL     1     -37.683  20.604   0.801  0.00  0.00    +0.139 C 
ATOM     10  C   UNL     1     -36.490  22.742   4.135  0.00  0.00    +0.071 C 
ATOM     11  C   UNL     1     -36.266  20.490   0.526  0.00  0.00    +0.074 C 
ATOM     12  C   UNL     1     -35.240  21.037   1.214  0.00  0.00    +0.148 C 
ENDROOT
BRANCH   5  13
ATOM     13  C   UNL     1     -38.691  25.048   1.208  0.00  0.00    +0.021 C 
ATOM     14  C   UNL     1     -39.680  26.011   1.404  0.00  0.00    +0.039 C 
ATOM     15  C   UNL     1     -37.814  25.159   0.130  0.00  0.00    +0.003 C 
ATOM     16  C   UNL     1     -39.792  27.086   0.522  0.00  0.00    +0.167 C 
ATOM     17  C   UNL     1     -37.925  26.234  -0.752  0.00  0.00    +0.040 C 
ATOM     18  C   UNL     1     -38.915  27.197  -0.556  0.00  0.00    +0.167 C 
BRANCH  16  19
ATOM     19  O   UNL     1     -40.761  28.022   0.726  0.00  0.00    -0.503 OA
ATOM     20  H   UNL     1     -40.691  28.621   1.443  0.00  0.00    +0.292 HD
ENDBRANCH  16  19
BRANCH  18  21
ATOM     21  O   UNL     1     -39.014  28.242  -1.424  0.00  0.00    -0.503 OA
ATOM     22  H   UNL     1     -39.616  28.939  -1.251  0.00  0.00    +0.292 HD
ENDBRANCH  18  21
ENDBRANCH   5  13
BRANCH  10  24
ATOM     23  O   UNL     1     -35.263  21.082   5.319  0.00  0.00    -0.291 OA
ATOM     24  C   UNL     1     -35.421  22.270   5.052  0.00  0.00    +0.176 C 
ATOM     25  C   UNL     1     -34.548  23.331   5.668  0.00  0.00    +0.077 C 
ENDBRANCH  10  24
BRANCH   9  26
ATOM     26  O   UNL     1     -38.405  19.505   0.393  0.00  0.00    -0.505 OA
ATOM     27  H   UNL     1     -38.608  19.387  -0.513  0.00  0.00    +0.292 HD
ENDBRANCH   9  26
BRANCH  12  28
ATOM     28  C   UNL     1     -33.878  20.786   0.805  0.00  0.00    +0.038 C 
ATOM     29  C   UNL     1     -33.293  19.590   0.928  0.00  0.00    +0.003 C 
BRANCH  29  30
ATOM     30  C   UNL     1     -31.905  19.289   0.536  0.00  0.00    +0.003 C 
ATOM     31  C   UNL     1     -31.295  18.114   0.975  0.00  0.00    +0.040 C 
ATOM     32  C   UNL     1     -31.201  20.179  -0.276  0.00  0.00    +0.003 C 
ATOM     33  C   UNL     1     -29.982  17.828   0.604  0.00  0.00    +0.167 C 
ATOM     34  C   UNL     1     -29.887  19.893  -0.647  0.00  0.00    +0.040 C 
ATOM     35  C   UNL     1     -29.277  18.718  -0.207  0.00  0.00    +0.167 C 
BRANCH  33  36
ATOM     36  O   UNL     1     -29.397  16.677   1.040  0.00  0.00    -0.503 OA
ATOM     37  H   UNL     1     -29.190  15.997   0.430  0.00  0.00    +0.292 HD
ENDBRANCH  33  36
BRANCH  35  38
ATOM     38  O   UNL     1     -27.993  18.451  -0.577  0.00  0.00    -0.503 OA
ATOM     39  H   UNL     1     -27.638  18.842  -1.350  0.00  0.00    +0.292 HD
ENDBRANCH  35  38
ENDBRANCH  29  30
ENDBRANCH  12  28
TORSDOF 9
ENDMDL
MODEL 8
REMARK VINA RESULT:      -7.0      2.180      8.552
REMARK  Name = 54711171
REMARK  9 active torsions:
REMARK  status: ('A' for Active; 'I' for Inactive)
REMARK    1  A    between atoms: C_5  and  C_13
REMARK    2  A    between atoms: C_9  and  O_26
REMARK    3  A    between atoms: C_10  and  C_24
REMARK    4  A    between atoms: C_12  and  C_28
REMARK    5  A    between atoms: C_16  and  O_19
REMARK    6  A    between atoms: C_18  and  O_21
REMARK    7  A    between atoms: C_29  and  C_30
REMARK    8  A    between atoms: C_33  and  O_36
REMARK    9  A    between atoms: C_35  and  O_38
REMARK                            x       y       z     vdW  Elec       q    Type
REMARK                         _______ _______ _______ _____ _____    ______ ____
ROOT
ATOM      1  O   UNL     1     -37.290  35.435  -1.347  0.00  0.00    -0.444 OA
ATOM      2  O   UNL     1     -33.836  37.481   1.092  0.00  0.00    -0.457 OA
ATOM      3  O   UNL     1     -37.051  36.822  -3.156  0.00  0.00    -0.245 OA
ATOM      4  C   UNL     1     -36.042  36.649   0.304  0.00  0.00    +0.133 C 
ATOM      5  C   UNL     1     -36.986  35.460   0.062  0.00  0.00    +0.203 C 
ATOM      6  C   UNL     1     -36.127  37.373  -0.997  0.00  0.00    +0.098 C 
ATOM      7  C   UNL     1     -34.585  36.393   0.635  0.00  0.00    +0.133 C 
ATOM      8  C   UNL     1     -36.863  36.559  -1.982  0.00  0.00    +0.341 C 
ATOM      9  C   UNL     1     -35.557  38.561  -1.245  0.00  0.00    +0.139 C 
ATOM     10  C   UNL     1     -33.961  35.208   0.576  0.00  0.00    +0.071 C 
ATOM     11  C   UNL     1     -34.829  39.299  -0.234  0.00  0.00    +0.074 C 
ATOM     12  C   UNL     1     -34.098  38.805   0.789  0.00  0.00    +0.148 C 
ENDROOT
BRANCH   5  13
ATOM     13  C   UNL     1     -38.265  35.546   0.876  0.00  0.00    +0.021 C 
ATOM     14  C   UNL     1     -38.207  35.545   2.270  0.00  0.00    +0.039 C 
ATOM     15  C   UNL     1     -39.498  35.628   0.229  0.00  0.00    +0.003 C 
ATOM     16  C   UNL     1     -39.383  35.625   3.016  0.00  0.00    +0.167 C 
ATOM     17  C   UNL     1     -40.673  35.708   0.976  0.00  0.00    +0.040 C 
ATOM     18  C   UNL     1     -40.616  35.707   2.370  0.00  0.00    +0.167 C 
BRANCH  16  19
ATOM     19  O   UNL     1     -39.313  35.625   4.377  0.00  0.00    -0.503 OA
ATOM     20  H   UNL     1     -40.074  35.425   4.886  0.00  0.00    +0.292 HD
ENDBRANCH  16  19
BRANCH  18  21
ATOM     21  O   UNL     1     -41.770  35.785   3.089  0.00  0.00    -0.503 OA
ATOM     22  H   UNL     1     -42.422  36.419   2.861  0.00  0.00    +0.292 HD
ENDBRANCH  18  21
ENDBRANCH   5  13
BRANCH  10  24
ATOM     23  O   UNL     1     -31.630  35.244   0.097  0.00  0.00    -0.291 OA
ATOM     24  C   UNL     1     -32.523  35.093   0.927  0.00  0.00    +0.176 C 
ATOM     25  C   UNL     1     -32.206  34.749   2.359  0.00  0.00    +0.077 C 
ENDBRANCH  10  24
BRANCH   9  26
ATOM     26  O   UNL     1     -35.646  39.231  -2.445  0.00  0.00    -0.505 OA
ATOM     27  H   UNL     1     -36.477  39.333  -2.865  0.00  0.00    +0.292 HD
ENDBRANCH   9  26
BRANCH  12  28
ATOM     28  C   UNL     1     -33.411  39.702   1.688  0.00  0.00    +0.038 C 
ATOM     29  C   UNL     1     -33.961  40.832   2.145  0.00  0.00    +0.003 C 
BRANCH  29  30
ATOM     30  C   UNL     1     -33.297  41.782   3.054  0.00  0.00    +0.003 C 
ATOM     31  C   UNL     1     -33.429  43.155   2.847  0.00  0.00    +0.040 C 
ATOM     32  C   UNL     1     -32.535  41.309   4.123  0.00  0.00    +0.003 C 
ATOM     33  C   UNL     1     -32.801  44.055   3.708  0.00  0.00    +0.167 C 
ATOM     34  C   UNL     1     -31.907  42.208   4.984  0.00  0.00    +0.040 C 
ATOM     35  C   UNL     1     -32.039  43.582   4.777  0.00  0.00    +0.167 C 
BRANCH  33  36
ATOM     36  O   UNL     1     -32.938  45.394   3.495  0.00  0.00    -0.503 OA
ATOM     37  H   UNL     1     -33.589  45.709   2.900  0.00  0.00    +0.292 HD
ENDBRANCH  33  36
BRANCH  35  38
ATOM     38  O   UNL     1     -31.421  44.450   5.625  0.00  0.00    -0.503 OA
ATOM     39  H   UNL     1     -31.143  45.289   5.315  0.00  0.00    +0.292 HD
ENDBRANCH  35  38
ENDBRANCH  29  30
ENDBRANCH  12  28
TORSDOF 9
ENDMDL
MODEL 9
REMARK VINA RESULT:      -6.8     14.555     17.865
REMARK  Name = 54711171
REMARK  9 active torsions:
REMARK  status: ('A' for Active; 'I' for Inactive)
REMARK    1  A    between atoms: C_5  and  C_13
REMARK    2  A    between atoms: C_9  and  O_26
REMARK    3  A    between atoms: C_10  and  C_24
REMARK    4  A    between atoms: C_12  and  C_28
REMARK    5  A    between atoms: C_16  and  O_19
REMARK    6  A    between atoms: C_18  and  O_21
REMARK    7  A    between atoms: C_29  and  C_30
REMARK    8  A    between atoms: C_33  and  O_36
REMARK    9  A    between atoms: C_35  and  O_38
REMARK                            x       y       z     vdW  Elec       q    Type
REMARK                         _______ _______ _______ _____ _____    ______ ____
ROOT
ATOM      1  O   UNL     1     -38.863  24.652   2.546  0.00  0.00    -0.444 OA
ATOM      2  O   UNL     1     -35.685  21.194   2.631  0.00  0.00    -0.457 OA
ATOM      3  O   UNL     1     -40.605  23.256   2.028  0.00  0.00    -0.245 OA
ATOM      4  C   UNL     1     -36.996  23.226   2.056  0.00  0.00    +0.133 C 
ATOM      5  C   UNL     1     -37.427  24.656   2.420  0.00  0.00    +0.203 C 
ATOM      6  C   UNL     1     -38.306  22.590   1.730  0.00  0.00    +0.098 C 
ATOM      7  C   UNL     1     -36.274  22.378   3.084  0.00  0.00    +0.133 C 
ATOM      8  C   UNL     1     -39.412  23.492   2.096  0.00  0.00    +0.341 C 
ATOM      9  C   UNL     1     -38.447  21.350   1.238  0.00  0.00    +0.139 C 
ATOM     10  C   UNL     1     -36.108  22.682   4.378  0.00  0.00    +0.071 C 
ATOM     11  C   UNL     1     -37.313  20.507   0.920  0.00  0.00    +0.074 C 
ATOM     12  C   UNL     1     -36.110  20.469   1.531  0.00  0.00    +0.148 C 
ENDROOT
BRANCH   5  13
ATOM     13  C   UNL     1     -36.991  25.684   1.390  0.00  0.00    +0.021 C 
ATOM     14  C   UNL     1     -37.605  26.936   1.350  0.00  0.00    +0.039 C 
ATOM     15  C   UNL     1     -35.977  25.376   0.484  0.00  0.00    +0.003 C 
ATOM     16  C   UNL     1     -37.205  27.879   0.404  0.00  0.00    +0.167 C 
ATOM     17  C   UNL     1     -35.576  26.320  -0.462  0.00  0.00    +0.040 C 
ATOM     18  C   UNL     1     -36.190  27.571  -0.502  0.00  0.00    +0.167 C 
BRANCH  16  19
ATOM     19  O   UNL     1     -37.811  29.099   0.377  0.00  0.00    -0.503 OA
ATOM     20  H   UNL     1     -38.208  29.408  -0.413  0.00  0.00    +0.292 HD
ENDBRANCH  16  19
BRANCH  18  21
ATOM     21  O   UNL     1     -35.790  28.485  -1.430  0.00  0.00    -0.503 OA
ATOM     22  H   UNL     1     -36.381  28.756  -2.105  0.00  0.00    +0.292 HD
ENDBRANCH  18  21
ENDBRANCH   5  13
BRANCH  10  24
ATOM     23  O   UNL     1     -34.970  20.661   4.913  0.00  0.00    -0.291 OA
ATOM     24  C   UNL     1     -35.378  21.758   5.284  0.00  0.00    +0.176 C 
ATOM     25  C   UNL     1     -35.183  22.223   6.703  0.00  0.00    +0.077 C 
ENDBRANCH  10  24
BRANCH   9  26
ATOM     26  O   UNL     1     -39.658  20.769   0.930  0.00  0.00    -0.505 OA
ATOM     27  H   UNL     1     -40.336  20.729   1.575  0.00  0.00    +0.292 HD
ENDBRANCH   9  26
BRANCH  12  28
ATOM     28  C   UNL     1     -35.103  19.533   1.091  0.00  0.00    +0.038 C 
ATOM     29  C   UNL     1     -33.792  19.762   1.225  0.00  0.00    +0.003 C 
BRANCH  29  30
ATOM     30  C   UNL     1     -32.728  18.844   0.782  0.00  0.00    +0.003 C 
ATOM     31  C   UNL     1     -32.974  17.473   0.711  0.00  0.00    +0.040 C 
ATOM     32  C   UNL     1     -31.474  19.346   0.434  0.00  0.00    +0.003 C 
ATOM     33  C   UNL     1     -31.968  16.604   0.291  0.00  0.00    +0.167 C 
ATOM     34  C   UNL     1     -30.467  18.477   0.014  0.00  0.00    +0.040 C 
ATOM     35  C   UNL     1     -30.714  17.105  -0.057  0.00  0.00    +0.167 C 
BRANCH  33  36
ATOM     36  O   UNL     1     -32.221  15.267   0.226  0.00  0.00    -0.503 OA
ATOM     37  H   UNL     1     -31.579  14.686  -0.133  0.00  0.00    +0.292 HD
ENDBRANCH  33  36
BRANCH  35  38
ATOM     38  O   UNL     1     -29.721  16.267  -0.468  0.00  0.00    -0.503 OA
ATOM     39  H   UNL     1     -29.532  16.179  -1.381  0.00  0.00    +0.292 HD
ENDBRANCH  35  38
ENDBRANCH  29  30
ENDBRANCH  12  28
TORSDOF 9
ENDMDL
