MODEL 1
REMARK VINA RESULT:      -6.4      0.000      0.000
REMARK  Name = 5280372
REMARK  11 active torsions:
REMARK  status: ('A' for Active; 'I' for Inactive)
REMARK    1  A    between atoms: C_2  and  O_7
REMARK    2  A    between atoms: C_3  and  O_9
REMARK    3  A    between atoms: C_4  and  O_11
REMARK    4  A    between atoms: C_5  and  C_27
REMARK    5  A    between atoms: C_6  and  O_13
REMARK    6  A    between atoms: O_13  and  C_14
REMARK    7  A    between atoms: C_15  and  O_20
REMARK    8  A    between atoms: C_19  and  C_22
REMARK    9  A    between atoms: C_23  and  C_24
REMARK   10  A    between atoms: C_24  and  O_25
REMARK   11  A    between atoms: C_27  and  O_28
REMARK                            x       y       z     vdW  Elec       q    Type
REMARK                         _______ _______ _______ _____ _____    ______ ____
ROOT
ATOM      1  O   UNL     1     -37.629  24.077   2.755  0.00  0.00    -0.316 OA
ATOM      2  C   UNL     1     -39.357  22.016   1.746  0.00  0.00    +0.173 C 
ATOM      3  C   UNL     1     -39.886  23.366   2.231  0.00  0.00    +0.169 C 
ATOM      4  C   UNL     1     -37.987  21.709   2.351  0.00  0.00    +0.210 C 
ATOM      5  C   UNL     1     -38.824  24.456   2.070  0.00  0.00    +0.177 C 
ATOM      6  C   UNL     1     -37.038  22.899   2.211  0.00  0.00    +0.318 C 
ENDROOT
BRANCH   2   7
ATOM      7  O   UNL     1     -40.289  21.009   2.141  0.00  0.00    -0.379 OA
ATOM      8  H   UNL     1     -40.774  20.694   1.363  0.00  0.00    +0.211 HD
ENDBRANCH   2   7
BRANCH   3   9
ATOM      9  O   UNL     1     -41.042  23.719   1.475  0.00  0.00    -0.379 OA
ATOM     10  H   UNL     1     -41.785  23.882   2.077  0.00  0.00    +0.211 HD
ENDBRANCH   3   9
BRANCH   4  11
ATOM     11  O   UNL     1     -37.409  20.594   1.674  0.00  0.00    -0.377 OA
ATOM     12  H   UNL     1     -37.126  19.932   2.324  0.00  0.00    +0.211 HD
ENDBRANCH   4  11
BRANCH   6  13
ATOM     13  O   UNL     1     -35.839  22.591   2.921  0.00  0.00    -0.447 OA
BRANCH  13  14
ATOM     14  C   UNL     1     -35.240  23.622   3.590  0.00  0.00    +0.175 C 
ATOM     15  C   UNL     1     -35.400  23.755   4.966  0.00  0.00    +0.172 C 
ATOM     16  C   UNL     1     -34.472  24.540   2.879  0.00  0.00    +0.040 C 
ATOM     17  C   UNL     1     -34.787  24.812   5.638  0.00  0.00    +0.040 C 
ATOM     18  C   UNL     1     -33.858  25.597   3.550  0.00  0.00    +0.003 C 
ATOM     19  C   UNL     1     -34.015  25.734   4.929  0.00  0.00    +0.003 C 
BRANCH  15  20
ATOM     20  O   UNL     1     -36.152  22.862   5.669  0.00  0.00    -0.468 OA
ATOM     21  C   UNL     1     -35.451  21.862   6.405  0.00  0.00    +0.253 C 
ENDBRANCH  15  20
BRANCH  19  22
ATOM     22  C   UNL     1     -33.374  26.837   5.628  0.00  0.00    -0.002 C 
ATOM     23  C   UNL     1     -32.543  27.749   5.075  0.00  0.00    +0.005 C 
BRANCH  23  24
ATOM     24  C   UNL     1     -31.920  28.877   5.834  0.00  0.00    +0.163 C 
BRANCH  24  25
ATOM     25  O   UNL     1     -31.936  28.559   7.219  0.00  0.00    -0.377 OA
ATOM     26  H   UNL     1     -32.295  29.309   7.719  0.00  0.00    +0.211 HD
ENDBRANCH  24  25
ENDBRANCH  23  24
ENDBRANCH  19  22
ENDBRANCH  13  14
ENDBRANCH   6  13
BRANCH   5  27
ATOM     27  C   UNL     1     -39.286  25.787   2.655  0.00  0.00    +0.169 C 
BRANCH  27  28
ATOM     28  O   UNL     1     -40.168  25.526   3.731  0.00  0.00    -0.379 OA
ATOM     29  H   UNL     1     -40.970  26.060   3.629  0.00  0.00    +0.211 HD
ENDBRANCH  27  28
ENDBRANCH   5  27
TORSDOF 11
ENDMDL
MODEL 2
REMARK VINA RESULT:      -6.0      1.818      2.572
REMARK  Name = 5280372
REMARK  11 active torsions:
REMARK  status: ('A' for Active; 'I' for Inactive)
REMARK    1  A    between atoms: C_2  and  O_7
REMARK    2  A    between atoms: C_3  and  O_9
REMARK    3  A    between atoms: C_4  and  O_11
REMARK    4  A    between atoms: C_5  and  C_27
REMARK    5  A    between atoms: C_6  and  O_13
REMARK    6  A    between atoms: O_13  and  C_14
REMARK    7  A    between atoms: C_15  and  O_20
REMARK    8  A    between atoms: C_19  and  C_22
REMARK    9  A    between atoms: C_23  and  C_24
REMARK   10  A    between atoms: C_24  and  O_25
REMARK   11  A    between atoms: C_27  and  O_28
REMARK                            x       y       z     vdW  Elec       q    Type
REMARK                         _______ _______ _______ _____ _____    ______ ____
ROOT
ATOM      1  O   UNL     1     -38.524  22.246   1.896  0.00  0.00    -0.316 OA
ATOM      2  C   UNL     1     -36.937  20.117   0.800  0.00  0.00    +0.173 C 
ATOM      3  C   UNL     1     -38.349  20.427   0.304  0.00  0.00    +0.169 C 
ATOM      4  C   UNL     1     -36.717  20.655   2.215  0.00  0.00    +0.210 C 
ATOM      5  C   UNL     1     -38.690  21.903   0.518  0.00  0.00    +0.177 C 
ATOM      6  C   UNL     1     -37.175  22.109   2.334  0.00  0.00    +0.318 C 
ENDROOT
BRANCH   2   7
ATOM      7  O   UNL     1     -36.768  18.699   0.798  0.00  0.00    -0.379 OA
ATOM      8  H   UNL     1     -35.823  18.486   0.849  0.00  0.00    +0.211 HD
ENDBRANCH   2   7
BRANCH   3   9
ATOM      9  O   UNL     1     -38.438  20.120  -1.085  0.00  0.00    -0.379 OA
ATOM     10  H   UNL     1     -38.048  20.843  -1.602  0.00  0.00    +0.211 HD
ENDBRANCH   3   9
BRANCH   4  11
ATOM     11  O   UNL     1     -35.328  20.596   2.534  0.00  0.00    -0.377 OA
ATOM     12  H   UNL     1     -35.220  20.505   3.494  0.00  0.00    +0.211 HD
ENDBRANCH   4  11
BRANCH   6  13
ATOM     13  O   UNL     1     -37.073  22.489   3.706  0.00  0.00    -0.447 OA
BRANCH  13  14
ATOM     14  C   UNL     1     -36.233  23.530   3.992  0.00  0.00    +0.175 C 
ATOM     15  C   UNL     1     -35.626  23.621   5.241  0.00  0.00    +0.172 C 
ATOM     16  C   UNL     1     -35.995  24.499   3.021  0.00  0.00    +0.040 C 
ATOM     17  C   UNL     1     -34.773  24.689   5.523  0.00  0.00    +0.040 C 
ATOM     18  C   UNL     1     -35.142  25.567   3.302  0.00  0.00    +0.003 C 
ATOM     19  C   UNL     1     -34.531  25.662   4.552  0.00  0.00    +0.003 C 
BRANCH  15  20
ATOM     20  O   UNL     1     -35.856  22.678   6.197  0.00  0.00    -0.468 OA
ATOM     21  C   UNL     1     -35.074  21.487   6.133  0.00  0.00    +0.253 C 
ENDBRANCH  15  20
BRANCH  19  22
ATOM     22  C   UNL     1     -33.641  26.775   4.844  0.00  0.00    -0.002 C 
ATOM     23  C   UNL     1     -32.977  26.974   6.004  0.00  0.00    +0.005 C 
BRANCH  23  24
ATOM     24  C   UNL     1     -32.059  28.128   6.252  0.00  0.00    +0.163 C 
BRANCH  24  25
ATOM     25  O   UNL     1     -30.803  27.626   6.692  0.00  0.00    -0.377 OA
ATOM     26  H   UNL     1     -30.166  27.664   5.961  0.00  0.00    +0.211 HD
ENDBRANCH  24  25
ENDBRANCH  23  24
ENDBRANCH  19  22
ENDBRANCH  13  14
ENDBRANCH   6  13
BRANCH   5  27
ATOM     27  C   UNL     1     -40.135  22.210   0.140  0.00  0.00    +0.169 C 
BRANCH  27  28
ATOM     28  O   UNL     1     -40.925  21.065   0.403  0.00  0.00    -0.379 OA
ATOM     29  H   UNL     1     -41.863  21.310   0.394  0.00  0.00    +0.211 HD
ENDBRANCH  27  28
ENDBRANCH   5  27
TORSDOF 11
ENDMDL
MODEL 3
REMARK VINA RESULT:      -5.9      1.203      1.923
REMARK  Name = 5280372
REMARK  11 active torsions:
REMARK  status: ('A' for Active; 'I' for Inactive)
REMARK    1  A    between atoms: C_2  and  O_7
REMARK    2  A    between atoms: C_3  and  O_9
REMARK    3  A    between atoms: C_4  and  O_11
REMARK    4  A    between atoms: C_5  and  C_27
REMARK    5  A    between atoms: C_6  and  O_13
REMARK    6  A    between atoms: O_13  and  C_14
REMARK    7  A    between atoms: C_15  and  O_20
REMARK    8  A    between atoms: C_19  and  C_22
REMARK    9  A    between atoms: C_23  and  C_24
REMARK   10  A    between atoms: C_24  and  O_25
REMARK   11  A    between atoms: C_27  and  O_28
REMARK                            x       y       z     vdW  Elec       q    Type
REMARK                         _______ _______ _______ _____ _____    ______ ____
ROOT
ATOM      1  O   UNL     1     -38.869  24.330   3.318  0.00  0.00    -0.316 OA
ATOM      2  C   UNL     1     -39.384  22.209   1.450  0.00  0.00    +0.173 C 
ATOM      3  C   UNL     1     -40.412  23.297   1.760  0.00  0.00    +0.169 C 
ATOM      4  C   UNL     1     -38.366  22.070   2.583  0.00  0.00    +0.210 C 
ATOM      5  C   UNL     1     -39.721  24.589   2.200  0.00  0.00    +0.177 C 
ATOM      6  C   UNL     1     -37.809  23.431   3.000  0.00  0.00    +0.318 C 
ENDROOT
BRANCH   2   7
ATOM      7  O   UNL     1     -40.082  20.975   1.283  0.00  0.00    -0.379 OA
ATOM      8  H   UNL     1     -39.820  20.358   1.983  0.00  0.00    +0.211 HD
ENDBRANCH   2   7
BRANCH   3   9
ATOM      9  O   UNL     1     -41.193  23.554   0.595  0.00  0.00    -0.379 OA
ATOM     10  H   UNL     1     -41.092  22.819  -0.030  0.00  0.00    +0.211 HD
ENDBRANCH   3   9
BRANCH   4  11
ATOM     11  O   UNL     1     -37.279  21.256   2.146  0.00  0.00    -0.377 OA
ATOM     12  H   UNL     1     -37.285  21.201   1.178  0.00  0.00    +0.211 HD
ENDBRANCH   4  11
BRANCH   6  13
ATOM     13  O   UNL     1     -36.983  23.235   4.147  0.00  0.00    -0.447 OA
BRANCH  13  14
ATOM     14  C   UNL     1     -35.994  24.156   4.355  0.00  0.00    +0.175 C 
ATOM     15  C   UNL     1     -34.883  24.196   3.518  0.00  0.00    +0.172 C 
ATOM     16  C   UNL     1     -36.110  25.051   5.415  0.00  0.00    +0.040 C 
ATOM     17  C   UNL     1     -33.879  25.138   3.742  0.00  0.00    +0.040 C 
ATOM     18  C   UNL     1     -35.107  25.994   5.639  0.00  0.00    +0.003 C 
ATOM     19  C   UNL     1     -33.991  26.038   4.802  0.00  0.00    +0.003 C 
BRANCH  15  20
ATOM     20  O   UNL     1     -34.762  23.322   2.480  0.00  0.00    -0.468 OA
ATOM     21  C   UNL     1     -34.394  23.867   1.214  0.00  0.00    +0.253 C 
ENDBRANCH  15  20
BRANCH  19  22
ATOM     22  C   UNL     1     -32.945  27.022   5.036  0.00  0.00    -0.002 C 
ATOM     23  C   UNL     1     -32.563  27.500   6.242  0.00  0.00    +0.005 C 
BRANCH  23  24
ATOM     24  C   UNL     1     -31.469  28.501   6.433  0.00  0.00    +0.163 C 
BRANCH  24  25
ATOM     25  O   UNL     1     -30.255  27.807   6.686  0.00  0.00    -0.377 OA
ATOM     26  H   UNL     1     -29.931  28.032   7.572  0.00  0.00    +0.211 HD
ENDBRANCH  24  25
ENDBRANCH  23  24
ENDBRANCH  19  22
ENDBRANCH  13  14
ENDBRANCH   6  13
BRANCH   5  27
ATOM     27  C   UNL     1     -40.728  25.652   2.628  0.00  0.00    +0.169 C 
BRANCH  27  28
ATOM     28  O   UNL     1     -40.095  26.534   3.536  0.00  0.00    -0.379 OA
ATOM     29  H   UNL     1     -40.501  26.443   4.412  0.00  0.00    +0.211 HD
ENDBRANCH  27  28
ENDBRANCH   5  27
TORSDOF 11
ENDMDL
MODEL 4
REMARK VINA RESULT:      -5.9      2.256      3.295
REMARK  Name = 5280372
REMARK  11 active torsions:
REMARK  status: ('A' for Active; 'I' for Inactive)
REMARK    1  A    between atoms: C_2  and  O_7
REMARK    2  A    between atoms: C_3  and  O_9
REMARK    3  A    between atoms: C_4  and  O_11
REMARK    4  A    between atoms: C_5  and  C_27
REMARK    5  A    between atoms: C_6  and  O_13
REMARK    6  A    between atoms: O_13  and  C_14
REMARK    7  A    between atoms: C_15  and  O_20
REMARK    8  A    between atoms: C_19  and  C_22
REMARK    9  A    between atoms: C_23  and  C_24
REMARK   10  A    between atoms: C_24  and  O_25
REMARK   11  A    between atoms: C_27  and  O_28
REMARK                            x       y       z     vdW  Elec       q    Type
REMARK                         _______ _______ _______ _____ _____    ______ ____
ROOT
ATOM      1  O   UNL     1     -36.429  22.764   0.510  0.00  0.00    -0.316 OA
ATOM      2  C   UNL     1     -36.095  19.954   1.004  0.00  0.00    +0.173 C 
ATOM      3  C   UNL     1     -36.308  20.521  -0.400  0.00  0.00    +0.169 C 
ATOM      4  C   UNL     1     -36.617  20.915   2.073  0.00  0.00    +0.210 C 
ATOM      5  C   UNL     1     -35.797  21.961  -0.488  0.00  0.00    +0.177 C 
ATOM      6  C   UNL     1     -36.114  22.339   1.834  0.00  0.00    +0.318 C 
ENDROOT
BRANCH   2   7
ATOM      7  O   UNL     1     -36.800  18.716   1.092  0.00  0.00    -0.379 OA
ATOM      8  H   UNL     1     -37.174  18.494   0.225  0.00  0.00    +0.211 HD
ENDBRANCH   2   7
BRANCH   3   9
ATOM      9  O   UNL     1     -35.608  19.715  -1.345  0.00  0.00    -0.379 OA
ATOM     10  H   UNL     1     -35.249  20.279  -2.048  0.00  0.00    +0.211 HD
ENDBRANCH   3   9
BRANCH   4  11
ATOM     11  O   UNL     1     -36.159  20.489   3.356  0.00  0.00    -0.377 OA
ATOM     12  H   UNL     1     -36.370  21.168   4.016  0.00  0.00    +0.211 HD
ENDBRANCH   4  11
BRANCH   6  13
ATOM     13  O   UNL     1     -36.754  23.194   2.780  0.00  0.00    -0.447 OA
BRANCH  13  14
ATOM     14  C   UNL     1     -35.940  24.014   3.513  0.00  0.00    +0.175 C 
ATOM     15  C   UNL     1     -35.688  23.739   4.853  0.00  0.00    +0.172 C 
ATOM     16  C   UNL     1     -35.371  25.129   2.903  0.00  0.00    +0.040 C 
ATOM     17  C   UNL     1     -34.858  24.583   5.591  0.00  0.00    +0.040 C 
ATOM     18  C   UNL     1     -34.541  25.974   3.640  0.00  0.00    +0.003 C 
ATOM     19  C   UNL     1     -34.285  25.701   4.984  0.00  0.00    +0.003 C 
BRANCH  15  20
ATOM     20  O   UNL     1     -36.243  22.651   5.457  0.00  0.00    -0.468 OA
ATOM     21  C   UNL     1     -35.454  21.981   6.437  0.00  0.00    +0.253 C 
ENDBRANCH  15  20
BRANCH  19  22
ATOM     22  C   UNL     1     -33.420  26.583   5.752  0.00  0.00    -0.002 C 
ATOM     23  C   UNL     1     -32.701  27.616   5.257  0.00  0.00    +0.005 C 
BRANCH  23  24
ATOM     24  C   UNL     1     -31.836  28.506   6.092  0.00  0.00    +0.163 C 
BRANCH  24  25
ATOM     25  O   UNL     1     -30.851  27.709   6.737  0.00  0.00    -0.377 OA
ATOM     26  H   UNL     1     -30.677  26.917   6.205  0.00  0.00    +0.211 HD
ENDBRANCH  24  25
ENDBRANCH  23  24
ENDBRANCH  19  22
ENDBRANCH  13  14
ENDBRANCH   6  13
BRANCH   5  27
ATOM     27  C   UNL     1     -36.104  22.588  -1.844  0.00  0.00    +0.169 C 
BRANCH  27  28
ATOM     28  O   UNL     1     -37.204  21.906  -2.419  0.00  0.00    -0.379 OA
ATOM     29  H   UNL     1     -37.574  22.439  -3.140  0.00  0.00    +0.211 HD
ENDBRANCH  27  28
ENDBRANCH   5  27
TORSDOF 11
ENDMDL
MODEL 5
REMARK VINA RESULT:      -5.8      2.060      3.337
REMARK  Name = 5280372
REMARK  11 active torsions:
REMARK  status: ('A' for Active; 'I' for Inactive)
REMARK    1  A    between atoms: C_2  and  O_7
REMARK    2  A    between atoms: C_3  and  O_9
REMARK    3  A    between atoms: C_4  and  O_11
REMARK    4  A    between atoms: C_5  and  C_27
REMARK    5  A    between atoms: C_6  and  O_13
REMARK    6  A    between atoms: O_13  and  C_14
REMARK    7  A    between atoms: C_15  and  O_20
REMARK    8  A    between atoms: C_19  and  C_22
REMARK    9  A    between atoms: C_23  and  C_24
REMARK   10  A    between atoms: C_24  and  O_25
REMARK   11  A    between atoms: C_27  and  O_28
REMARK                            x       y       z     vdW  Elec       q    Type
REMARK                         _______ _______ _______ _____ _____    ______ ____
ROOT
ATOM      1  O   UNL     1     -37.586  22.875   1.187  0.00  0.00    -0.316 OA
ATOM      2  C   UNL     1     -36.568  20.198   0.967  0.00  0.00    +0.173 C 
ATOM      3  C   UNL     1     -37.324  20.884  -0.170  0.00  0.00    +0.169 C 
ATOM      4  C   UNL     1     -36.899  20.838   2.316  0.00  0.00    +0.210 C 
ATOM      5  C   UNL     1     -37.161  22.403  -0.094  0.00  0.00    +0.177 C 
ATOM      6  C   UNL     1     -36.789  22.361   2.251  0.00  0.00    +0.318 C 
ENDROOT
BRANCH   2   7
ATOM      7  O   UNL     1     -36.951  18.822   0.986  0.00  0.00    -0.379 OA
ATOM      8  H   UNL     1     -36.913  18.464   0.085  0.00  0.00    +0.211 HD
ENDBRANCH   2   7
BRANCH   3   9
ATOM      9  O   UNL     1     -36.819  20.419  -1.420  0.00  0.00    -0.379 OA
ATOM     10  H   UNL     1     -36.267  19.635  -1.274  0.00  0.00    +0.211 HD
ENDBRANCH   3   9
BRANCH   4  11
ATOM     11  O   UNL     1     -35.982  20.365   3.302  0.00  0.00    -0.377 OA
ATOM     12  H   UNL     1     -36.475  19.983   4.045  0.00  0.00    +0.211 HD
ENDBRANCH   4  11
BRANCH   6  13
ATOM     13  O   UNL     1     -37.248  22.888   3.495  0.00  0.00    -0.447 OA
BRANCH  13  14
ATOM     14  C   UNL     1     -36.401  23.739   4.150  0.00  0.00    +0.175 C 
ATOM     15  C   UNL     1     -36.621  25.113   4.119  0.00  0.00    +0.172 C 
ATOM     16  C   UNL     1     -35.315  23.215   4.846  0.00  0.00    +0.040 C 
ATOM     17  C   UNL     1     -35.749  25.971   4.788  0.00  0.00    +0.040 C 
ATOM     18  C   UNL     1     -34.443  24.072   5.516  0.00  0.00    +0.003 C 
ATOM     19  C   UNL     1     -34.660  25.451   5.488  0.00  0.00    +0.003 C 
BRANCH  15  20
ATOM     20  O   UNL     1     -37.681  25.632   3.438  0.00  0.00    -0.468 OA
ATOM     21  C   UNL     1     -37.393  26.357   2.245  0.00  0.00    +0.253 C 
ENDBRANCH  15  20
BRANCH  19  22
ATOM     22  C   UNL     1     -33.750  26.344   6.187  0.00  0.00    -0.002 C 
ATOM     23  C   UNL     1     -32.954  27.273   5.612  0.00  0.00    +0.005 C 
BRANCH  23  24
ATOM     24  C   UNL     1     -32.045  28.182   6.376  0.00  0.00    +0.163 C 
BRANCH  24  25
ATOM     25  O   UNL     1     -30.911  27.438   6.804  0.00  0.00    -0.377 OA
ATOM     26  H   UNL     1     -30.766  26.694   6.198  0.00  0.00    +0.211 HD
ENDBRANCH  24  25
ENDBRANCH  23  24
ENDBRANCH  19  22
ENDBRANCH  13  14
ENDBRANCH   6  13
BRANCH   5  27
ATOM     27  C   UNL     1     -38.001  23.117  -1.148  0.00  0.00    +0.169 C 
BRANCH  27  28
ATOM     28  O   UNL     1     -37.269  23.157  -2.358  0.00  0.00    -0.379 OA
ATOM     29  H   UNL     1     -37.740  23.707  -3.003  0.00  0.00    +0.211 HD
ENDBRANCH  27  28
ENDBRANCH   5  27
TORSDOF 11
ENDMDL
MODEL 6
REMARK VINA RESULT:      -5.8      4.511      7.212
REMARK  Name = 5280372
REMARK  11 active torsions:
REMARK  status: ('A' for Active; 'I' for Inactive)
REMARK    1  A    between atoms: C_2  and  O_7
REMARK    2  A    between atoms: C_3  and  O_9
REMARK    3  A    between atoms: C_4  and  O_11
REMARK    4  A    between atoms: C_5  and  C_27
REMARK    5  A    between atoms: C_6  and  O_13
REMARK    6  A    between atoms: O_13  and  C_14
REMARK    7  A    between atoms: C_15  and  O_20
REMARK    8  A    between atoms: C_19  and  C_22
REMARK    9  A    between atoms: C_23  and  C_24
REMARK   10  A    between atoms: C_24  and  O_25
REMARK   11  A    between atoms: C_27  and  O_28
REMARK                            x       y       z     vdW  Elec       q    Type
REMARK                         _______ _______ _______ _____ _____    ______ ____
ROOT
ATOM      1  O   UNL     1     -35.569  22.293   3.893  0.00  0.00    -0.316 OA
ATOM      2  C   UNL     1     -36.059  25.099   3.520  0.00  0.00    +0.173 C 
ATOM      3  C   UNL     1     -36.212  24.412   4.877  0.00  0.00    +0.169 C 
ATOM      4  C   UNL     1     -36.169  24.091   2.375  0.00  0.00    +0.210 C 
ATOM      5  C   UNL     1     -35.300  23.188   4.974  0.00  0.00    +0.177 C 
ATOM      6  C   UNL     1     -35.283  22.870   2.621  0.00  0.00    +0.318 C 
ENDROOT
BRANCH   2   7
ATOM      7  O   UNL     1     -37.095  26.074   3.398  0.00  0.00    -0.379 OA
ATOM      8  H   UNL     1     -37.958  25.636   3.445  0.00  0.00    +0.211 HD
ENDBRANCH   2   7
BRANCH   3   9
ATOM      9  O   UNL     1     -35.875  25.333   5.912  0.00  0.00    -0.379 OA
ATOM     10  H   UNL     1     -36.404  25.139   6.702  0.00  0.00    +0.211 HD
ENDBRANCH   3   9
BRANCH   4  11
ATOM     11  O   UNL     1     -35.752  24.709   1.158  0.00  0.00    -0.377 OA
ATOM     12  H   UNL     1     -35.891  25.667   1.218  0.00  0.00    +0.211 HD
ENDBRANCH   4  11
BRANCH   6  13
ATOM     13  O   UNL     1     -35.548  21.920   1.590  0.00  0.00    -0.447 OA
BRANCH  13  14
ATOM     14  C   UNL     1     -34.501  21.131   1.199  0.00  0.00    +0.175 C 
ATOM     15  C   UNL     1     -33.573  21.602   0.276  0.00  0.00    +0.172 C 
ATOM     16  C   UNL     1     -34.377  19.852   1.733  0.00  0.00    +0.040 C 
ATOM     17  C   UNL     1     -32.510  20.788  -0.117  0.00  0.00    +0.040 C 
ATOM     18  C   UNL     1     -33.315  19.037   1.341  0.00  0.00    +0.003 C 
ATOM     19  C   UNL     1     -32.381  19.505   0.416  0.00  0.00    +0.003 C 
BRANCH  15  20
ATOM     20  O   UNL     1     -33.689  22.853  -0.252  0.00  0.00    -0.468 OA
ATOM     21  C   UNL     1     -32.503  23.643  -0.313  0.00  0.00    +0.253 C 
ENDBRANCH  15  20
BRANCH  19  22
ATOM     22  C   UNL     1     -31.274  18.655   0.008  0.00  0.00    -0.002 C 
ATOM     23  C   UNL     1     -30.798  17.591   0.693  0.00  0.00    +0.005 C 
BRANCH  23  24
ATOM     24  C   UNL     1     -29.665  16.735   0.223  0.00  0.00    +0.163 C 
BRANCH  24  25
ATOM     25  O   UNL     1     -30.040  15.370   0.353  0.00  0.00    -0.377 OA
ATOM     26  H   UNL     1     -29.327  14.879   0.790  0.00  0.00    +0.211 HD
ENDBRANCH  24  25
ENDBRANCH  23  24
ENDBRANCH  19  22
ENDBRANCH  13  14
ENDBRANCH   6  13
BRANCH   5  27
ATOM     27  C   UNL     1     -35.521  22.419   6.272  0.00  0.00    +0.169 C 
BRANCH  27  28
ATOM     28  O   UNL     1     -35.497  21.033   5.986  0.00  0.00    -0.379 OA
ATOM     29  H   UNL     1     -35.801  20.884   5.077  0.00  0.00    +0.211 HD
ENDBRANCH  27  28
ENDBRANCH   5  27
TORSDOF 11
ENDMDL
MODEL 7
REMARK VINA RESULT:      -5.7      3.626      7.021
REMARK  Name = 5280372
REMARK  11 active torsions:
REMARK  status: ('A' for Active; 'I' for Inactive)
REMARK    1  A    between atoms: C_2  and  O_7
REMARK    2  A    between atoms: C_3  and  O_9
REMARK    3  A    between atoms: C_4  and  O_11
REMARK    4  A    between atoms: C_5  and  C_27
REMARK    5  A    between atoms: C_6  and  O_13
REMARK    6  A    between atoms: O_13  and  C_14
REMARK    7  A    between atoms: C_15  and  O_20
REMARK    8  A    between atoms: C_19  and  C_22
REMARK    9  A    between atoms: C_23  and  C_24
REMARK   10  A    between atoms: C_24  and  O_25
REMARK   11  A    between atoms: C_27  and  O_28
REMARK                            x       y       z     vdW  Elec       q    Type
REMARK                         _______ _______ _______ _____ _____    ______ ____
ROOT
ATOM      1  O   UNL     1     -36.569  22.943   4.094  0.00  0.00    -0.316 OA
ATOM      2  C   UNL     1     -37.639  25.470   3.245  0.00  0.00    +0.173 C 
ATOM      3  C   UNL     1     -37.014  25.265   4.625  0.00  0.00    +0.169 C 
ATOM      4  C   UNL     1     -38.108  24.142   2.648  0.00  0.00    +0.210 C 
ATOM      5  C   UNL     1     -35.974  24.143   4.591  0.00  0.00    +0.177 C 
ATOM      6  C   UNL     1     -37.021  23.073   2.748  0.00  0.00    +0.318 C 
ENDROOT
BRANCH   2   7
ATOM      7  O   UNL     1     -38.756  26.348   3.392  0.00  0.00    -0.379 OA
ATOM      8  H   UNL     1     -39.562  25.826   3.528  0.00  0.00    +0.211 HD
ENDBRANCH   2   7
BRANCH   3   9
ATOM      9  O   UNL     1     -36.387  26.476   5.043  0.00  0.00    -0.379 OA
ATOM     10  H   UNL     1     -35.822  26.811   4.328  0.00  0.00    +0.211 HD
ENDBRANCH   3   9
BRANCH   4  11
ATOM     11  O   UNL     1     -38.427  24.329   1.270  0.00  0.00    -0.377 OA
ATOM     12  H   UNL     1     -37.873  25.036   0.903  0.00  0.00    +0.211 HD
ENDBRANCH   4  11
BRANCH   6  13
ATOM     13  O   UNL     1     -37.580  21.837   2.306  0.00  0.00    -0.447 OA
BRANCH  13  14
ATOM     14  C   UNL     1     -36.708  20.926   1.774  0.00  0.00    +0.175 C 
ATOM     15  C   UNL     1     -37.083  20.151   0.680  0.00  0.00    +0.172 C 
ATOM     16  C   UNL     1     -35.445  20.782   2.340  0.00  0.00    +0.040 C 
ATOM     17  C   UNL     1     -36.187  19.224   0.147  0.00  0.00    +0.040 C 
ATOM     18  C   UNL     1     -34.549  19.855   1.808  0.00  0.00    +0.003 C 
ATOM     19  C   UNL     1     -34.919  19.076   0.711  0.00  0.00    +0.003 C 
BRANCH  15  20
ATOM     20  O   UNL     1     -38.318  20.286   0.121  0.00  0.00    -0.468 OA
ATOM     21  C   UNL     1     -38.736  19.264  -0.781  0.00  0.00    +0.253 C 
ENDBRANCH  15  20
BRANCH  19  22
ATOM     22  C   UNL     1     -33.984  18.110   0.156  0.00  0.00    -0.002 C 
ATOM     23  C   UNL     1     -32.834  17.699   0.735  0.00  0.00    +0.005 C 
BRANCH  23  24
ATOM     24  C   UNL     1     -31.910  16.689   0.132  0.00  0.00    +0.163 C 
BRANCH  24  25
ATOM     25  O   UNL     1     -32.481  15.396   0.292  0.00  0.00    -0.377 OA
ATOM     26  H   UNL     1     -33.333  15.360  -0.169  0.00  0.00    +0.211 HD
ENDBRANCH  24  25
ENDBRANCH  23  24
ENDBRANCH  19  22
ENDBRANCH  13  14
ENDBRANCH   6  13
BRANCH   5  27
ATOM     27  C   UNL     1     -35.421  23.841   5.979  0.00  0.00    +0.169 C 
BRANCH  27  28
ATOM     28  O   UNL     1     -35.819  22.534   6.350  0.00  0.00    -0.379 OA
ATOM     29  H   UNL     1     -35.517  21.902   5.679  0.00  0.00    +0.211 HD
ENDBRANCH  27  28
ENDBRANCH   5  27
TORSDOF 11
ENDMDL
MODEL 8
REMARK VINA RESULT:      -5.7      2.618      4.171
REMARK  Name = 5280372
REMARK  11 active torsions:
REMARK  status: ('A' for Active; 'I' for Inactive)
REMARK    1  A    between atoms: C_2  and  O_7
REMARK    2  A    between atoms: C_3  and  O_9
REMARK    3  A    between atoms: C_4  and  O_11
REMARK    4  A    between atoms: C_5  and  C_27
REMARK    5  A    between atoms: C_6  and  O_13
REMARK    6  A    between atoms: O_13  and  C_14
REMARK    7  A    between atoms: C_15  and  O_20
REMARK    8  A    between atoms: C_19  and  C_22
REMARK    9  A    between atoms: C_23  and  C_24
REMARK   10  A    between atoms: C_24  and  O_25
REMARK   11  A    between atoms: C_27  and  O_28
REMARK                            x       y       z     vdW  Elec       q    Type
REMARK                         _______ _______ _______ _____ _____    ______ ____
ROOT
ATOM      1  O   UNL     1     -34.650  22.511   0.669  0.00  0.00    -0.316 OA
ATOM      2  C   UNL     1     -35.164  19.725   1.142  0.00  0.00    +0.173 C 
ATOM      3  C   UNL     1     -34.578  20.239  -0.173  0.00  0.00    +0.169 C 
ATOM      4  C   UNL     1     -35.916  20.831   1.883  0.00  0.00    +0.210 C 
ATOM      5  C   UNL     1     -33.804  21.540   0.049  0.00  0.00    +0.177 C 
ATOM      6  C   UNL     1     -35.082  22.110   1.967  0.00  0.00    +0.318 C 
ENDROOT
BRANCH   2   7
ATOM      7  O   UNL     1     -36.065  18.659   0.838  0.00  0.00    -0.379 OA
ATOM      8  H   UNL     1     -35.670  17.815   1.107  0.00  0.00    +0.211 HD
ENDBRANCH   2   7
BRANCH   3   9
ATOM      9  O   UNL     1     -33.700  19.256  -0.715  0.00  0.00    -0.379 OA
ATOM     10  H   UNL     1     -33.243  18.797   0.008  0.00  0.00    +0.211 HD
ENDBRANCH   3   9
BRANCH   4  11
ATOM     11  O   UNL     1     -36.206  20.399   3.212  0.00  0.00    -0.377 OA
ATOM     12  H   UNL     1     -35.401  20.041   3.618  0.00  0.00    +0.211 HD
ENDBRANCH   4  11
BRANCH   6  13
ATOM     13  O   UNL     1     -35.899  23.130   2.539  0.00  0.00    -0.447 OA
BRANCH  13  14
ATOM     14  C   UNL     1     -35.281  24.004   3.391  0.00  0.00    +0.175 C 
ATOM     15  C   UNL     1     -35.395  23.842   4.769  0.00  0.00    +0.172 C 
ATOM     16  C   UNL     1     -34.541  25.059   2.864  0.00  0.00    +0.040 C 
ATOM     17  C   UNL     1     -34.763  24.741   5.627  0.00  0.00    +0.040 C 
ATOM     18  C   UNL     1     -33.908  25.958   3.722  0.00  0.00    +0.003 C 
ATOM     19  C   UNL     1     -34.019  25.799   5.104  0.00  0.00    +0.003 C 
BRANCH  15  20
ATOM     20  O   UNL     1     -36.119  22.813   5.291  0.00  0.00    -0.468 OA
ATOM     21  C   UNL     1     -35.489  22.023   6.297  0.00  0.00    +0.253 C 
ENDBRANCH  15  20
BRANCH  19  22
ATOM     22  C   UNL     1     -33.358  26.737   5.999  0.00  0.00    -0.002 C 
ATOM     23  C   UNL     1     -32.515  27.726   5.627  0.00  0.00    +0.005 C 
BRANCH  23  24
ATOM     24  C   UNL     1     -31.871  28.678   6.584  0.00  0.00    +0.163 C 
BRANCH  24  25
ATOM     25  O   UNL     1     -32.197  30.006   6.195  0.00  0.00    -0.377 OA
ATOM     26  H   UNL     1     -31.501  30.611   6.496  0.00  0.00    +0.211 HD
ENDBRANCH  24  25
ENDBRANCH  23  24
ENDBRANCH  19  22
ENDBRANCH  13  14
ENDBRANCH   6  13
BRANCH   5  27
ATOM     27  C   UNL     1     -33.310  22.135  -1.266  0.00  0.00    +0.169 C 
BRANCH  27  28
ATOM     28  O   UNL     1     -32.054  21.562  -1.577  0.00  0.00    -0.379 OA
ATOM     29  H   UNL     1     -32.098  21.139  -2.449  0.00  0.00    +0.211 HD
ENDBRANCH  27  28
ENDBRANCH   5  27
TORSDOF 11
ENDMDL
MODEL 9
REMARK VINA RESULT:      -5.6      3.393      6.674
REMARK  Name = 5280372
REMARK  11 active torsions:
REMARK  status: ('A' for Active; 'I' for Inactive)
REMARK    1  A    between atoms: C_2  and  O_7
REMARK    2  A    between atoms: C_3  and  O_9
REMARK    3  A    between atoms: C_4  and  O_11
REMARK    4  A    between atoms: C_5  and  C_27
REMARK    5  A    between atoms: C_6  and  O_13
REMARK    6  A    between atoms: O_13  and  C_14
REMARK    7  A    between atoms: C_15  and  O_20
REMARK    8  A    between atoms: C_19  and  C_22
REMARK    9  A    between atoms: C_23  and  C_24
REMARK   10  A    between atoms: C_24  and  O_25
REMARK   11  A    between atoms: C_27  and  O_28
REMARK                            x       y       z     vdW  Elec       q    Type
REMARK                         _______ _______ _______ _____ _____    ______ ____
ROOT
ATOM      1  O   UNL     1     -34.336  26.526   3.925  0.00  0.00    -0.316 OA
ATOM      2  C   UNL     1     -35.488  28.276   1.961  0.00  0.00    +0.173 C 
ATOM      3  C   UNL     1     -34.448  28.752   2.975  0.00  0.00    +0.169 C 
ATOM      4  C   UNL     1     -36.203  27.017   2.451  0.00  0.00    +0.210 C 
ATOM      5  C   UNL     1     -33.543  27.597   3.410  0.00  0.00    +0.177 C 
ATOM      6  C   UNL     1     -35.205  25.968   2.943  0.00  0.00    +0.318 C 
ENDROOT
BRANCH   2   7
ATOM      7  O   UNL     1     -36.440  29.325   1.779  0.00  0.00    -0.379 OA
ATOM      8  H   UNL     1     -36.274  29.770   0.934  0.00  0.00    +0.211 HD
ENDBRANCH   2   7
BRANCH   3   9
ATOM      9  O   UNL     1     -33.651  29.778   2.387  0.00  0.00    -0.379 OA
ATOM     10  H   UNL     1     -34.229  30.446   1.985  0.00  0.00    +0.211 HD
ENDBRANCH   3   9
BRANCH   4  11
ATOM     11  O   UNL     1     -36.955  26.451   1.379  0.00  0.00    -0.377 OA
ATOM     12  H   UNL     1     -37.684  25.922   1.739  0.00  0.00    +0.211 HD
ENDBRANCH   4  11
BRANCH   6  13
ATOM     13  O   UNL     1     -35.948  24.890   3.513  0.00  0.00    -0.447 OA
BRANCH  13  14
ATOM     14  C   UNL     1     -35.619  23.630   3.094  0.00  0.00    +0.175 C 
ATOM     15  C   UNL     1     -35.772  22.542   3.948  0.00  0.00    +0.172 C 
ATOM     16  C   UNL     1     -35.127  23.449   1.804  0.00  0.00    +0.040 C 
ATOM     17  C   UNL     1     -35.431  21.263   3.510  0.00  0.00    +0.040 C 
ATOM     18  C   UNL     1     -34.787  22.170   1.365  0.00  0.00    +0.003 C 
ATOM     19  C   UNL     1     -34.939  21.076   2.218  0.00  0.00    +0.003 C 
BRANCH  15  20
ATOM     20  O   UNL     1     -36.251  22.712   5.212  0.00  0.00    -0.468 OA
ATOM     21  C   UNL     1     -35.442  22.231   6.282  0.00  0.00    +0.253 C 
ENDBRANCH  15  20
BRANCH  19  22
ATOM     22  C   UNL     1     -34.584  19.742   1.760  0.00  0.00    -0.002 C 
ATOM     23  C   UNL     1     -33.403  19.383   1.209  0.00  0.00    +0.005 C 
BRANCH  23  24
ATOM     24  C   UNL     1     -33.078  17.991   0.767  0.00  0.00    +0.163 C 
BRANCH  24  25
ATOM     25  O   UNL     1     -31.944  17.535   1.493  0.00  0.00    -0.377 OA
ATOM     26  H   UNL     1     -32.235  17.119   2.319  0.00  0.00    +0.211 HD
ENDBRANCH  24  25
ENDBRANCH  23  24
ENDBRANCH  19  22
ENDBRANCH  13  14
ENDBRANCH   6  13
BRANCH   5  27
ATOM     27  C   UNL     1     -32.574  28.020   4.508  0.00  0.00    +0.169 C 
BRANCH  27  28
ATOM     28  O   UNL     1     -32.889  27.307   5.689  0.00  0.00    -0.379 OA
ATOM     29  H   UNL     1     -33.811  27.480   5.936  0.00  0.00    +0.211 HD
ENDBRANCH  27  28
ENDBRANCH   5  27
TORSDOF 11
ENDMDL
