MODEL 1
REMARK VINA RESULT:      -7.4      0.000      0.000
REMARK  Name = 54711164
REMARK  5 active torsions:
REMARK  status: ('A' for Active; 'I' for Inactive)
REMARK    1  A    between atoms: C_3  and  C_12
REMARK    2  A    between atoms: C_4  and  C_20
REMARK    3  A    between atoms: C_5  and  O_33
REMARK    4  A    between atoms: C_12  and  O_17
REMARK    5  A    between atoms: C_20  and  C_23
REMARK                            x       y       z     vdW  Elec       q    Type
REMARK                         _______ _______ _______ _____ _____    ______ ____
ROOT
ATOM      1  O   UNL     1     -37.693  20.318   0.550  0.00  0.00    -0.270 OA
ATOM      2  N   UNL     1     -38.179  21.836   2.203  0.00  0.00    -0.279 N 
ATOM      3  C   UNL     1     -36.601  23.455   2.889  0.00  0.00    +0.053 C 
ATOM      4  C   UNL     1     -35.985  21.879   1.116  0.00  0.00    +0.122 C 
ATOM      5  C   UNL     1     -35.657  22.921   1.911  0.00  0.00    +0.140 C 
ATOM      6  C   UNL     1     -37.814  22.892   2.992  0.00  0.00    +0.065 C 
ATOM      7  C   UNL     1     -37.354  21.267   1.254  0.00  0.00    +0.255 C 
ATOM      8  H   UNL     1     -39.081  21.461   2.320  0.00  0.00    +0.155 HD
ENDROOT
BRANCH   3  12
ATOM      9  O   UNL     1     -34.960  26.126   2.242  0.00  0.00    -0.343 OA
ATOM     10  O   UNL     1     -33.245  27.484   4.666  0.00  0.00    -0.293 OA
ATOM     11  C   UNL     1     -36.153  25.911   3.007  0.00  0.00    +0.178 C 
ATOM     12  C   UNL     1     -36.228  24.614   3.768  0.00  0.00    +0.139 C 
ATOM     13  C   UNL     1     -35.151  26.963   3.397  0.00  0.00    +0.202 C 
ATOM     14  C   UNL     1     -34.908  24.312   4.508  0.00  0.00    +0.042 C 
ATOM     15  C   UNL     1     -34.431  25.502   5.343  0.00  0.00    +0.070 C 
ATOM     16  C   UNL     1     -34.172  26.707   4.473  0.00  0.00    +0.180 C 
BRANCH  12  17
ATOM     17  O   UNL     1     -37.260  24.764   4.750  0.00  0.00    -0.380 OA
ATOM     18  H   UNL     1     -37.284  25.684   5.057  0.00  0.00    +0.211 HD
ENDBRANCH  12  17
ENDBRANCH   3  12
BRANCH   4  20
ATOM     19  O   UNL     1     -35.129  21.628  -1.056  0.00  0.00    -0.291 OA
ATOM     20  C   UNL     1     -35.011  21.361   0.137  0.00  0.00    +0.180 C 
BRANCH  20  23
ATOM     21  C   UNL     1     -32.641  20.575  -0.254  0.00  0.00    +0.012 C 
ATOM     22  C   UNL     1     -31.479  19.802   0.418  0.00  0.00    +0.022 C 
ATOM     23  C   UNL     1     -33.883  20.515   0.655  0.00  0.00    +0.066 C 
ATOM     24  C   UNL     1     -32.168  22.001  -0.579  0.00  0.00    +0.001 C 
ATOM     25  C   UNL     1     -30.285  19.718  -0.545  0.00  0.00    +0.004 C 
ATOM     26  C   UNL     1     -29.803  21.124  -0.938  0.00  0.00    +0.000 C 
ATOM     27  C   UNL     1     -30.949  21.973  -1.505  0.00  0.00    +0.000 C 
ATOM     28  C   UNL     1     -34.350  19.049   0.871  0.00  0.00    +0.029 C 
ATOM     29  C   UNL     1     -31.905  18.450   0.922  0.00  0.00    -0.031 C 
ATOM     30  C   UNL     1     -33.187  18.119   1.129  0.00  0.00    -0.031 C 
ATOM     31  C   UNL     1     -28.651  21.037  -1.938  0.00  0.00    +0.000 C 
ATOM     32  C   UNL     1     -35.171  18.475  -0.292  0.00  0.00    +0.005 C 
ENDBRANCH  20  23
ENDBRANCH   4  20
BRANCH   5  33
ATOM     33  O   UNL     1     -34.410  23.515   1.819  0.00  0.00    -0.505 OA
ATOM     34  H   UNL     1     -33.649  22.988   1.679  0.00  0.00    +0.292 HD
ENDBRANCH   5  33
TORSDOF 5
ENDMDL
MODEL 2
REMARK VINA RESULT:      -7.3      4.376      6.979
REMARK  Name = 54711164
REMARK  5 active torsions:
REMARK  status: ('A' for Active; 'I' for Inactive)
REMARK    1  A    between atoms: C_3  and  C_12
REMARK    2  A    between atoms: C_4  and  C_20
REMARK    3  A    between atoms: C_5  and  O_33
REMARK    4  A    between atoms: C_12  and  O_17
REMARK    5  A    between atoms: C_20  and  C_23
REMARK                            x       y       z     vdW  Elec       q    Type
REMARK                         _______ _______ _______ _____ _____    ______ ____
ROOT
ATOM      1  O   UNL     1     -39.286  22.154   0.730  0.00  0.00    -0.270 OA
ATOM      2  N   UNL     1     -41.185  23.442   0.836  0.00  0.00    -0.279 N 
ATOM      3  C   UNL     1     -41.104  25.696   1.540  0.00  0.00    +0.053 C 
ATOM      4  C   UNL     1     -39.022  24.406   1.461  0.00  0.00    +0.122 C 
ATOM      5  C   UNL     1     -39.660  25.568   1.721  0.00  0.00    +0.140 C 
ATOM      6  C   UNL     1     -41.799  24.634   1.107  0.00  0.00    +0.065 C 
ATOM      7  C   UNL     1     -39.828  23.230   0.978  0.00  0.00    +0.255 C 
ATOM      8  H   UNL     1     -41.742  22.694   0.521  0.00  0.00    +0.155 HD
ENDROOT
BRANCH   3  12
ATOM      9  O   UNL     1     -42.798  26.631   4.089  0.00  0.00    -0.343 OA
ATOM     10  O   UNL     1     -45.201  28.788   3.614  0.00  0.00    -0.293 OA
ATOM     11  C   UNL     1     -41.820  27.320   3.299  0.00  0.00    +0.178 C 
ATOM     12  C   UNL     1     -41.806  26.992   1.830  0.00  0.00    +0.139 C 
ATOM     13  C   UNL     1     -42.993  28.044   3.903  0.00  0.00    +0.202 C 
ATOM     14  C   UNL     1     -43.231  26.965   1.239  0.00  0.00    +0.042 C 
ATOM     15  C   UNL     1     -44.024  28.224   1.592  0.00  0.00    +0.070 C 
ATOM     16  C   UNL     1     -44.180  28.367   3.085  0.00  0.00    +0.180 C 
BRANCH  12  17
ATOM     17  O   UNL     1     -41.076  28.037   1.175  0.00  0.00    -0.380 OA
ATOM     18  H   UNL     1     -40.127  27.835   1.203  0.00  0.00    +0.211 HD
ENDBRANCH  12  17
ENDBRANCH   3  12
BRANCH   4  20
ATOM     19  O   UNL     1     -36.794  24.756   0.808  0.00  0.00    -0.291 OA
ATOM     20  C   UNL     1     -37.563  24.306   1.654  0.00  0.00    +0.180 C 
BRANCH  20  23
ATOM     21  C   UNL     1     -35.929  24.446   3.578  0.00  0.00    +0.012 C 
ATOM     22  C   UNL     1     -35.575  23.792   4.936  0.00  0.00    +0.022 C 
ATOM     23  C   UNL     1     -37.068  23.651   2.911  0.00  0.00    +0.066 C 
ATOM     24  C   UNL     1     -36.252  25.931   3.810  0.00  0.00    +0.001 C 
ATOM     25  C   UNL     1     -34.338  24.477   5.536  0.00  0.00    +0.004 C 
ATOM     26  C   UNL     1     -34.595  25.978   5.745  0.00  0.00    +0.000 C 
ATOM     27  C   UNL     1     -35.063  26.654   4.449  0.00  0.00    +0.000 C 
ATOM     28  C   UNL     1     -36.638  22.183   2.634  0.00  0.00    +0.029 C 
ATOM     29  C   UNL     1     -35.408  22.301   4.827  0.00  0.00    -0.031 C 
ATOM     30  C   UNL     1     -35.889  21.584   3.801  0.00  0.00    -0.031 C 
ATOM     31  C   UNL     1     -33.345  26.667   6.292  0.00  0.00    +0.000 C 
ATOM     32  C   UNL     1     -35.778  22.009   1.374  0.00  0.00    +0.005 C 
ENDBRANCH  20  23
ENDBRANCH   4  20
BRANCH   5  33
ATOM     33  O   UNL     1     -38.960  26.675   2.167  0.00  0.00    -0.505 OA
ATOM     34  H   UNL     1     -38.997  26.921   3.070  0.00  0.00    +0.292 HD
ENDBRANCH   5  33
TORSDOF 5
ENDMDL
MODEL 3
REMARK VINA RESULT:      -7.2      1.602      2.224
REMARK  Name = 54711164
REMARK  5 active torsions:
REMARK  status: ('A' for Active; 'I' for Inactive)
REMARK    1  A    between atoms: C_3  and  C_12
REMARK    2  A    between atoms: C_4  and  C_20
REMARK    3  A    between atoms: C_5  and  O_33
REMARK    4  A    between atoms: C_12  and  O_17
REMARK    5  A    between atoms: C_20  and  C_23
REMARK                            x       y       z     vdW  Elec       q    Type
REMARK                         _______ _______ _______ _____ _____    ______ ____
ROOT
ATOM      1  O   UNL     1     -38.565  19.731  -0.303  0.00  0.00    -0.270 OA
ATOM      2  N   UNL     1     -38.901  21.298   1.343  0.00  0.00    -0.279 N 
ATOM      3  C   UNL     1     -37.099  22.510   2.272  0.00  0.00    +0.053 C 
ATOM      4  C   UNL     1     -36.636  20.860   0.520  0.00  0.00    +0.122 C 
ATOM      5  C   UNL     1     -36.185  21.790   1.389  0.00  0.00    +0.140 C 
ATOM      6  C   UNL     1     -38.410  22.234   2.210  0.00  0.00    +0.065 C 
ATOM      7  C   UNL     1     -38.112  20.570   0.473  0.00  0.00    +0.255 C 
ATOM      8  H   UNL     1     -39.871  21.133   1.338  0.00  0.00    +0.155 HD
ENDROOT
BRANCH   3  12
ATOM      9  O   UNL     1     -34.767  24.681   1.966  0.00  0.00    -0.343 OA
ATOM     10  O   UNL     1     -33.159  25.580   4.662  0.00  0.00    -0.293 OA
ATOM     11  C   UNL     1     -36.079  24.777   2.536  0.00  0.00    +0.178 C 
ATOM     12  C   UNL     1     -36.588  23.544   3.235  0.00  0.00    +0.139 C 
ATOM     13  C   UNL     1     -34.918  25.546   3.106  0.00  0.00    +0.202 C 
ATOM     14  C   UNL     1     -35.514  22.925   4.153  0.00  0.00    +0.042 C 
ATOM     15  C   UNL     1     -34.890  23.962   5.089  0.00  0.00    +0.070 C 
ATOM     16  C   UNL     1     -34.210  25.059   4.307  0.00  0.00    +0.180 C 
BRANCH  12  17
ATOM     17  O   UNL     1     -37.689  23.953   4.056  0.00  0.00    -0.380 OA
ATOM     18  H   UNL     1     -37.616  23.534   4.927  0.00  0.00    +0.211 HD
ENDBRANCH  12  17
ENDBRANCH   3  12
BRANCH   4  20
ATOM     19  O   UNL     1     -35.278  20.681  -1.387  0.00  0.00    -0.291 OA
ATOM     20  C   UNL     1     -35.688  20.149  -0.358  0.00  0.00    +0.180 C 
BRANCH  20  23
ATOM     21  C   UNL     1     -33.728  18.576  -0.091  0.00  0.00    +0.012 C 
ATOM     22  C   UNL     1     -33.333  17.197   0.491  0.00  0.00    +0.022 C 
ATOM     23  C   UNL     1     -35.249  18.774   0.056  0.00  0.00    +0.066 C 
ATOM     24  C   UNL     1     -32.884  19.665   0.593  0.00  0.00    +0.001 C 
ATOM     25  C   UNL     1     -31.849  16.919   0.209  0.00  0.00    +0.004 C 
ATOM     26  C   UNL     1     -30.963  18.008   0.835  0.00  0.00    +0.000 C 
ATOM     27  C   UNL     1     -31.389  19.410   0.379  0.00  0.00    +0.000 C 
ATOM     28  C   UNL     1     -36.033  17.686  -0.728  0.00  0.00    +0.029 C 
ATOM     29  C   UNL     1     -34.227  16.091  -0.000  0.00  0.00    -0.031 C 
ATOM     30  C   UNL     1     -35.435  16.312  -0.538  0.00  0.00    -0.031 C 
ATOM     31  C   UNL     1     -29.491  17.758   0.507  0.00  0.00    +0.000 C 
ATOM     32  C   UNL     1     -36.142  17.956  -2.236  0.00  0.00    +0.005 C 
ENDBRANCH  20  23
ENDBRANCH   4  20
BRANCH   5  33
ATOM     33  O   UNL     1     -34.836  22.090   1.467  0.00  0.00    -0.505 OA
ATOM     34  H   UNL     1     -34.385  22.420   0.716  0.00  0.00    +0.292 HD
ENDBRANCH   5  33
TORSDOF 5
ENDMDL
MODEL 4
REMARK VINA RESULT:      -7.1      4.535      7.961
REMARK  Name = 54711164
REMARK  5 active torsions:
REMARK  status: ('A' for Active; 'I' for Inactive)
REMARK    1  A    between atoms: C_3  and  C_12
REMARK    2  A    between atoms: C_4  and  C_20
REMARK    3  A    between atoms: C_5  and  O_33
REMARK    4  A    between atoms: C_12  and  O_17
REMARK    5  A    between atoms: C_20  and  C_23
REMARK                            x       y       z     vdW  Elec       q    Type
REMARK                         _______ _______ _______ _____ _____    ______ ____
ROOT
ATOM      1  O   UNL     1     -38.013  21.717   2.185  0.00  0.00    -0.270 OA
ATOM      2  N   UNL     1     -36.193  22.586   3.286  0.00  0.00    -0.279 N 
ATOM      3  C   UNL     1     -36.162  24.827   4.032  0.00  0.00    +0.053 C 
ATOM      4  C   UNL     1     -38.151  23.995   2.867  0.00  0.00    +0.122 C 
ATOM      5  C   UNL     1     -37.505  25.007   3.487  0.00  0.00    +0.140 C 
ATOM      6  C   UNL     1     -35.568  23.631   3.908  0.00  0.00    +0.065 C 
ATOM      7  C   UNL     1     -37.460  22.664   2.742  0.00  0.00    +0.255 C 
ATOM      8  H   UNL     1     -35.712  21.729   3.222  0.00  0.00    +0.155 HD
ENDROOT
BRANCH   3  12
ATOM      9  O   UNL     1     -33.705  26.642   3.077  0.00  0.00    -0.343 OA
ATOM     10  O   UNL     1     -31.711  27.835   5.371  0.00  0.00    -0.293 OA
ATOM     11  C   UNL     1     -34.924  26.980   3.750  0.00  0.00    +0.178 C 
ATOM     12  C   UNL     1     -35.451  25.957   4.721  0.00  0.00    +0.139 C 
ATOM     13  C   UNL     1     -33.641  27.710   4.039  0.00  0.00    +0.202 C 
ATOM     14  C   UNL     1     -34.331  25.403   5.626  0.00  0.00    +0.042 C 
ATOM     15  C   UNL     1     -33.511  26.518   6.276  0.00  0.00    +0.070 C 
ATOM     16  C   UNL     1     -32.838  27.375   5.232  0.00  0.00    +0.180 C 
BRANCH  12  17
ATOM     17  O   UNL     1     -36.405  26.625   5.556  0.00  0.00    -0.380 OA
ATOM     18  H   UNL     1     -36.619  26.062   6.316  0.00  0.00    +0.211 HD
ENDBRANCH  12  17
ENDBRANCH   3  12
BRANCH   4  20
ATOM     19  O   UNL     1     -40.420  23.441   2.625  0.00  0.00    -0.291 OA
ATOM     20  C   UNL     1     -39.507  24.207   2.327  0.00  0.00    +0.180 C 
BRANCH  20  23
ATOM     21  C   UNL     1     -41.110  26.024   1.607  0.00  0.00    +0.012 C 
ATOM     22  C   UNL     1     -41.199  27.311   0.750  0.00  0.00    +0.022 C 
ATOM     23  C   UNL     1     -39.721  25.384   1.419  0.00  0.00    +0.066 C 
ATOM     24  C   UNL     1     -41.449  26.373   3.065  0.00  0.00    +0.001 C 
ATOM     25  C   UNL     1     -42.628  27.872   0.803  0.00  0.00    +0.004 C 
ATOM     26  C   UNL     1     -43.033  28.195   2.251  0.00  0.00    +0.000 C 
ATOM     27  C   UNL     1     -42.851  26.979   3.170  0.00  0.00    +0.000 C 
ATOM     28  C   UNL     1     -39.485  24.984  -0.064  0.00  0.00    +0.029 C 
ATOM     29  C   UNL     1     -40.720  27.095  -0.660  0.00  0.00    -0.031 C 
ATOM     30  C   UNL     1     -39.950  26.059  -1.019  0.00  0.00    -0.031 C 
ATOM     31  C   UNL     1     -44.474  28.702   2.306  0.00  0.00    +0.000 C 
ATOM     32  C   UNL     1     -40.151  23.663  -0.471  0.00  0.00    +0.005 C 
ENDBRANCH  20  23
ENDBRANCH   4  20
BRANCH   5  33
ATOM     33  O   UNL     1     -38.102  26.248   3.625  0.00  0.00    -0.505 OA
ATOM     34  H   UNL     1     -38.180  26.816   2.885  0.00  0.00    +0.292 HD
ENDBRANCH   5  33
TORSDOF 5
ENDMDL
MODEL 5
REMARK VINA RESULT:      -7.0      4.117      7.066
REMARK  Name = 54711164
REMARK  5 active torsions:
REMARK  status: ('A' for Active; 'I' for Inactive)
REMARK    1  A    between atoms: C_3  and  C_12
REMARK    2  A    between atoms: C_4  and  C_20
REMARK    3  A    between atoms: C_5  and  O_33
REMARK    4  A    between atoms: C_12  and  O_17
REMARK    5  A    between atoms: C_20  and  C_23
REMARK                            x       y       z     vdW  Elec       q    Type
REMARK                         _______ _______ _______ _____ _____    ______ ____
ROOT
ATOM      1  O   UNL     1     -32.330  25.297   1.111  0.00  0.00    -0.270 OA
ATOM      2  N   UNL     1     -30.693  26.706   1.894  0.00  0.00    -0.279 N 
ATOM      3  C   UNL     1     -31.056  28.085   3.778  0.00  0.00    +0.053 C 
ATOM      4  C   UNL     1     -32.866  26.617   3.021  0.00  0.00    +0.122 C 
ATOM      5  C   UNL     1     -32.408  27.545   3.889  0.00  0.00    +0.140 C 
ATOM      6  C   UNL     1     -30.262  27.644   2.791  0.00  0.00    +0.065 C 
ATOM      7  C   UNL     1     -31.953  26.141   1.923  0.00  0.00    +0.255 C 
ATOM      8  H   UNL     1     -30.071  26.417   1.189  0.00  0.00    +0.155 HD
ENDROOT
BRANCH   3  12
ATOM      9  O   UNL     1     -28.078  29.041   4.460  0.00  0.00    -0.343 OA
ATOM     10  O   UNL     1     -27.479  30.120   7.482  0.00  0.00    -0.293 OA
ATOM     11  C   UNL     1     -29.290  29.783   4.274  0.00  0.00    +0.178 C 
ATOM     12  C   UNL     1     -30.554  29.116   4.748  0.00  0.00    +0.139 C 
ATOM     13  C   UNL     1     -28.246  30.221   5.265  0.00  0.00    +0.202 C 
ATOM     14  C   UNL     1     -30.375  28.485   6.145  0.00  0.00    +0.042 C 
ATOM     15  C   UNL     1     -29.773  29.469   7.148  0.00  0.00    +0.070 C 
ATOM     16  C   UNL     1     -28.406  29.928   6.704  0.00  0.00    +0.180 C 
BRANCH  12  17
ATOM     17  O   UNL     1     -31.554  30.138   4.850  0.00  0.00    -0.380 OA
ATOM     18  H   UNL     1     -31.781  30.457   3.962  0.00  0.00    +0.211 HD
ENDBRANCH  12  17
ENDBRANCH   3  12
BRANCH   4  20
ATOM     19  O   UNL     1     -35.202  26.785   2.846  0.00  0.00    -0.291 OA
ATOM     20  C   UNL     1     -34.237  26.090   3.158  0.00  0.00    +0.180 C 
BRANCH  20  23
ATOM     21  C   UNL     1     -35.481  23.903   2.915  0.00  0.00    +0.012 C 
ATOM     22  C   UNL     1     -35.486  22.435   3.406  0.00  0.00    +0.022 C 
ATOM     23  C   UNL     1     -34.399  24.691   3.678  0.00  0.00    +0.066 C 
ATOM     24  C   UNL     1     -35.307  23.916   1.387  0.00  0.00    +0.001 C 
ATOM     25  C   UNL     1     -36.661  21.678   2.770  0.00  0.00    +0.004 C 
ATOM     26  C   UNL     1     -36.558  21.702   1.236  0.00  0.00    +0.000 C 
ATOM     27  C   UNL     1     -36.433  23.136   0.703  0.00  0.00    +0.000 C 
ATOM     28  C   UNL     1     -34.687  24.702   5.205  0.00  0.00    +0.029 C 
ATOM     29  C   UNL     1     -35.483  22.333   4.907  0.00  0.00    -0.031 C 
ATOM     30  C   UNL     1     -35.120  23.345   5.708  0.00  0.00    -0.031 C 
ATOM     31  C   UNL     1     -37.757  20.995   0.605  0.00  0.00    +0.000 C 
ATOM     32  C   UNL     1     -35.742  25.730   5.637  0.00  0.00    +0.005 C 
ENDBRANCH  20  23
ENDBRANCH   4  20
BRANCH   5  33
ATOM     33  O   UNL     1     -33.212  28.011   4.914  0.00  0.00    -0.505 OA
ATOM     34  H   UNL     1     -34.133  27.845   4.901  0.00  0.00    +0.292 HD
ENDBRANCH   5  33
TORSDOF 5
ENDMDL
MODEL 6
REMARK VINA RESULT:      -7.0      2.484      7.315
REMARK  Name = 54711164
REMARK  5 active torsions:
REMARK  status: ('A' for Active; 'I' for Inactive)
REMARK    1  A    between atoms: C_3  and  C_12
REMARK    2  A    between atoms: C_4  and  C_20
REMARK    3  A    between atoms: C_5  and  O_33
REMARK    4  A    between atoms: C_12  and  O_17
REMARK    5  A    between atoms: C_20  and  C_23
REMARK                            x       y       z     vdW  Elec       q    Type
REMARK                         _______ _______ _______ _____ _____    ______ ____
ROOT
ATOM      1  O   UNL     1     -39.374  21.826   1.987  0.00  0.00    -0.270 OA
ATOM      2  N   UNL     1     -38.206  20.214   0.841  0.00  0.00    -0.279 N 
ATOM      3  C   UNL     1     -35.844  20.216   0.782  0.00  0.00    +0.053 C 
ATOM      4  C   UNL     1     -36.998  21.981   2.032  0.00  0.00    +0.122 C 
ATOM      5  C   UNL     1     -35.844  21.417   1.612  0.00  0.00    +0.140 C 
ATOM      6  C   UNL     1     -37.019  19.670   0.434  0.00  0.00    +0.065 C 
ATOM      7  C   UNL     1     -38.301  21.346   1.626  0.00  0.00    +0.255 C 
ATOM      8  H   UNL     1     -39.039  19.773   0.558  0.00  0.00    +0.155 HD
ENDROOT
BRANCH   3  12
ATOM      9  O   UNL     1     -35.170  17.219  -0.115  0.00  0.00    -0.343 OA
ATOM     10  O   UNL     1     -32.140  16.118   0.403  0.00  0.00    -0.293 OA
ATOM     11  C   UNL     1     -34.777  18.481  -0.668  0.00  0.00    +0.178 C 
ATOM     12  C   UNL     1     -34.556  19.596   0.320  0.00  0.00    +0.139 C 
ATOM     13  C   UNL     1     -33.854  17.294  -0.690  0.00  0.00    +0.202 C 
ATOM     14  C   UNL     1     -33.732  19.124   1.536  0.00  0.00    +0.042 C 
ATOM     15  C   UNL     1     -32.454  18.396   1.116  0.00  0.00    +0.070 C 
ATOM     16  C   UNL     1     -32.772  17.164   0.306  0.00  0.00    +0.180 C 
BRANCH  12  17
ATOM     17  O   UNL     1     -33.804  20.611  -0.356  0.00  0.00    -0.380 OA
ATOM     18  H   UNL     1     -32.867  20.362  -0.373  0.00  0.00    +0.211 HD
ENDBRANCH  12  17
ENDBRANCH   3  12
BRANCH   4  20
ATOM     19  O   UNL     1     -37.036  23.105   4.092  0.00  0.00    -0.291 OA
ATOM     20  C   UNL     1     -36.965  23.194   2.869  0.00  0.00    +0.180 C 
BRANCH  20  23
ATOM     21  C   UNL     1     -35.921  25.495   2.939  0.00  0.00    +0.012 C 
ATOM     22  C   UNL     1     -35.719  26.776   2.092  0.00  0.00    +0.022 C 
ATOM     23  C   UNL     1     -36.836  24.519   2.174  0.00  0.00    +0.066 C 
ATOM     24  C   UNL     1     -34.544  24.914   3.299  0.00  0.00    +0.001 C 
ATOM     25  C   UNL     1     -34.942  27.820   2.906  0.00  0.00    +0.004 C 
ATOM     26  C   UNL     1     -33.571  27.269   3.332  0.00  0.00    +0.000 C 
ATOM     27  C   UNL     1     -33.709  25.934   4.077  0.00  0.00    +0.000 C 
ATOM     28  C   UNL     1     -38.235  25.145   1.920  0.00  0.00    +0.029 C 
ATOM     29  C   UNL     1     -37.016  27.317   1.554  0.00  0.00    -0.031 C 
ATOM     30  C   UNL     1     -38.136  26.585   1.473  0.00  0.00    -0.031 C 
ATOM     31  C   UNL     1     -32.823  28.290   4.188  0.00  0.00    +0.000 C 
ATOM     32  C   UNL     1     -39.179  25.085   3.129  0.00  0.00    +0.005 C 
ENDBRANCH  20  23
ENDBRANCH   4  20
BRANCH   5  33
ATOM     33  O   UNL     1     -34.622  21.966   1.960  0.00  0.00    -0.505 OA
ATOM     34  H   UNL     1     -33.858  21.425   1.998  0.00  0.00    +0.292 HD
ENDBRANCH   5  33
TORSDOF 5
ENDMDL
MODEL 7
REMARK VINA RESULT:      -7.0      4.118      7.597
REMARK  Name = 54711164
REMARK  5 active torsions:
REMARK  status: ('A' for Active; 'I' for Inactive)
REMARK    1  A    between atoms: C_3  and  C_12
REMARK    2  A    between atoms: C_4  and  C_20
REMARK    3  A    between atoms: C_5  and  O_33
REMARK    4  A    between atoms: C_12  and  O_17
REMARK    5  A    between atoms: C_20  and  C_23
REMARK                            x       y       z     vdW  Elec       q    Type
REMARK                         _______ _______ _______ _____ _____    ______ ____
ROOT
ATOM      1  O   UNL     1     -33.754  26.216   6.320  0.00  0.00    -0.270 OA
ATOM      2  N   UNL     1     -35.163  24.509   5.704  0.00  0.00    -0.279 N 
ATOM      3  C   UNL     1     -36.029  24.362   3.511  0.00  0.00    +0.053 C 
ATOM      4  C   UNL     1     -34.534  26.222   4.070  0.00  0.00    +0.122 C 
ATOM      5  C   UNL     1     -35.301  25.578   3.162  0.00  0.00    +0.140 C 
ATOM      6  C   UNL     1     -35.929  23.883   4.760  0.00  0.00    +0.065 C 
ATOM      7  C   UNL     1     -34.441  25.662   5.464  0.00  0.00    +0.255 C 
ATOM      8  H   UNL     1     -35.124  24.116   6.606  0.00  0.00    +0.155 HD
ENDROOT
BRANCH   3  12
ATOM      9  O   UNL     1     -39.202  23.979   3.340  0.00  0.00    -0.343 OA
ATOM     10  O   UNL     1     -40.335  21.279   1.894  0.00  0.00    -0.293 OA
ATOM     11  C   UNL     1     -38.232  24.291   2.332  0.00  0.00    +0.178 C 
ATOM     12  C   UNL     1     -36.878  23.652   2.495  0.00  0.00    +0.139 C 
ATOM     13  C   UNL     1     -39.438  23.446   2.025  0.00  0.00    +0.202 C 
ATOM     14  C   UNL     1     -36.995  22.157   2.856  0.00  0.00    +0.042 C 
ATOM     15  C   UNL     1     -37.931  21.407   1.907  0.00  0.00    +0.070 C 
ATOM     16  C   UNL     1     -39.328  21.974   1.962  0.00  0.00    +0.180 C 
BRANCH  12  17
ATOM     17  O   UNL     1     -36.214  23.751   1.230  0.00  0.00    -0.380 OA
ATOM     18  H   UNL     1     -36.296  24.656   0.891  0.00  0.00    +0.211 HD
ENDBRANCH  12  17
ENDBRANCH   3  12
BRANCH   4  20
ATOM     19  O   UNL     1     -34.393  28.531   3.667  0.00  0.00    -0.291 OA
ATOM     20  C   UNL     1     -33.811  27.449   3.688  0.00  0.00    +0.180 C 
BRANCH  20  23
ATOM     21  C   UNL     1     -31.518  28.494   3.886  0.00  0.00    +0.012 C 
ATOM     22  C   UNL     1     -30.018  28.219   3.617  0.00  0.00    +0.022 C 
ATOM     23  C   UNL     1     -32.355  27.322   3.340  0.00  0.00    +0.066 C 
ATOM     24  C   UNL     1     -31.714  28.762   5.387  0.00  0.00    +0.001 C 
ATOM     25  C   UNL     1     -29.185  29.448   4.012  0.00  0.00    +0.004 C 
ATOM     26  C   UNL     1     -29.384  29.786   5.498  0.00  0.00    +0.000 C 
ATOM     27  C   UNL     1     -30.870  29.955   5.843  0.00  0.00    +0.000 C 
ATOM     28  C   UNL     1     -32.169  27.166   1.805  0.00  0.00    +0.029 C 
ATOM     29  C   UNL     1     -29.760  27.782   2.201  0.00  0.00    -0.031 C 
ATOM     30  C   UNL     1     -30.721  27.307   1.396  0.00  0.00    -0.031 C 
ATOM     31  C   UNL     1     -28.597  31.041   5.875  0.00  0.00    +0.000 C 
ATOM     32  C   UNL     1     -32.999  28.150   0.969  0.00  0.00    +0.005 C 
ENDBRANCH  20  23
ENDBRANCH   4  20
BRANCH   5  33
ATOM     33  O   UNL     1     -35.416  26.056   1.868  0.00  0.00    -0.505 OA
ATOM     34  H   UNL     1     -35.698  25.486   1.181  0.00  0.00    +0.292 HD
ENDBRANCH   5  33
TORSDOF 5
ENDMDL
MODEL 8
REMARK VINA RESULT:      -7.0      1.672      2.007
REMARK  Name = 54711164
REMARK  5 active torsions:
REMARK  status: ('A' for Active; 'I' for Inactive)
REMARK    1  A    between atoms: C_3  and  C_12
REMARK    2  A    between atoms: C_4  and  C_20
REMARK    3  A    between atoms: C_5  and  O_33
REMARK    4  A    between atoms: C_12  and  O_17
REMARK    5  A    between atoms: C_20  and  C_23
REMARK                            x       y       z     vdW  Elec       q    Type
REMARK                         _______ _______ _______ _____ _____    ______ ____
ROOT
ATOM      1  O   UNL     1     -35.898  20.259   2.741  0.00  0.00    -0.270 OA
ATOM      2  N   UNL     1     -35.991  22.441   3.454  0.00  0.00    -0.279 N 
ATOM      3  C   UNL     1     -34.926  24.174   2.251  0.00  0.00    +0.053 C 
ATOM      4  C   UNL     1     -34.768  21.878   1.408  0.00  0.00    +0.122 C 
ATOM      5  C   UNL     1     -34.464  23.188   1.278  0.00  0.00    +0.140 C 
ATOM      6  C   UNL     1     -35.665  23.760   3.291  0.00  0.00    +0.065 C 
ATOM      7  C   UNL     1     -35.598  21.442   2.585  0.00  0.00    +0.255 C 
ATOM      8  H   UNL     1     -36.535  22.191   4.235  0.00  0.00    +0.155 HD
ENDROOT
BRANCH   3  12
ATOM      9  O   UNL     1     -32.684  25.956   3.680  0.00  0.00    -0.343 OA
ATOM     10  O   UNL     1     -33.303  29.133   4.103  0.00  0.00    -0.293 OA
ATOM     11  C   UNL     1     -33.119  25.899   2.315  0.00  0.00    +0.178 C 
ATOM     12  C   UNL     1     -34.584  25.629   2.098  0.00  0.00    +0.139 C 
ATOM     13  C   UNL     1     -32.672  27.191   2.943  0.00  0.00    +0.202 C 
ATOM     14  C   UNL     1     -35.465  26.480   3.036  0.00  0.00    +0.042 C 
ATOM     15  C   UNL     1     -35.089  27.961   2.991  0.00  0.00    +0.070 C 
ATOM     16  C   UNL     1     -33.662  28.173   3.431  0.00  0.00    +0.180 C 
BRANCH  12  17
ATOM     17  O   UNL     1     -34.883  26.005   0.748  0.00  0.00    -0.380 OA
ATOM     18  H   UNL     1     -34.769  25.238   0.166  0.00  0.00    +0.211 HD
ENDBRANCH  12  17
ENDBRANCH   3  12
BRANCH   4  20
ATOM     19  O   UNL     1     -34.844  20.810  -0.681  0.00  0.00    -0.291 OA
ATOM     20  C   UNL     1     -34.286  20.906   0.409  0.00  0.00    +0.180 C 
BRANCH  20  23
ATOM     21  C   UNL     1     -31.995  20.106  -0.299  0.00  0.00    +0.012 C 
ATOM     22  C   UNL     1     -30.754  19.334   0.212  0.00  0.00    +0.022 C 
ATOM     23  C   UNL     1     -33.101  20.059   0.773  0.00  0.00    +0.066 C 
ATOM     24  C   UNL     1     -31.567  21.528  -0.698  0.00  0.00    +0.001 C 
ATOM     25  C   UNL     1     -29.706  19.236  -0.906  0.00  0.00    +0.004 C 
ATOM     26  C   UNL     1     -29.277  20.637  -1.373  0.00  0.00    +0.000 C 
ATOM     27  C   UNL     1     -30.488  21.488  -1.783  0.00  0.00    +0.000 C 
ATOM     28  C   UNL     1     -33.538  18.596   1.063  0.00  0.00    +0.029 C 
ATOM     29  C   UNL     1     -31.112  17.988   0.781  0.00  0.00    -0.031 C 
ATOM     30  C   UNL     1     -32.354  17.663   1.166  0.00  0.00    -0.031 C 
ATOM     31  C   UNL     1     -28.275  20.537  -2.522  0.00  0.00    +0.000 C 
ATOM     32  C   UNL     1     -34.514  18.017   0.030  0.00  0.00    +0.005 C 
ENDBRANCH  20  23
ENDBRANCH   4  20
BRANCH   5  33
ATOM     33  O   UNL     1     -33.703  23.635   0.212  0.00  0.00    -0.505 OA
ATOM     34  H   UNL     1     -33.907  23.357  -0.659  0.00  0.00    +0.292 HD
ENDBRANCH   5  33
TORSDOF 5
ENDMDL
MODEL 9
REMARK VINA RESULT:      -7.0      5.626      8.384
REMARK  Name = 54711164
REMARK  5 active torsions:
REMARK  status: ('A' for Active; 'I' for Inactive)
REMARK    1  A    between atoms: C_3  and  C_12
REMARK    2  A    between atoms: C_4  and  C_20
REMARK    3  A    between atoms: C_5  and  O_33
REMARK    4  A    between atoms: C_12  and  O_17
REMARK    5  A    between atoms: C_20  and  C_23
REMARK                            x       y       z     vdW  Elec       q    Type
REMARK                         _______ _______ _______ _____ _____    ______ ____
ROOT
ATOM      1  O   UNL     1     -34.922  30.211   2.779  0.00  0.00    -0.270 OA
ATOM      2  N   UNL     1     -33.114  31.071   3.905  0.00  0.00    -0.279 N 
ATOM      3  C   UNL     1     -31.205  29.754   4.355  0.00  0.00    +0.053 C 
ATOM      4  C   UNL     1     -33.082  28.743   3.146  0.00  0.00    +0.122 C 
ATOM      5  C   UNL     1     -31.847  28.628   3.682  0.00  0.00    +0.140 C 
ATOM      6  C   UNL     1     -31.863  30.920   4.437  0.00  0.00    +0.065 C 
ATOM      7  C   UNL     1     -33.797  30.063   3.253  0.00  0.00    +0.255 C 
ATOM      8  H   UNL     1     -33.553  31.948   3.993  0.00  0.00    +0.155 HD
ENDROOT
BRANCH   3  12
ATOM      9  O   UNL     1     -30.271  29.304   7.383  0.00  0.00    -0.343 OA
ATOM     10  O   UNL     1     -27.373  30.514   8.279  0.00  0.00    -0.293 OA
ATOM     11  C   UNL     1     -29.815  28.720   6.156  0.00  0.00    +0.178 C 
ATOM     12  C   UNL     1     -29.832  29.618   4.948  0.00  0.00    +0.139 C 
ATOM     13  C   UNL     1     -28.869  28.995   7.293  0.00  0.00    +0.202 C 
ATOM     14  C   UNL     1     -29.254  31.012   5.268  0.00  0.00    +0.042 C 
ATOM     15  C   UNL     1     -27.895  30.926   5.965  0.00  0.00    +0.070 C 
ATOM     16  C   UNL     1     -28.005  30.193   7.279  0.00  0.00    +0.180 C 
BRANCH  12  17
ATOM     17  O   UNL     1     -28.992  29.007   3.961  0.00  0.00    -0.380 OA
ATOM     18  H   UNL     1     -28.173  29.519   3.872  0.00  0.00    +0.211 HD
ENDBRANCH  12  17
ENDBRANCH   3  12
BRANCH   4  20
ATOM     19  O   UNL     1     -33.112  27.004   1.570  0.00  0.00    -0.291 OA
ATOM     20  C   UNL     1     -33.705  27.588   2.473  0.00  0.00    +0.180 C 
BRANCH  20  23
ATOM     21  C   UNL     1     -35.062  25.742   3.541  0.00  0.00    +0.012 C 
ATOM     22  C   UNL     1     -36.461  25.431   4.128  0.00  0.00    +0.022 C 
ATOM     23  C   UNL     1     -35.067  27.160   2.938  0.00  0.00    +0.066 C 
ATOM     24  C   UNL     1     -34.003  25.528   4.635  0.00  0.00    +0.001 C 
ATOM     25  C   UNL     1     -36.517  23.967   4.589  0.00  0.00    +0.004 C 
ATOM     26  C   UNL     1     -35.444  23.689   5.654  0.00  0.00    +0.000 C 
ATOM     27  C   UNL     1     -34.046  24.091   5.161  0.00  0.00    +0.000 C 
ATOM     28  C   UNL     1     -36.103  27.275   1.785  0.00  0.00    +0.029 C 
ATOM     29  C   UNL     1     -37.572  25.776   3.175  0.00  0.00    -0.031 C 
ATOM     30  C   UNL     1     -37.411  26.604   2.133  0.00  0.00    -0.031 C 
ATOM     31  C   UNL     1     -35.467  22.219   6.070  0.00  0.00    +0.000 C 
ATOM     32  C   UNL     1     -35.616  26.706   0.445  0.00  0.00    +0.005 C 
ENDBRANCH  20  23
ENDBRANCH   4  20
BRANCH   5  33
ATOM     33  O   UNL     1     -31.152  27.434   3.608  0.00  0.00    -0.505 OA
ATOM     34  H   UNL     1     -31.524  26.703   3.155  0.00  0.00    +0.292 HD
ENDBRANCH   5  33
TORSDOF 5
ENDMDL
