MODEL 1
REMARK VINA RESULT:      -7.2      0.000      0.000
REMARK  Name = 60870
REMARK  7 active torsions:
REMARK  status: ('A' for Active; 'I' for Inactive)
REMARK    1  A    between atoms: C_2  and  C_4
REMARK    2  A    between atoms: C_2  and  C_18
REMARK    3  A    between atoms: C_3  and  C_9
REMARK    4  A    between atoms: C_9  and  C_14
REMARK    5  A    between atoms: C_18  and  C_19
REMARK    6  A    between atoms: C_19  and  C_22
REMARK    7  A    between atoms: C_24  and  C_26
REMARK                            x       y       z     vdW  Elec       q    Type
REMARK                         _______ _______ _______ _____ _____    ______ ____
ROOT
ATOM      1  O   UNL     1     -37.462  23.531   3.727  0.00  0.00    -0.291 OA
ATOM      2  C   UNL     1     -36.271  23.208   3.914  0.00  0.00    +0.173 C 
ENDROOT
BRANCH   2   4
ATOM      3  C   UNL     1     -34.216  20.816   1.097  0.00  0.00    -0.021 C 
ATOM      4  C   UNL     1     -35.563  22.385   2.945  0.00  0.00    +0.035 C 
ATOM      5  C   UNL     1     -34.306  22.185   0.892  0.00  0.00    -0.004 C 
ATOM      6  C   UNL     1     -34.787  20.218   2.210  0.00  0.00    -0.004 C 
ATOM      7  C   UNL     1     -34.983  22.974   1.822  0.00  0.00    +0.003 C 
ATOM      8  C   UNL     1     -35.465  21.008   3.140  0.00  0.00    +0.003 C 
BRANCH   3   9
ATOM      9  C   UNL     1     -33.483  19.963   0.093  0.00  0.00    +0.047 C 
BRANCH   9  14
ATOM     10  S   UNL     1     -30.991  20.287  -1.036  0.00  0.00    -0.048 S 
ATOM     11  O   UNL     1     -32.138  17.808   1.690  0.00  0.00    -0.274 OA
ATOM     12  O   UNL     1     -29.258  18.488  -1.855  0.00  0.00    -0.263 OA
ATOM     13  N   UNL     1     -30.614  17.964  -0.041  0.00  0.00    -0.246 N 
ATOM     14  C   UNL     1     -32.002  19.855   0.414  0.00  0.00    +0.137 C 
ATOM     15  C   UNL     1     -31.618  18.439   0.777  0.00  0.00    +0.239 C 
ATOM     16  C   UNL     1     -30.135  18.760  -1.049  0.00  0.00    +0.279 C 
ATOM     17  H   UNL     1     -30.245  17.063   0.096  0.00  0.00    +0.158 HD
ENDBRANCH   9  14
ENDBRANCH   3   9
ENDBRANCH   2   4
BRANCH   2  18
ATOM     18  C   UNL     1     -35.549  23.692   5.185  0.00  0.00    +0.076 C 
BRANCH  18  19
ATOM     19  C   UNL     1     -35.923  25.120   5.593  0.00  0.00    +0.066 C 
BRANCH  19  22
ATOM     20  O   UNL     1     -33.893  27.593   3.834  0.00  0.00    -0.449 OA
ATOM     21  N   UNL     1     -33.905  26.530   5.831  0.00  0.00    -0.373 NA
ATOM     22  C   UNL     1     -34.954  26.135   5.065  0.00  0.00    +0.130 C 
ATOM     23  C   UNL     1     -34.969  26.758   3.863  0.00  0.00    +0.216 C 
ATOM     24  C   UNL     1     -33.306  27.398   5.046  0.00  0.00    +0.277 C 
ATOM     25  C   UNL     1     -35.827  26.734   2.674  0.00  0.00    +0.055 C 
BRANCH  24  26
ATOM     26  C   UNL     1     -32.122  28.175   5.284  0.00  0.00    +0.066 C 
ATOM     27  C   UNL     1     -31.212  28.408   4.249  0.00  0.00    +0.006 C 
ATOM     28  C   UNL     1     -31.870  28.701   6.555  0.00  0.00    +0.006 C 
ATOM     29  C   UNL     1     -30.061  29.161   4.481  0.00  0.00    +0.000 C 
ATOM     30  C   UNL     1     -30.719  29.455   6.787  0.00  0.00    +0.000 C 
ATOM     31  C   UNL     1     -29.814  29.684   5.750  0.00  0.00    +0.000 C 
ENDBRANCH  24  26
ENDBRANCH  19  22
ENDBRANCH  18  19
ENDBRANCH   2  18
TORSDOF 7
ENDMDL
MODEL 2
REMARK VINA RESULT:      -7.1      2.194      3.264
REMARK  Name = 60870
REMARK  7 active torsions:
REMARK  status: ('A' for Active; 'I' for Inactive)
REMARK    1  A    between atoms: C_2  and  C_4
REMARK    2  A    between atoms: C_2  and  C_18
REMARK    3  A    between atoms: C_3  and  C_9
REMARK    4  A    between atoms: C_9  and  C_14
REMARK    5  A    between atoms: C_18  and  C_19
REMARK    6  A    between atoms: C_19  and  C_22
REMARK    7  A    between atoms: C_24  and  C_26
REMARK                            x       y       z     vdW  Elec       q    Type
REMARK                         _______ _______ _______ _____ _____    ______ ____
ROOT
ATOM      1  O   UNL     1     -36.155  24.170   1.110  0.00  0.00    -0.291 OA
ATOM      2  C   UNL     1     -36.280  23.132   1.791  0.00  0.00    +0.173 C 
ENDROOT
BRANCH   2   4
ATOM      3  C   UNL     1     -33.647  19.867   1.262  0.00  0.00    -0.021 C 
ATOM      4  C   UNL     1     -35.375  22.008   1.608  0.00  0.00    +0.035 C 
ATOM      5  C   UNL     1     -34.551  19.849   2.313  0.00  0.00    -0.004 C 
ATOM      6  C   UNL     1     -33.592  20.936   0.380  0.00  0.00    -0.004 C 
ATOM      7  C   UNL     1     -35.420  20.927   2.488  0.00  0.00    +0.003 C 
ATOM      8  C   UNL     1     -34.462  22.013   0.554  0.00  0.00    +0.003 C 
BRANCH   3   9
ATOM      9  C   UNL     1     -32.709  18.702   1.072  0.00  0.00    +0.047 C 
BRANCH   9  14
ATOM     10  S   UNL     1     -34.912  17.593  -0.152  0.00  0.00    -0.048 S 
ATOM     11  O   UNL     1     -31.305  16.240   0.085  0.00  0.00    -0.274 OA
ATOM     12  O   UNL     1     -35.776  15.110  -0.154  0.00  0.00    -0.263 OA
ATOM     13  N   UNL     1     -33.484  15.477  -0.042  0.00  0.00    -0.246 N 
ATOM     14  C   UNL     1     -33.109  17.836  -0.109  0.00  0.00    +0.137 C 
ATOM     15  C   UNL     1     -32.509  16.452  -0.008  0.00  0.00    +0.239 C 
ATOM     16  C   UNL     1     -34.802  15.846  -0.119  0.00  0.00    +0.279 C 
ATOM     17  H   UNL     1     -33.236  14.526  -0.010  0.00  0.00    +0.158 HD
ENDBRANCH   9  14
ENDBRANCH   3   9
ENDBRANCH   2   4
BRANCH   2  18
ATOM     18  C   UNL     1     -37.407  23.050   2.838  0.00  0.00    +0.076 C 
BRANCH  18  19
ATOM     19  C   UNL     1     -37.542  24.314   3.691  0.00  0.00    +0.066 C 
BRANCH  19  22
ATOM     20  O   UNL     1     -34.507  24.578   5.704  0.00  0.00    -0.449 OA
ATOM     21  N   UNL     1     -35.692  25.854   4.260  0.00  0.00    -0.373 NA
ATOM     22  C   UNL     1     -36.277  24.641   4.428  0.00  0.00    +0.130 C 
ATOM     23  C   UNL     1     -35.586  23.858   5.289  0.00  0.00    +0.216 C 
ATOM     24  C   UNL     1     -34.642  25.761   5.045  0.00  0.00    +0.277 C 
ATOM     25  C   UNL     1     -35.733  22.503   5.833  0.00  0.00    +0.055 C 
BRANCH  24  26
ATOM     26  C   UNL     1     -33.612  26.728   5.307  0.00  0.00    +0.066 C 
ATOM     27  C   UNL     1     -33.132  26.910   6.607  0.00  0.00    +0.006 C 
ATOM     28  C   UNL     1     -33.086  27.494   4.263  0.00  0.00    +0.006 C 
ATOM     29  C   UNL     1     -32.133  27.851   6.861  0.00  0.00    +0.000 C 
ATOM     30  C   UNL     1     -32.087  28.435   4.517  0.00  0.00    +0.000 C 
ATOM     31  C   UNL     1     -31.611  28.613   5.816  0.00  0.00    +0.000 C 
ENDBRANCH  24  26
ENDBRANCH  19  22
ENDBRANCH  18  19
ENDBRANCH   2  18
TORSDOF 7
ENDMDL
MODEL 3
REMARK VINA RESULT:      -7.1      2.224      3.564
REMARK  Name = 60870
REMARK  7 active torsions:
REMARK  status: ('A' for Active; 'I' for Inactive)
REMARK    1  A    between atoms: C_2  and  C_4
REMARK    2  A    between atoms: C_2  and  C_18
REMARK    3  A    between atoms: C_3  and  C_9
REMARK    4  A    between atoms: C_9  and  C_14
REMARK    5  A    between atoms: C_18  and  C_19
REMARK    6  A    between atoms: C_19  and  C_22
REMARK    7  A    between atoms: C_24  and  C_26
REMARK                            x       y       z     vdW  Elec       q    Type
REMARK                         _______ _______ _______ _____ _____    ______ ____
ROOT
ATOM      1  O   UNL     1     -36.096  21.877   0.464  0.00  0.00    -0.291 OA
ATOM      2  C   UNL     1     -35.396  21.322   1.335  0.00  0.00    +0.173 C 
ENDROOT
BRANCH   2   4
ATOM      3  C   UNL     1     -31.735  19.470   0.314  0.00  0.00    -0.021 C 
ATOM      4  C   UNL     1     -34.137  20.685   0.983  0.00  0.00    +0.035 C 
ATOM      5  C   UNL     1     -32.608  18.824   1.176  0.00  0.00    -0.004 C 
ATOM      6  C   UNL     1     -32.042  20.713  -0.220  0.00  0.00    -0.004 C 
ATOM      7  C   UNL     1     -33.817  19.435   1.512  0.00  0.00    +0.003 C 
ATOM      8  C   UNL     1     -33.251  21.324   0.116  0.00  0.00    +0.003 C 
BRANCH   3   9
ATOM      9  C   UNL     1     -30.430  18.810  -0.051  0.00  0.00    +0.047 C 
BRANCH   9  14
ATOM     10  S   UNL     1     -28.500  17.541   1.449  0.00  0.00    -0.048 S 
ATOM     11  O   UNL     1     -31.280  16.019  -0.753  0.00  0.00    -0.274 OA
ATOM     12  O   UNL     1     -26.987  15.473   0.861  0.00  0.00    -0.263 OA
ATOM     13  N   UNL     1     -29.128  15.562  -0.038  0.00  0.00    -0.246 N 
ATOM     14  C   UNL     1     -30.184  17.551   0.761  0.00  0.00    +0.137 C 
ATOM     15  C   UNL     1     -30.286  16.310  -0.097  0.00  0.00    +0.239 C 
ATOM     16  C   UNL     1     -28.073  16.013   0.710  0.00  0.00    +0.279 C 
ATOM     17  H   UNL     1     -29.061  14.712  -0.530  0.00  0.00    +0.158 HD
ENDBRANCH   9  14
ENDBRANCH   3   9
ENDBRANCH   2   4
BRANCH   2  18
ATOM     18  C   UNL     1     -35.877  21.319   2.799  0.00  0.00    +0.076 C 
BRANCH  18  19
ATOM     19  C   UNL     1     -36.540  22.631   3.227  0.00  0.00    +0.066 C 
BRANCH  19  22
ATOM     20  O   UNL     1     -34.555  24.118   5.907  0.00  0.00    -0.449 OA
ATOM     21  N   UNL     1     -35.145  24.599   3.777  0.00  0.00    -0.373 NA
ATOM     22  C   UNL     1     -35.684  23.418   4.174  0.00  0.00    +0.130 C 
ATOM     23  C   UNL     1     -35.345  23.107   5.447  0.00  0.00    +0.216 C 
ATOM     24  C   UNL     1     -34.484  24.971   4.850  0.00  0.00    +0.277 C 
ATOM     25  C   UNL     1     -35.620  22.002   6.373  0.00  0.00    +0.055 C 
BRANCH  24  26
ATOM     26  C   UNL     1     -33.693  26.151   5.068  0.00  0.00    +0.066 C 
ATOM     27  C   UNL     1     -33.301  26.506   6.362  0.00  0.00    +0.006 C 
ATOM     28  C   UNL     1     -33.312  26.952   3.987  0.00  0.00    +0.006 C 
ATOM     29  C   UNL     1     -32.534  27.653   6.573  0.00  0.00    +0.000 C 
ATOM     30  C   UNL     1     -32.545  28.098   4.199  0.00  0.00    +0.000 C 
ATOM     31  C   UNL     1     -32.157  28.448   5.492  0.00  0.00    +0.000 C 
ENDBRANCH  24  26
ENDBRANCH  19  22
ENDBRANCH  18  19
ENDBRANCH   2  18
TORSDOF 7
ENDMDL
MODEL 4
REMARK VINA RESULT:      -7.1      3.527      9.443
REMARK  Name = 60870
REMARK  7 active torsions:
REMARK  status: ('A' for Active; 'I' for Inactive)
REMARK    1  A    between atoms: C_2  and  C_4
REMARK    2  A    between atoms: C_2  and  C_18
REMARK    3  A    between atoms: C_3  and  C_9
REMARK    4  A    between atoms: C_9  and  C_14
REMARK    5  A    between atoms: C_18  and  C_19
REMARK    6  A    between atoms: C_19  and  C_22
REMARK    7  A    between atoms: C_24  and  C_26
REMARK                            x       y       z     vdW  Elec       q    Type
REMARK                         _______ _______ _______ _____ _____    ______ ____
ROOT
ATOM      1  O   UNL     1     -34.606  26.974   3.269  0.00  0.00    -0.291 OA
ATOM      2  C   UNL     1     -33.902  26.637   4.243  0.00  0.00    +0.173 C 
ENDROOT
BRANCH   2   4
ATOM      3  C   UNL     1     -30.947  29.241   5.780  0.00  0.00    -0.021 C 
ATOM      4  C   UNL     1     -32.886  27.534   4.772  0.00  0.00    +0.035 C 
ATOM      5  C   UNL     1     -31.283  29.310   4.437  0.00  0.00    -0.004 C 
ATOM      6  C   UNL     1     -31.563  28.333   6.629  0.00  0.00    -0.004 C 
ATOM      7  C   UNL     1     -32.259  28.451   3.930  0.00  0.00    +0.003 C 
ATOM      8  C   UNL     1     -32.539  27.475   6.121  0.00  0.00    +0.003 C 
BRANCH   3   9
ATOM      9  C   UNL     1     -29.893  30.169   6.329  0.00  0.00    +0.047 C 
BRANCH   9  14
ATOM     10  S   UNL     1     -28.555  27.889   5.556  0.00  0.00    -0.048 S 
ATOM     11  O   UNL     1     -28.026  30.097   8.677  0.00  0.00    -0.274 OA
ATOM     12  O   UNL     1     -27.794  25.811   6.974  0.00  0.00    -0.263 OA
ATOM     13  N   UNL     1     -27.832  27.893   8.006  0.00  0.00    -0.246 N 
ATOM     14  C   UNL     1     -28.528  29.507   6.387  0.00  0.00    +0.137 C 
ATOM     15  C   UNL     1     -28.109  29.230   7.814  0.00  0.00    +0.239 C 
ATOM     16  C   UNL     1     -27.993  27.016   6.965  0.00  0.00    +0.279 C 
ATOM     17  H   UNL     1     -27.523  27.571   8.883  0.00  0.00    +0.158 HD
ENDBRANCH   9  14
ENDBRANCH   3   9
ENDBRANCH   2   4
BRANCH   2  18
ATOM     18  C   UNL     1     -34.120  25.255   4.887  0.00  0.00    +0.076 C 
BRANCH  18  19
ATOM     19  C   UNL     1     -35.501  24.659   4.601  0.00  0.00    +0.066 C 
BRANCH  19  22
ATOM     20  O   UNL     1     -35.309  21.021   4.355  0.00  0.00    -0.449 OA
ATOM     21  N   UNL     1     -35.455  22.802   2.968  0.00  0.00    -0.373 NA
ATOM     22  C   UNL     1     -35.431  23.198   4.265  0.00  0.00    +0.130 C 
ATOM     23  C   UNL     1     -35.344  22.150   5.117  0.00  0.00    +0.216 C 
ATOM     24  C   UNL     1     -35.378  21.494   3.081  0.00  0.00    +0.277 C 
ATOM     25  C   UNL     1     -35.285  21.974   6.572  0.00  0.00    +0.055 C 
BRANCH  24  26
ATOM     26  C   UNL     1     -35.359  20.491   2.054  0.00  0.00    +0.066 C 
ATOM     27  C   UNL     1     -36.530  20.167   1.363  0.00  0.00    +0.006 C 
ATOM     28  C   UNL     1     -34.167  19.830   1.739  0.00  0.00    +0.006 C 
ATOM     29  C   UNL     1     -36.511  19.191   0.366  0.00  0.00    +0.000 C 
ATOM     30  C   UNL     1     -34.148  18.854   0.742  0.00  0.00    +0.000 C 
ATOM     31  C   UNL     1     -35.321  18.535   0.056  0.00  0.00    +0.000 C 
ENDBRANCH  24  26
ENDBRANCH  19  22
ENDBRANCH  18  19
ENDBRANCH   2  18
TORSDOF 7
ENDMDL
MODEL 5
REMARK VINA RESULT:      -7.1      2.094      3.300
REMARK  Name = 60870
REMARK  7 active torsions:
REMARK  status: ('A' for Active; 'I' for Inactive)
REMARK    1  A    between atoms: C_2  and  C_4
REMARK    2  A    between atoms: C_2  and  C_18
REMARK    3  A    between atoms: C_3  and  C_9
REMARK    4  A    between atoms: C_9  and  C_14
REMARK    5  A    between atoms: C_18  and  C_19
REMARK    6  A    between atoms: C_19  and  C_22
REMARK    7  A    between atoms: C_24  and  C_26
REMARK                            x       y       z     vdW  Elec       q    Type
REMARK                         _______ _______ _______ _____ _____    ______ ____
ROOT
ATOM      1  O   UNL     1     -36.137  23.123   0.677  0.00  0.00    -0.291 OA
ATOM      2  C   UNL     1     -35.879  22.193   1.468  0.00  0.00    +0.173 C 
ENDROOT
BRANCH   2   4
ATOM      3  C   UNL     1     -32.651  19.563   0.730  0.00  0.00    -0.021 C 
ATOM      4  C   UNL     1     -34.767  21.288   1.214  0.00  0.00    +0.035 C 
ATOM      5  C   UNL     1     -32.721  20.766   0.042  0.00  0.00    -0.004 C 
ATOM      6  C   UNL     1     -33.620  19.209   1.656  0.00  0.00    -0.004 C 
ATOM      7  C   UNL     1     -33.786  21.634   0.286  0.00  0.00    +0.003 C 
ATOM      8  C   UNL     1     -34.685  20.077   1.900  0.00  0.00    +0.003 C 
BRANCH   3   9
ATOM      9  C   UNL     1     -31.500  18.626   0.467  0.00  0.00    +0.047 C 
BRANCH   9  14
ATOM     10  S   UNL     1     -33.671  17.515  -0.813  0.00  0.00    -0.048 S 
ATOM     11  O   UNL     1     -30.434  15.821   0.432  0.00  0.00    -0.274 OA
ATOM     12  O   UNL     1     -34.957  15.274  -0.330  0.00  0.00    -0.263 OA
ATOM     13  N   UNL     1     -32.675  15.350   0.106  0.00  0.00    -0.246 N 
ATOM     14  C   UNL     1     -31.878  17.520  -0.502  0.00  0.00    +0.137 C 
ATOM     15  C   UNL     1     -31.555  16.155   0.065  0.00  0.00    +0.239 C 
ATOM     16  C   UNL     1     -33.881  15.853  -0.307  0.00  0.00    +0.279 C 
ATOM     17  H   UNL     1     -32.608  14.423   0.429  0.00  0.00    +0.158 HD
ENDBRANCH   9  14
ENDBRANCH   3   9
ENDBRANCH   2   4
BRANCH   2  18
ATOM     18  C   UNL     1     -36.750  22.008   2.725  0.00  0.00    +0.076 C 
BRANCH  18  19
ATOM     19  C   UNL     1     -37.141  23.328   3.396  0.00  0.00    +0.066 C 
BRANCH  19  22
ATOM     20  O   UNL     1     -34.481  24.190   5.745  0.00  0.00    -0.449 OA
ATOM     21  N   UNL     1     -35.533  25.118   3.970  0.00  0.00    -0.373 NA
ATOM     22  C   UNL     1     -36.034  23.886   4.241  0.00  0.00    +0.130 C 
ATOM     23  C   UNL     1     -35.421  23.309   5.300  0.00  0.00    +0.216 C 
ATOM     24  C   UNL     1     -34.612  25.247   4.898  0.00  0.00    +0.277 C 
ATOM     25  C   UNL     1     -35.535  22.037   6.021  0.00  0.00    +0.055 C 
BRANCH  24  26
ATOM     26  C   UNL     1     -33.718  26.345   5.148  0.00  0.00    +0.066 C 
ATOM     27  C   UNL     1     -33.285  26.618   6.448  0.00  0.00    +0.006 C 
ATOM     28  C   UNL     1     -33.279  27.147   4.090  0.00  0.00    +0.006 C 
ATOM     29  C   UNL     1     -32.418  27.685   6.690  0.00  0.00    +0.000 C 
ATOM     30  C   UNL     1     -32.412  28.214   4.332  0.00  0.00    +0.000 C 
ATOM     31  C   UNL     1     -31.983  28.482   5.632  0.00  0.00    +0.000 C 
ENDBRANCH  24  26
ENDBRANCH  19  22
ENDBRANCH  18  19
ENDBRANCH   2  18
TORSDOF 7
ENDMDL
MODEL 6
REMARK VINA RESULT:      -7.0      3.329      8.856
REMARK  Name = 60870
REMARK  7 active torsions:
REMARK  status: ('A' for Active; 'I' for Inactive)
REMARK    1  A    between atoms: C_2  and  C_4
REMARK    2  A    between atoms: C_2  and  C_18
REMARK    3  A    between atoms: C_3  and  C_9
REMARK    4  A    between atoms: C_9  and  C_14
REMARK    5  A    between atoms: C_18  and  C_19
REMARK    6  A    between atoms: C_19  and  C_22
REMARK    7  A    between atoms: C_24  and  C_26
REMARK                            x       y       z     vdW  Elec       q    Type
REMARK                         _______ _______ _______ _____ _____    ______ ____
ROOT
ATOM      1  O   UNL     1     -36.262  22.992   5.251  0.00  0.00    -0.291 OA
ATOM      2  C   UNL     1     -36.259  23.890   4.384  0.00  0.00    +0.173 C 
ENDROOT
BRANCH   2   4
ATOM      3  C   UNL     1     -33.192  26.798   4.295  0.00  0.00    -0.021 C 
ATOM      4  C   UNL     1     -35.205  24.892   4.353  0.00  0.00    +0.035 C 
ATOM      5  C   UNL     1     -33.584  26.186   3.115  0.00  0.00    -0.004 C 
ATOM      6  C   UNL     1     -33.788  26.474   5.504  0.00  0.00    -0.004 C 
ATOM      7  C   UNL     1     -34.597  25.227   3.144  0.00  0.00    +0.003 C 
ATOM      8  C   UNL     1     -34.801  25.515   5.534  0.00  0.00    +0.003 C 
BRANCH   3   9
ATOM      9  C   UNL     1     -32.098  27.835   4.264  0.00  0.00    +0.047 C 
BRANCH   9  14
ATOM     10  S   UNL     1     -32.392  30.322   3.115  0.00  0.00    -0.048 S 
ATOM     11  O   UNL     1     -31.793  29.390   6.812  0.00  0.00    -0.274 OA
ATOM     12  O   UNL     1     -31.047  32.543   3.521  0.00  0.00    -0.263 OA
ATOM     13  N   UNL     1     -31.329  31.085   5.309  0.00  0.00    -0.246 N 
ATOM     14  C   UNL     1     -32.629  29.229   4.550  0.00  0.00    +0.137 C 
ATOM     15  C   UNL     1     -31.882  29.881   5.692  0.00  0.00    +0.239 C 
ATOM     16  C   UNL     1     -31.475  31.511   4.015  0.00  0.00    +0.279 C 
ATOM     17  H   UNL     1     -30.834  31.633   5.959  0.00  0.00    +0.158 HD
ENDBRANCH   9  14
ENDBRANCH   3   9
ENDBRANCH   2   4
BRANCH   2  18
ATOM     18  C   UNL     1     -37.389  23.930   3.337  0.00  0.00    +0.076 C 
BRANCH  18  19
ATOM     19  C   UNL     1     -37.588  22.601   2.603  0.00  0.00    +0.066 C 
BRANCH  19  22
ATOM     20  O   UNL     1     -34.869  22.161   0.206  0.00  0.00    -0.449 OA
ATOM     21  N   UNL     1     -35.621  21.187   2.105  0.00  0.00    -0.373 NA
ATOM     22  C   UNL     1     -36.406  22.237   1.755  0.00  0.00    +0.130 C 
ATOM     23  C   UNL     1     -35.976  22.838   0.620  0.00  0.00    +0.216 C 
ATOM     24  C   UNL     1     -34.721  21.188   1.146  0.00  0.00    +0.277 C 
ATOM     25  C   UNL     1     -36.409  23.974  -0.201  0.00  0.00    +0.055 C 
BRANCH  24  26
ATOM     26  C   UNL     1     -33.602  20.310   0.947  0.00  0.00    +0.066 C 
ATOM     27  C   UNL     1     -32.526  20.709   0.149  0.00  0.00    +0.006 C 
ATOM     28  C   UNL     1     -33.583  19.048   1.549  0.00  0.00    +0.006 C 
ATOM     29  C   UNL     1     -31.440  19.856  -0.045  0.00  0.00    +0.000 C 
ATOM     30  C   UNL     1     -32.497  18.194   1.355  0.00  0.00    +0.000 C 
ATOM     31  C   UNL     1     -31.426  18.598   0.558  0.00  0.00    +0.000 C 
ENDBRANCH  24  26
ENDBRANCH  19  22
ENDBRANCH  18  19
ENDBRANCH   2  18
TORSDOF 7
ENDMDL
MODEL 7
REMARK VINA RESULT:      -6.9      4.909      9.362
REMARK  Name = 60870
REMARK  7 active torsions:
REMARK  status: ('A' for Active; 'I' for Inactive)
REMARK    1  A    between atoms: C_2  and  C_4
REMARK    2  A    between atoms: C_2  and  C_18
REMARK    3  A    between atoms: C_3  and  C_9
REMARK    4  A    between atoms: C_9  and  C_14
REMARK    5  A    between atoms: C_18  and  C_19
REMARK    6  A    between atoms: C_19  and  C_22
REMARK    7  A    between atoms: C_24  and  C_26
REMARK                            x       y       z     vdW  Elec       q    Type
REMARK                         _______ _______ _______ _____ _____    ______ ____
ROOT
ATOM      1  O   UNL     1     -34.215  27.127   3.483  0.00  0.00    -0.291 OA
ATOM      2  C   UNL     1     -33.635  27.013   4.582  0.00  0.00    +0.173 C 
ENDROOT
BRANCH   2   4
ATOM      3  C   UNL     1     -30.339  29.477   5.553  0.00  0.00    -0.021 C 
ATOM      4  C   UNL     1     -32.502  27.862   4.916  0.00  0.00    +0.035 C 
ATOM      5  C   UNL     1     -30.636  29.230   4.221  0.00  0.00    -0.004 C 
ATOM      6  C   UNL     1     -31.105  28.930   6.572  0.00  0.00    -0.004 C 
ATOM      7  C   UNL     1     -31.724  28.418   3.901  0.00  0.00    +0.003 C 
ATOM      8  C   UNL     1     -32.193  28.118   6.252  0.00  0.00    +0.003 C 
BRANCH   3   9
ATOM      9  C   UNL     1     -29.164  30.355   5.900  0.00  0.00    +0.047 C 
BRANCH   9  14
ATOM     10  S   UNL     1     -28.007  27.886   5.507  0.00  0.00    -0.048 S 
ATOM     11  O   UNL     1     -27.815  30.218   8.577  0.00  0.00    -0.274 OA
ATOM     12  O   UNL     1     -27.812  25.831   7.134  0.00  0.00    -0.263 OA
ATOM     13  N   UNL     1     -27.781  27.967   8.050  0.00  0.00    -0.246 N 
ATOM     14  C   UNL     1     -27.933  29.542   6.259  0.00  0.00    +0.137 C 
ATOM     15  C   UNL     1     -27.840  29.312   7.751  0.00  0.00    +0.239 C 
ATOM     16  C   UNL     1     -27.847  27.048   7.035  0.00  0.00    +0.279 C 
ATOM     17  H   UNL     1     -27.692  27.669   8.984  0.00  0.00    +0.158 HD
ENDBRANCH   9  14
ENDBRANCH   3   9
ENDBRANCH   2   4
BRANCH   2  18
ATOM     18  C   UNL     1     -34.133  25.962   5.591  0.00  0.00    +0.076 C 
BRANCH  18  19
ATOM     19  C   UNL     1     -35.660  25.876   5.681  0.00  0.00    +0.066 C 
BRANCH  19  22
ATOM     20  O   UNL     1     -36.713  22.767   4.082  0.00  0.00    -0.449 OA
ATOM     21  N   UNL     1     -37.036  24.991   3.827  0.00  0.00    -0.373 NA
ATOM     22  C   UNL     1     -36.214  24.739   4.876  0.00  0.00    +0.130 C 
ATOM     23  C   UNL     1     -36.004  23.413   5.050  0.00  0.00    +0.216 C 
ATOM     24  C   UNL     1     -37.302  23.780   3.391  0.00  0.00    +0.277 C 
ATOM     25  C   UNL     1     -35.239  22.579   5.985  0.00  0.00    +0.055 C 
BRANCH  24  26
ATOM     26  C   UNL     1     -38.128  23.370   2.289  0.00  0.00    +0.066 C 
ATOM     27  C   UNL     1     -38.470  24.282   1.287  0.00  0.00    +0.006 C 
ATOM     28  C   UNL     1     -38.595  22.054   2.213  0.00  0.00    +0.006 C 
ATOM     29  C   UNL     1     -39.273  23.883   0.218  0.00  0.00    +0.000 C 
ATOM     30  C   UNL     1     -39.398  21.655   1.144  0.00  0.00    +0.000 C 
ATOM     31  C   UNL     1     -39.737  22.570   0.147  0.00  0.00    +0.000 C 
ENDBRANCH  24  26
ENDBRANCH  19  22
ENDBRANCH  18  19
ENDBRANCH   2  18
TORSDOF 7
ENDMDL
MODEL 8
REMARK VINA RESULT:      -6.8      1.630      2.055
REMARK  Name = 60870
REMARK  7 active torsions:
REMARK  status: ('A' for Active; 'I' for Inactive)
REMARK    1  A    between atoms: C_2  and  C_4
REMARK    2  A    between atoms: C_2  and  C_18
REMARK    3  A    between atoms: C_3  and  C_9
REMARK    4  A    between atoms: C_9  and  C_14
REMARK    5  A    between atoms: C_18  and  C_19
REMARK    6  A    between atoms: C_19  and  C_22
REMARK    7  A    between atoms: C_24  and  C_26
REMARK                            x       y       z     vdW  Elec       q    Type
REMARK                         _______ _______ _______ _____ _____    ______ ____
ROOT
ATOM      1  O   UNL     1     -37.879  23.961   3.700  0.00  0.00    -0.291 OA
ATOM      2  C   UNL     1     -36.663  23.749   3.888  0.00  0.00    +0.173 C 
ENDROOT
BRANCH   2   4
ATOM      3  C   UNL     1     -34.519  21.082   1.405  0.00  0.00    -0.021 C 
ATOM      4  C   UNL     1     -35.926  22.831   3.033  0.00  0.00    +0.035 C 
ATOM      5  C   UNL     1     -35.059  20.619   2.596  0.00  0.00    -0.004 C 
ATOM      6  C   UNL     1     -34.671  22.404   1.015  0.00  0.00    -0.004 C 
ATOM      7  C   UNL     1     -35.767  21.499   3.415  0.00  0.00    +0.003 C 
ATOM      8  C   UNL     1     -35.379  23.284   1.834  0.00  0.00    +0.003 C 
BRANCH   3   9
ATOM      9  C   UNL     1     -33.755  20.131   0.520  0.00  0.00    +0.047 C 
BRANCH   9  14
ATOM     10  S   UNL     1     -32.124  18.042   1.269  0.00  0.00    -0.048 S 
ATOM     11  O   UNL     1     -35.622  17.952  -0.358  0.00  0.00    -0.274 OA
ATOM     12  O   UNL     1     -31.549  15.807   0.009  0.00  0.00    -0.263 OA
ATOM     13  N   UNL     1     -33.661  16.729  -0.293  0.00  0.00    -0.246 N 
ATOM     14  C   UNL     1     -33.802  18.706   1.042  0.00  0.00    +0.137 C 
ATOM     15  C   UNL     1     -34.483  17.780   0.059  0.00  0.00    +0.239 C 
ATOM     16  C   UNL     1     -32.393  16.664   0.222  0.00  0.00    +0.279 C 
ATOM     17  H   UNL     1     -33.983  16.032  -0.908  0.00  0.00    +0.158 HD
ENDBRANCH   9  14
ENDBRANCH   3   9
ENDBRANCH   2   4
BRANCH   2  18
ATOM     18  C   UNL     1     -35.943  24.473   5.041  0.00  0.00    +0.076 C 
BRANCH  18  19
ATOM     19  C   UNL     1     -34.430  24.591   4.837  0.00  0.00    +0.066 C 
BRANCH  19  22
ATOM     20  O   UNL     1     -33.813  28.063   3.887  0.00  0.00    -0.449 OA
ATOM     21  N   UNL     1     -32.934  26.511   5.279  0.00  0.00    -0.373 NA
ATOM     22  C   UNL     1     -33.996  26.008   4.601  0.00  0.00    +0.130 C 
ATOM     23  C   UNL     1     -34.541  26.918   3.760  0.00  0.00    +0.216 C 
ATOM     24  C   UNL     1     -32.870  27.738   4.813  0.00  0.00    +0.277 C 
ATOM     25  C   UNL     1     -35.660  26.942   2.812  0.00  0.00    +0.055 C 
BRANCH  24  26
ATOM     26  C   UNL     1     -31.948  28.790   5.142  0.00  0.00    +0.066 C 
ATOM     27  C   UNL     1     -32.147  30.081   4.645  0.00  0.00    +0.006 C 
ATOM     28  C   UNL     1     -30.845  28.528   5.961  0.00  0.00    +0.006 C 
ATOM     29  C   UNL     1     -31.250  31.102   4.964  0.00  0.00    +0.000 C 
ATOM     30  C   UNL     1     -29.949  29.548   6.279  0.00  0.00    +0.000 C 
ATOM     31  C   UNL     1     -30.152  30.835   5.780  0.00  0.00    +0.000 C 
ENDBRANCH  24  26
ENDBRANCH  19  22
ENDBRANCH  18  19
ENDBRANCH   2  18
TORSDOF 7
ENDMDL
MODEL 9
REMARK VINA RESULT:      -6.8      3.147      9.153
REMARK  Name = 60870
REMARK  7 active torsions:
REMARK  status: ('A' for Active; 'I' for Inactive)
REMARK    1  A    between atoms: C_2  and  C_4
REMARK    2  A    between atoms: C_2  and  C_18
REMARK    3  A    between atoms: C_3  and  C_9
REMARK    4  A    between atoms: C_9  and  C_14
REMARK    5  A    between atoms: C_18  and  C_19
REMARK    6  A    between atoms: C_19  and  C_22
REMARK    7  A    between atoms: C_24  and  C_26
REMARK                            x       y       z     vdW  Elec       q    Type
REMARK                         _______ _______ _______ _____ _____    ______ ____
ROOT
ATOM      1  O   UNL     1     -36.406  24.628   2.053  0.00  0.00    -0.291 OA
ATOM      2  C   UNL     1     -35.928  24.268   3.148  0.00  0.00    +0.173 C 
ENDROOT
BRANCH   2   4
ATOM      3  C   UNL     1     -33.363  26.822   5.333  0.00  0.00    -0.021 C 
ATOM      4  C   UNL     1     -35.046  25.148   3.900  0.00  0.00    +0.035 C 
ATOM      5  C   UNL     1     -33.426  26.938   3.953  0.00  0.00    -0.004 C 
ATOM      6  C   UNL     1     -34.127  25.883   6.010  0.00  0.00    -0.004 C 
ATOM      7  C   UNL     1     -34.273  26.096   3.232  0.00  0.00    +0.003 C 
ATOM      8  C   UNL     1     -34.974  25.041   5.288  0.00  0.00    +0.003 C 
BRANCH   3   9
ATOM      9  C   UNL     1     -32.448  27.732   6.112  0.00  0.00    +0.047 C 
BRANCH   9  14
ATOM     10  S   UNL     1     -29.794  28.359   5.727  0.00  0.00    -0.048 S 
ATOM     11  O   UNL     1     -32.937  30.482   5.013  0.00  0.00    -0.274 OA
ATOM     12  O   UNL     1     -28.487  30.580   6.243  0.00  0.00    -0.263 OA
ATOM     13  N   UNL     1     -30.722  30.737   5.625  0.00  0.00    -0.246 N 
ATOM     14  C   UNL     1     -31.528  28.527   5.203  0.00  0.00    +0.137 C 
ATOM     15  C   UNL     1     -31.835  30.007   5.262  0.00  0.00    +0.239 C 
ATOM     16  C   UNL     1     -29.551  30.083   5.908  0.00  0.00    +0.279 C 
ATOM     17  H   UNL     1     -30.768  31.718   5.680  0.00  0.00    +0.158 HD
ENDBRANCH   9  14
ENDBRANCH   3   9
ENDBRANCH   2   4
BRANCH   2  18
ATOM     18  C   UNL     1     -36.282  22.876   3.703  0.00  0.00    +0.076 C 
BRANCH  18  19
ATOM     19  C   UNL     1     -37.134  22.035   2.747  0.00  0.00    +0.066 C 
BRANCH  19  22
ATOM     20  O   UNL     1     -35.593  19.759   0.344  0.00  0.00    -0.449 OA
ATOM     21  N   UNL     1     -34.973  21.002   2.129  0.00  0.00    -0.373 NA
ATOM     22  C   UNL     1     -36.299  21.142   1.878  0.00  0.00    +0.130 C 
ATOM     23  C   UNL     1     -36.696  20.407   0.813  0.00  0.00    +0.216 C 
ATOM     24  C   UNL     1     -34.603  20.167   1.184  0.00  0.00    +0.277 C 
ATOM     25  C   UNL     1     -37.959  20.172   0.104  0.00  0.00    +0.055 C 
BRANCH  24  26
ATOM     26  C   UNL     1     -33.303  19.621   0.908  0.00  0.00    +0.066 C 
ATOM     27  C   UNL     1     -32.937  18.376   1.426  0.00  0.00    +0.006 C 
ATOM     28  C   UNL     1     -32.394  20.335   0.121  0.00  0.00    +0.006 C 
ATOM     29  C   UNL     1     -31.674  17.847   1.159  0.00  0.00    +0.000 C 
ATOM     30  C   UNL     1     -31.131  19.807  -0.146  0.00  0.00    +0.000 C 
ATOM     31  C   UNL     1     -30.771  18.563   0.374  0.00  0.00    +0.000 C 
ENDBRANCH  24  26
ENDBRANCH  19  22
ENDBRANCH  18  19
ENDBRANCH   2  18
TORSDOF 7
ENDMDL
