MODEL 1
REMARK VINA RESULT:      -7.5      0.000      0.000
REMARK  Name = 53922586
REMARK  6 active torsions:
REMARK  status: ('A' for Active; 'I' for Inactive)
REMARK    1  A    between atoms: C_3  and  C_11
REMARK    2  A    between atoms: C_3  and  C_22
REMARK    3  A    between atoms: C_14  and  N_19
REMARK    4  A    between atoms: C_16  and  O_20
REMARK    5  A    between atoms: C_25  and  N_30
REMARK    6  A    between atoms: C_27  and  O_31
REMARK                            x       y       z     vdW  Elec       q    Type
REMARK                         _______ _______ _______ _____ _____    ______ ____
ROOT
ATOM      1  O   UNL     1     -35.636  20.796   3.699  0.00  0.00    -0.440 OA
ATOM      2  O   UNL     1     -35.160  21.072   5.944  0.00  0.00    -0.245 OA
ATOM      3  C   UNL     1     -35.744  21.611   2.475  0.00  0.00    +0.193 C 
ATOM      4  C   UNL     1     -35.553  22.981   3.056  0.00  0.00    +0.028 C 
ATOM      5  C   UNL     1     -35.306  22.899   4.415  0.00  0.00    +0.076 C 
ATOM      6  C   UNL     1     -35.341  21.510   4.826  0.00  0.00    +0.342 C 
ATOM      7  C   UNL     1     -35.615  24.229   2.450  0.00  0.00    -0.000 C 
ATOM      8  C   UNL     1     -35.097  24.010   5.214  0.00  0.00    +0.006 C 
ATOM      9  C   UNL     1     -35.407  25.372   3.229  0.00  0.00    -0.000 C 
ATOM     10  C   UNL     1     -35.146  25.262   4.604  0.00  0.00    +0.000 C 
ENDROOT
BRANCH   3  11
ATOM     11  C   UNL     1     -34.626  21.067   1.577  0.00  0.00    +0.023 C 
ATOM     12  C   UNL     1     -34.195  19.749   1.721  0.00  0.00    +0.027 C 
ATOM     13  C   UNL     1     -34.041  21.892   0.616  0.00  0.00    +0.003 C 
ATOM     14  C   UNL     1     -33.177  19.256   0.904  0.00  0.00    +0.176 C 
ATOM     15  C   UNL     1     -33.023  21.399  -0.200  0.00  0.00    +0.038 C 
ATOM     16  C   UNL     1     -32.591  20.080  -0.056  0.00  0.00    +0.156 C 
BRANCH  14  19
ATOM     17  O   UNL     1     -31.665  17.684   1.653  0.00  0.00    -0.126 OA
ATOM     18  O   UNL     1     -33.467  16.987   0.613  0.00  0.00    -0.126 OA
ATOM     19  N   UNL     1     -32.749  17.909   1.065  0.00  0.00    +0.061 N 
ENDBRANCH  14  19
BRANCH  16  20
ATOM     20  O   UNL     1     -31.596  19.621  -0.866  0.00  0.00    -0.504 OA
ATOM     21  H   UNL     1     -31.806  19.112  -1.625  0.00  0.00    +0.292 HD
ENDBRANCH  16  20
ENDBRANCH   3  11
BRANCH   3  22
ATOM     22  C   UNL     1     -37.142  21.452   1.865  0.00  0.00    +0.023 C 
ATOM     23  C   UNL     1     -37.325  20.646   0.741  0.00  0.00    +0.027 C 
ATOM     24  C   UNL     1     -38.230  22.114   2.433  0.00  0.00    +0.003 C 
ATOM     25  C   UNL     1     -38.596  20.503   0.185  0.00  0.00    +0.176 C 
ATOM     26  C   UNL     1     -39.501  21.971   1.877  0.00  0.00    +0.038 C 
ATOM     27  C   UNL     1     -39.684  21.166   0.753  0.00  0.00    +0.156 C 
BRANCH  25  30
ATOM     28  O   UNL     1     -39.429  18.621  -0.855  0.00  0.00    -0.126 OA
ATOM     29  O   UNL     1     -38.243  20.034  -2.045  0.00  0.00    -0.126 OA
ATOM     30  N   UNL     1     -38.764  19.678  -0.961  0.00  0.00    +0.061 N 
ENDBRANCH  25  30
BRANCH  27  31
ATOM     31  O   UNL     1     -40.937  21.041   0.229  0.00  0.00    -0.504 OA
ATOM     32  H   UNL     1     -41.376  21.792  -0.120  0.00  0.00    +0.292 HD
ENDBRANCH  27  31
ENDBRANCH   3  22
TORSDOF 6
ENDMDL
MODEL 2
REMARK VINA RESULT:      -7.5      3.742      5.714
REMARK  Name = 53922586
REMARK  6 active torsions:
REMARK  status: ('A' for Active; 'I' for Inactive)
REMARK    1  A    between atoms: C_3  and  C_11
REMARK    2  A    between atoms: C_3  and  C_22
REMARK    3  A    between atoms: C_14  and  N_19
REMARK    4  A    between atoms: C_16  and  O_20
REMARK    5  A    between atoms: C_25  and  N_30
REMARK    6  A    between atoms: C_27  and  O_31
REMARK                            x       y       z     vdW  Elec       q    Type
REMARK                         _______ _______ _______ _____ _____    ______ ____
ROOT
ATOM      1  O   UNL     1     -34.614  26.621   4.513  0.00  0.00    -0.440 OA
ATOM      2  O   UNL     1     -32.929  27.977   5.327  0.00  0.00    -0.245 OA
ATOM      3  C   UNL     1     -34.873  25.736   3.363  0.00  0.00    +0.193 C 
ATOM      4  C   UNL     1     -33.630  25.982   2.559  0.00  0.00    +0.028 C 
ATOM      5  C   UNL     1     -32.782  26.842   3.234  0.00  0.00    +0.076 C 
ATOM      6  C   UNL     1     -33.395  27.238   4.486  0.00  0.00    +0.342 C 
ATOM      7  C   UNL     1     -33.265  25.510   1.305  0.00  0.00    -0.000 C 
ATOM      8  C   UNL     1     -31.560  27.251   2.726  0.00  0.00    +0.006 C 
ATOM      9  C   UNL     1     -32.037  25.903   0.765  0.00  0.00    -0.000 C 
ATOM     10  C   UNL     1     -31.188  26.767   1.474  0.00  0.00    +0.000 C 
ENDROOT
BRANCH   3  11
ATOM     11  C   UNL     1     -35.036  24.350   4.000  0.00  0.00    +0.023 C 
ATOM     12  C   UNL     1     -35.240  23.232   3.192  0.00  0.00    +0.027 C 
ATOM     13  C   UNL     1     -34.981  24.210   5.386  0.00  0.00    +0.003 C 
ATOM     14  C   UNL     1     -35.389  21.972   3.771  0.00  0.00    +0.176 C 
ATOM     15  C   UNL     1     -35.131  22.950   5.966  0.00  0.00    +0.038 C 
ATOM     16  C   UNL     1     -35.335  21.831   5.158  0.00  0.00    +0.156 C 
BRANCH  14  19
ATOM     17  O   UNL     1     -34.720  19.948   2.893  0.00  0.00    -0.126 OA
ATOM     18  O   UNL     1     -36.651  20.774   2.258  0.00  0.00    -0.126 OA
ATOM     19  N   UNL     1     -35.597  20.842   2.933  0.00  0.00    +0.061 N 
ENDBRANCH  14  19
BRANCH  16  20
ATOM     20  O   UNL     1     -35.478  20.610   5.747  0.00  0.00    -0.504 OA
ATOM     21  H   UNL     1     -35.638  20.550   6.669  0.00  0.00    +0.292 HD
ENDBRANCH  16  20
ENDBRANCH   3  11
BRANCH   3  22
ATOM     22  C   UNL     1     -36.126  26.208   2.615  0.00  0.00    +0.023 C 
ATOM     23  C   UNL     1     -37.392  25.864   3.087  0.00  0.00    +0.027 C 
ATOM     24  C   UNL     1     -35.999  26.981   1.461  0.00  0.00    +0.003 C 
ATOM     25  C   UNL     1     -38.531  26.292   2.405  0.00  0.00    +0.176 C 
ATOM     26  C   UNL     1     -37.138  27.409   0.779  0.00  0.00    +0.038 C 
ATOM     27  C   UNL     1     -38.403  27.064   1.250  0.00  0.00    +0.156 C 
BRANCH  25  30
ATOM     28  O   UNL     1     -39.986  24.772   3.349  0.00  0.00    -0.126 OA
ATOM     29  O   UNL     1     -40.735  26.781   2.877  0.00  0.00    -0.126 OA
ATOM     30  N   UNL     1     -39.814  25.931   2.901  0.00  0.00    +0.061 N 
ENDBRANCH  25  30
BRANCH  27  31
ATOM     31  O   UNL     1     -39.501  27.496   0.567  0.00  0.00    -0.504 OA
ATOM     32  H   UNL     1     -39.794  27.030  -0.192  0.00  0.00    +0.292 HD
ENDBRANCH  27  31
ENDBRANCH   3  22
TORSDOF 6
ENDMDL
MODEL 3
REMARK VINA RESULT:      -7.4      1.254      5.472
REMARK  Name = 53922586
REMARK  6 active torsions:
REMARK  status: ('A' for Active; 'I' for Inactive)
REMARK    1  A    between atoms: C_3  and  C_11
REMARK    2  A    between atoms: C_3  and  C_22
REMARK    3  A    between atoms: C_14  and  N_19
REMARK    4  A    between atoms: C_16  and  O_20
REMARK    5  A    between atoms: C_25  and  N_30
REMARK    6  A    between atoms: C_27  and  O_31
REMARK                            x       y       z     vdW  Elec       q    Type
REMARK                         _______ _______ _______ _____ _____    ______ ____
ROOT
ATOM      1  O   UNL     1     -35.796  23.776   1.786  0.00  0.00    -0.440 OA
ATOM      2  O   UNL     1     -35.623  25.784   2.917  0.00  0.00    -0.245 OA
ATOM      3  C   UNL     1     -35.827  22.332   2.079  0.00  0.00    +0.193 C 
ATOM      4  C   UNL     1     -35.569  22.360   3.557  0.00  0.00    +0.028 C 
ATOM      5  C   UNL     1     -35.478  23.665   4.006  0.00  0.00    +0.076 C 
ATOM      6  C   UNL     1     -35.640  24.571   2.886  0.00  0.00    +0.342 C 
ATOM      7  C   UNL     1     -35.395  21.317   4.457  0.00  0.00    -0.000 C 
ATOM      8  C   UNL     1     -35.238  23.995   5.329  0.00  0.00    +0.006 C 
ATOM      9  C   UNL     1     -35.153  21.616   5.802  0.00  0.00    -0.000 C 
ATOM     10  C   UNL     1     -35.077  22.949   6.235  0.00  0.00    +0.000 C 
ENDROOT
BRANCH   3  11
ATOM     11  C   UNL     1     -37.224  21.897   1.618  0.00  0.00    +0.023 C 
ATOM     12  C   UNL     1     -37.363  21.057   0.515  0.00  0.00    +0.027 C 
ATOM     13  C   UNL     1     -38.354  22.344   2.303  0.00  0.00    +0.003 C 
ATOM     14  C   UNL     1     -38.634  20.662   0.095  0.00  0.00    +0.176 C 
ATOM     15  C   UNL     1     -39.624  21.951   1.883  0.00  0.00    +0.038 C 
ATOM     16  C   UNL     1     -39.764  21.109   0.779  0.00  0.00    +0.156 C 
BRANCH  14  19
ATOM     17  O   UNL     1     -38.304  20.186  -2.137  0.00  0.00    -0.126 OA
ATOM     18  O   UNL     1     -39.320  18.693  -0.890  0.00  0.00    -0.126 OA
ATOM     19  N   UNL     1     -38.758  19.805  -1.032  0.00  0.00    +0.061 N 
ENDBRANCH  14  19
BRANCH  16  20
ATOM     20  O   UNL     1     -41.016  20.738   0.389  0.00  0.00    -0.504 OA
ATOM     21  H   UNL     1     -41.141  20.299  -0.430  0.00  0.00    +0.292 HD
ENDBRANCH  16  20
ENDBRANCH   3  11
BRANCH   3  22
ATOM     22  C   UNL     1     -34.694  21.623   1.326  0.00  0.00    +0.023 C 
ATOM     23  C   UNL     1     -34.453  20.266   1.544  0.00  0.00    +0.027 C 
ATOM     24  C   UNL     1     -33.904  22.335   0.424  0.00  0.00    +0.003 C 
ATOM     25  C   UNL     1     -33.422  19.622   0.860  0.00  0.00    +0.176 C 
ATOM     26  C   UNL     1     -32.873  21.691  -0.259  0.00  0.00    +0.038 C 
ATOM     27  C   UNL     1     -32.632  20.335  -0.041  0.00  0.00    +0.156 C 
BRANCH  25  30
ATOM     28  O   UNL     1     -33.987  17.401   0.611  0.00  0.00    -0.126 OA
ATOM     29  O   UNL     1     -32.197  17.899   1.780  0.00  0.00    -0.126 OA
ATOM     30  N   UNL     1     -33.191  18.240   1.096  0.00  0.00    +0.061 N 
ENDBRANCH  25  30
BRANCH  27  31
ATOM     31  O   UNL     1     -31.619  19.728  -0.723  0.00  0.00    -0.504 OA
ATOM     32  H   UNL     1     -30.728  19.900  -0.489  0.00  0.00    +0.292 HD
ENDBRANCH  27  31
ENDBRANCH   3  22
TORSDOF 6
ENDMDL
MODEL 4
REMARK VINA RESULT:      -7.4      2.394      5.238
REMARK  Name = 53922586
REMARK  6 active torsions:
REMARK  status: ('A' for Active; 'I' for Inactive)
REMARK    1  A    between atoms: C_3  and  C_11
REMARK    2  A    between atoms: C_3  and  C_22
REMARK    3  A    between atoms: C_14  and  N_19
REMARK    4  A    between atoms: C_16  and  O_20
REMARK    5  A    between atoms: C_25  and  N_30
REMARK    6  A    between atoms: C_27  and  O_31
REMARK                            x       y       z     vdW  Elec       q    Type
REMARK                         _______ _______ _______ _____ _____    ______ ____
ROOT
ATOM      1  O   UNL     1     -34.611  22.554  -0.105  0.00  0.00    -0.440 OA
ATOM      2  O   UNL     1     -32.687  22.871  -1.347  0.00  0.00    -0.245 OA
ATOM      3  C   UNL     1     -35.151  21.610   0.889  0.00  0.00    +0.193 C 
ATOM      4  C   UNL     1     -34.050  20.590   0.905  0.00  0.00    +0.028 C 
ATOM      5  C   UNL     1     -33.019  20.980   0.070  0.00  0.00    +0.076 C 
ATOM      6  C   UNL     1     -33.363  22.238  -0.563  0.00  0.00    +0.342 C 
ATOM      7  C   UNL     1     -33.958  19.381   1.583  0.00  0.00    -0.000 C 
ATOM      8  C   UNL     1     -31.872  20.228  -0.117  0.00  0.00    +0.006 C 
ATOM      9  C   UNL     1     -32.811  18.598   1.416  0.00  0.00    -0.000 C 
ATOM     10  C   UNL     1     -31.772  19.021   0.573  0.00  0.00    +0.000 C 
ENDROOT
BRANCH   3  11
ATOM     11  C   UNL     1     -35.331  22.469   2.147  0.00  0.00    +0.023 C 
ATOM     12  C   UNL     1     -35.256  21.881   3.409  0.00  0.00    +0.027 C 
ATOM     13  C   UNL     1     -35.571  23.838   2.027  0.00  0.00    +0.003 C 
ATOM     14  C   UNL     1     -35.422  22.663   4.552  0.00  0.00    +0.176 C 
ATOM     15  C   UNL     1     -35.737  24.619   3.170  0.00  0.00    +0.038 C 
ATOM     16  C   UNL     1     -35.662  24.032   4.433  0.00  0.00    +0.156 C 
BRANCH  14  19
ATOM     17  O   UNL     1     -36.309  22.165   6.621  0.00  0.00    -0.126 OA
ATOM     18  O   UNL     1     -34.308  21.406   6.133  0.00  0.00    -0.126 OA
ATOM     19  N   UNL     1     -35.343  22.047   5.832  0.00  0.00    +0.061 N 
ENDBRANCH  14  19
BRANCH  16  20
ATOM     20  O   UNL     1     -35.827  24.816   5.536  0.00  0.00    -0.504 OA
ATOM     21  H   UNL     1     -36.552  25.409   5.586  0.00  0.00    +0.292 HD
ENDBRANCH  16  20
ENDBRANCH   3  11
BRANCH   3  22
ATOM     22  C   UNL     1     -36.465  21.007   0.376  0.00  0.00    +0.023 C 
ATOM     23  C   UNL     1     -37.682  21.434   0.905  0.00  0.00    +0.027 C 
ATOM     24  C   UNL     1     -36.442  20.031  -0.621  0.00  0.00    +0.003 C 
ATOM     25  C   UNL     1     -38.877  20.884   0.439  0.00  0.00    +0.176 C 
ATOM     26  C   UNL     1     -37.636  19.482  -1.087  0.00  0.00    +0.038 C 
ATOM     27  C   UNL     1     -38.853  19.908  -0.557  0.00  0.00    +0.156 C 
BRANCH  25  30
ATOM     28  O   UNL     1     -40.342  21.115   2.204  0.00  0.00    -0.126 OA
ATOM     29  O   UNL     1     -40.923  21.930   0.251  0.00  0.00    -0.126 OA
ATOM     30  N   UNL     1     -40.108  21.331   0.992  0.00  0.00    +0.061 N 
ENDBRANCH  25  30
BRANCH  27  31
ATOM     31  O   UNL     1     -40.007  19.357  -1.030  0.00  0.00    -0.504 OA
ATOM     32  H   UNL     1     -39.977  18.565  -1.530  0.00  0.00    +0.292 HD
ENDBRANCH  27  31
ENDBRANCH   3  22
TORSDOF 6
ENDMDL
MODEL 5
REMARK VINA RESULT:      -7.2      2.645      5.629
REMARK  Name = 53922586
REMARK  6 active torsions:
REMARK  status: ('A' for Active; 'I' for Inactive)
REMARK    1  A    between atoms: C_3  and  C_11
REMARK    2  A    between atoms: C_3  and  C_22
REMARK    3  A    between atoms: C_14  and  N_19
REMARK    4  A    between atoms: C_16  and  O_20
REMARK    5  A    between atoms: C_25  and  N_30
REMARK    6  A    between atoms: C_27  and  O_31
REMARK                            x       y       z     vdW  Elec       q    Type
REMARK                         _______ _______ _______ _____ _____    ______ ____
ROOT
ATOM      1  O   UNL     1     -34.514  22.476   0.094  0.00  0.00    -0.440 OA
ATOM      2  O   UNL     1     -32.597  22.855  -1.139  0.00  0.00    -0.245 OA
ATOM      3  C   UNL     1     -35.052  21.481   1.039  0.00  0.00    +0.193 C 
ATOM      4  C   UNL     1     -33.953  20.459   0.995  0.00  0.00    +0.028 C 
ATOM      5  C   UNL     1     -32.925  20.892   0.177  0.00  0.00    +0.076 C 
ATOM      6  C   UNL     1     -33.269  22.183  -0.386  0.00  0.00    +0.342 C 
ATOM      7  C   UNL     1     -33.860  19.216   1.606  0.00  0.00    -0.000 C 
ATOM      8  C   UNL     1     -31.781  20.148  -0.056  0.00  0.00    +0.006 C 
ATOM      9  C   UNL     1     -32.716  18.440   1.392  0.00  0.00    -0.000 C 
ATOM     10  C   UNL     1     -31.681  18.906   0.567  0.00  0.00    +0.000 C 
ENDROOT
BRANCH   3  11
ATOM     11  C   UNL     1     -35.223  22.271   2.342  0.00  0.00    +0.023 C 
ATOM     12  C   UNL     1     -35.177  23.665   2.323  0.00  0.00    +0.027 C 
ATOM     13  C   UNL     1     -35.423  21.596   3.546  0.00  0.00    +0.003 C 
ATOM     14  C   UNL     1     -35.332  24.383   3.509  0.00  0.00    +0.176 C 
ATOM     15  C   UNL     1     -35.577  22.314   4.731  0.00  0.00    +0.038 C 
ATOM     16  C   UNL     1     -35.532  23.708   4.713  0.00  0.00    +0.156 C 
BRANCH  14  19
ATOM     17  O   UNL     1     -34.429  26.399   4.172  0.00  0.00    -0.126 OA
ATOM     18  O   UNL     1     -36.093  26.420   2.741  0.00  0.00    -0.126 OA
ATOM     19  N   UNL     1     -35.282  25.804   3.472  0.00  0.00    +0.061 N 
ENDBRANCH  14  19
BRANCH  16  20
ATOM     20  O   UNL     1     -35.686  24.388   5.884  0.00  0.00    -0.504 OA
ATOM     21  H   UNL     1     -34.973  24.445   6.491  0.00  0.00    +0.292 HD
ENDBRANCH  16  20
ENDBRANCH   3  11
BRANCH   3  22
ATOM     22  C   UNL     1     -36.369  20.910   0.501  0.00  0.00    +0.023 C 
ATOM     23  C   UNL     1     -37.587  21.383   0.990  0.00  0.00    +0.027 C 
ATOM     24  C   UNL     1     -36.350  19.915  -0.477  0.00  0.00    +0.003 C 
ATOM     25  C   UNL     1     -38.785  20.862   0.501  0.00  0.00    +0.176 C 
ATOM     26  C   UNL     1     -37.548  19.394  -0.965  0.00  0.00    +0.038 C 
ATOM     27  C   UNL     1     -38.765  19.867  -0.476  0.00  0.00    +0.156 C 
BRANCH  25  30
ATOM     28  O   UNL     1     -40.770  22.008   0.251  0.00  0.00    -0.126 OA
ATOM     29  O   UNL     1     -40.313  21.124   2.208  0.00  0.00    -0.126 OA
ATOM     30  N   UNL     1     -40.016  21.356   1.012  0.00  0.00    +0.061 N 
ENDBRANCH  25  30
BRANCH  27  31
ATOM     31  O   UNL     1     -39.922  19.342  -0.971  0.00  0.00    -0.504 OA
ATOM     32  H   UNL     1     -40.214  18.499  -0.684  0.00  0.00    +0.292 HD
ENDBRANCH  27  31
ENDBRANCH   3  22
TORSDOF 6
ENDMDL
MODEL 6
REMARK VINA RESULT:      -7.2      2.781      3.739
REMARK  Name = 53922586
REMARK  6 active torsions:
REMARK  status: ('A' for Active; 'I' for Inactive)
REMARK    1  A    between atoms: C_3  and  C_11
REMARK    2  A    between atoms: C_3  and  C_22
REMARK    3  A    between atoms: C_14  and  N_19
REMARK    4  A    between atoms: C_16  and  O_20
REMARK    5  A    between atoms: C_25  and  N_30
REMARK    6  A    between atoms: C_27  and  O_31
REMARK                            x       y       z     vdW  Elec       q    Type
REMARK                         _______ _______ _______ _____ _____    ______ ____
ROOT
ATOM      1  O   UNL     1     -36.162  22.167   4.523  0.00  0.00    -0.440 OA
ATOM      2  O   UNL     1     -35.437  22.334   6.712  0.00  0.00    -0.245 OA
ATOM      3  C   UNL     1     -36.085  22.929   3.264  0.00  0.00    +0.193 C 
ATOM      4  C   UNL     1     -35.388  24.166   3.750  0.00  0.00    +0.028 C 
ATOM      5  C   UNL     1     -35.074  24.047   5.091  0.00  0.00    +0.076 C 
ATOM      6  C   UNL     1     -35.548  22.770   5.585  0.00  0.00    +0.342 C 
ATOM      7  C   UNL     1     -35.069  25.338   3.076  0.00  0.00    -0.000 C 
ATOM      8  C   UNL     1     -34.431  25.042   5.808  0.00  0.00    +0.006 C 
ATOM      9  C   UNL     1     -34.417  26.362   3.771  0.00  0.00    -0.000 C 
ATOM     10  C   UNL     1     -34.098  26.213   5.130  0.00  0.00    +0.000 C 
ENDROOT
BRANCH   3  11
ATOM     11  C   UNL     1     -35.299  22.003   2.327  0.00  0.00    +0.023 C 
ATOM     12  C   UNL     1     -34.661  22.527   1.204  0.00  0.00    +0.027 C 
ATOM     13  C   UNL     1     -35.226  20.637   2.598  0.00  0.00    +0.003 C 
ATOM     14  C   UNL     1     -33.948  21.684   0.350  0.00  0.00    +0.176 C 
ATOM     15  C   UNL     1     -34.515  19.794   1.744  0.00  0.00    +0.038 C 
ATOM     16  C   UNL     1     -33.875  20.318   0.620  0.00  0.00    +0.156 C 
BRANCH  14  19
ATOM     17  O   UNL     1     -32.056  22.146  -0.884  0.00  0.00    -0.126 OA
ATOM     18  O   UNL     1     -34.000  22.795  -1.670  0.00  0.00    -0.126 OA
ATOM     19  N   UNL     1     -33.303  22.235  -0.791  0.00  0.00    +0.061 N 
ENDBRANCH  14  19
BRANCH  16  20
ATOM     20  O   UNL     1     -33.185  19.474  -0.198  0.00  0.00    -0.504 OA
ATOM     21  H   UNL     1     -32.747  19.810  -0.956  0.00  0.00    +0.292 HD
ENDBRANCH  16  20
ENDBRANCH   3  11
BRANCH   3  22
ATOM     22  C   UNL     1     -37.497  23.244   2.758  0.00  0.00    +0.023 C 
ATOM     23  C   UNL     1     -37.967  24.557   2.769  0.00  0.00    +0.027 C 
ATOM     24  C   UNL     1     -38.315  22.216   2.286  0.00  0.00    +0.003 C 
ATOM     25  C   UNL     1     -39.252  24.843   2.310  0.00  0.00    +0.176 C 
ATOM     26  C   UNL     1     -39.600  22.502   1.827  0.00  0.00    +0.038 C 
ATOM     27  C   UNL     1     -40.069  23.815   1.839  0.00  0.00    +0.156 C 
BRANCH  25  30
ATOM     28  O   UNL     1     -39.212  27.012   1.529  0.00  0.00    -0.126 OA
ATOM     29  O   UNL     1     -40.609  26.510   3.145  0.00  0.00    -0.126 OA
ATOM     30  N   UNL     1     -39.713  26.188   2.329  0.00  0.00    +0.061 N 
ENDBRANCH  25  30
BRANCH  27  31
ATOM     31  O   UNL     1     -41.329  24.069   1.384  0.00  0.00    -0.504 OA
ATOM     32  H   UNL     1     -42.046  24.103   1.985  0.00  0.00    +0.292 HD
ENDBRANCH  27  31
ENDBRANCH   3  22
TORSDOF 6
ENDMDL
MODEL 7
REMARK VINA RESULT:      -7.2      1.773      2.587
REMARK  Name = 53922586
REMARK  6 active torsions:
REMARK  status: ('A' for Active; 'I' for Inactive)
REMARK    1  A    between atoms: C_3  and  C_11
REMARK    2  A    between atoms: C_3  and  C_22
REMARK    3  A    between atoms: C_14  and  N_19
REMARK    4  A    between atoms: C_16  and  O_20
REMARK    5  A    between atoms: C_25  and  N_30
REMARK    6  A    between atoms: C_27  and  O_31
REMARK                            x       y       z     vdW  Elec       q    Type
REMARK                         _______ _______ _______ _____ _____    ______ ____
ROOT
ATOM      1  O   UNL     1     -36.047  22.019   4.410  0.00  0.00    -0.440 OA
ATOM      2  O   UNL     1     -35.356  22.255   6.603  0.00  0.00    -0.245 OA
ATOM      3  C   UNL     1     -36.007  22.771   3.143  0.00  0.00    +0.193 C 
ATOM      4  C   UNL     1     -35.397  24.056   3.621  0.00  0.00    +0.028 C 
ATOM      5  C   UNL     1     -35.089  23.972   4.967  0.00  0.00    +0.076 C 
ATOM      6  C   UNL     1     -35.484  22.672   5.470  0.00  0.00    +0.342 C 
ATOM      7  C   UNL     1     -35.148  25.239   2.938  0.00  0.00    -0.000 C 
ATOM      8  C   UNL     1     -34.519  25.014   5.678  0.00  0.00    +0.006 C 
ATOM      9  C   UNL     1     -34.572  26.311   3.627  0.00  0.00    -0.000 C 
ATOM     10  C   UNL     1     -34.256  26.197   4.991  0.00  0.00    +0.000 C 
ENDROOT
BRANCH   3  11
ATOM     11  C   UNL     1     -35.154  21.889   2.223  0.00  0.00    +0.023 C 
ATOM     12  C   UNL     1     -34.423  22.465   1.185  0.00  0.00    +0.027 C 
ATOM     13  C   UNL     1     -35.112  20.509   2.425  0.00  0.00    +0.003 C 
ATOM     14  C   UNL     1     -33.649  21.662   0.348  0.00  0.00    +0.176 C 
ATOM     15  C   UNL     1     -34.338  19.706   1.587  0.00  0.00    +0.038 C 
ATOM     16  C   UNL     1     -33.606  20.282   0.548  0.00  0.00    +0.156 C 
BRANCH  14  19
ATOM     17  O   UNL     1     -33.241  22.029  -1.892  0.00  0.00    -0.126 OA
ATOM     18  O   UNL     1     -31.949  23.019  -0.419  0.00  0.00    -0.126 OA
ATOM     19  N   UNL     1     -32.910  22.266  -0.706  0.00  0.00    +0.061 N 
ENDBRANCH  14  19
BRANCH  16  20
ATOM     20  O   UNL     1     -32.857  19.477  -0.256  0.00  0.00    -0.504 OA
ATOM     21  H   UNL     1     -33.053  18.562  -0.317  0.00  0.00    +0.292 HD
ENDBRANCH  16  20
ENDBRANCH   3  11
BRANCH   3  22
ATOM     22  C   UNL     1     -37.432  22.988   2.620  0.00  0.00    +0.023 C 
ATOM     23  C   UNL     1     -38.016  22.048   1.771  0.00  0.00    +0.027 C 
ATOM     24  C   UNL     1     -38.146  24.127   2.994  0.00  0.00    +0.003 C 
ATOM     25  C   UNL     1     -39.311  22.247   1.295  0.00  0.00    +0.176 C 
ATOM     26  C   UNL     1     -39.441  24.326   2.517  0.00  0.00    +0.038 C 
ATOM     27  C   UNL     1     -40.024  23.386   1.668  0.00  0.00    +0.156 C 
BRANCH  25  30
ATOM     28  O   UNL     1     -41.024  20.821   0.704  0.00  0.00    -0.126 OA
ATOM     29  O   UNL     1     -39.248  20.910  -0.583  0.00  0.00    -0.126 OA
ATOM     30  N   UNL     1     -39.889  21.278   0.430  0.00  0.00    +0.061 N 
ENDBRANCH  25  30
BRANCH  27  31
ATOM     31  O   UNL     1     -41.292  23.603   1.217  0.00  0.00    -0.504 OA
ATOM     32  H   UNL     1     -41.827  22.879   0.957  0.00  0.00    +0.292 HD
ENDBRANCH  27  31
ENDBRANCH   3  22
TORSDOF 6
ENDMDL
MODEL 8
REMARK VINA RESULT:      -7.1      4.355      6.089
REMARK  Name = 53922586
REMARK  6 active torsions:
REMARK  status: ('A' for Active; 'I' for Inactive)
REMARK    1  A    between atoms: C_3  and  C_11
REMARK    2  A    between atoms: C_3  and  C_22
REMARK    3  A    between atoms: C_14  and  N_19
REMARK    4  A    between atoms: C_16  and  O_20
REMARK    5  A    between atoms: C_25  and  N_30
REMARK    6  A    between atoms: C_27  and  O_31
REMARK                            x       y       z     vdW  Elec       q    Type
REMARK                         _______ _______ _______ _____ _____    ______ ____
ROOT
ATOM      1  O   UNL     1     -34.589  26.622   4.537  0.00  0.00    -0.440 OA
ATOM      2  O   UNL     1     -32.904  27.964   5.375  0.00  0.00    -0.245 OA
ATOM      3  C   UNL     1     -34.840  25.740   3.384  0.00  0.00    +0.193 C 
ATOM      4  C   UNL     1     -33.584  25.975   2.597  0.00  0.00    +0.028 C 
ATOM      5  C   UNL     1     -32.738  26.827   3.283  0.00  0.00    +0.076 C 
ATOM      6  C   UNL     1     -33.365  27.229   4.526  0.00  0.00    +0.342 C 
ATOM      7  C   UNL     1     -33.206  25.500   1.348  0.00  0.00    -0.000 C 
ATOM      8  C   UNL     1     -31.506  27.226   2.792  0.00  0.00    +0.006 C 
ATOM      9  C   UNL     1     -31.967  25.882   0.824  0.00  0.00    -0.000 C 
ATOM     10  C   UNL     1     -31.120  26.739   1.545  0.00  0.00    +0.000 C 
ENDROOT
BRANCH   3  11
ATOM     11  C   UNL     1     -35.024  24.356   4.017  0.00  0.00    +0.023 C 
ATOM     12  C   UNL     1     -35.233  23.241   3.207  0.00  0.00    +0.027 C 
ATOM     13  C   UNL     1     -34.983  24.213   5.404  0.00  0.00    +0.003 C 
ATOM     14  C   UNL     1     -35.401  21.982   3.784  0.00  0.00    +0.176 C 
ATOM     15  C   UNL     1     -35.152  22.955   5.981  0.00  0.00    +0.038 C 
ATOM     16  C   UNL     1     -35.361  21.839   5.171  0.00  0.00    +0.156 C 
BRANCH  14  19
ATOM     17  O   UNL     1     -34.724  19.975   2.871  0.00  0.00    -0.126 OA
ATOM     18  O   UNL     1     -36.686  20.774   2.297  0.00  0.00    -0.126 OA
ATOM     19  N   UNL     1     -35.615  20.855   2.943  0.00  0.00    +0.061 N 
ENDBRANCH  14  19
BRANCH  16  20
ATOM     20  O   UNL     1     -35.522  20.619   5.758  0.00  0.00    -0.504 OA
ATOM     21  H   UNL     1     -36.085  20.527   6.502  0.00  0.00    +0.292 HD
ENDBRANCH  16  20
ENDBRANCH   3  11
BRANCH   3  22
ATOM     22  C   UNL     1     -36.079  26.223   2.618  0.00  0.00    +0.023 C 
ATOM     23  C   UNL     1     -36.026  27.404   1.879  0.00  0.00    +0.027 C 
ATOM     24  C   UNL     1     -37.259  25.480   2.662  0.00  0.00    +0.003 C 
ATOM     25  C   UNL     1     -37.153  27.844   1.184  0.00  0.00    +0.176 C 
ATOM     26  C   UNL     1     -38.386  25.920   1.968  0.00  0.00    +0.038 C 
ATOM     27  C   UNL     1     -38.333  27.101   1.229  0.00  0.00    +0.156 C 
BRANCH  25  30
ATOM     28  O   UNL     1     -36.995  30.140   1.051  0.00  0.00    -0.126 OA
ATOM     29  O   UNL     1     -37.102  28.991  -0.816  0.00  0.00    -0.126 OA
ATOM     30  N   UNL     1     -37.081  29.051   0.437  0.00  0.00    +0.061 N 
ENDBRANCH  25  30
BRANCH  27  31
ATOM     31  O   UNL     1     -39.447  27.509   0.558  0.00  0.00    -0.504 OA
ATOM     32  H   UNL     1     -39.455  28.339   0.123  0.00  0.00    +0.292 HD
ENDBRANCH  27  31
ENDBRANCH   3  22
TORSDOF 6
ENDMDL
MODEL 9
REMARK VINA RESULT:      -7.0      3.888      6.138
REMARK  Name = 53922586
REMARK  6 active torsions:
REMARK  status: ('A' for Active; 'I' for Inactive)
REMARK    1  A    between atoms: C_3  and  C_11
REMARK    2  A    between atoms: C_3  and  C_22
REMARK    3  A    between atoms: C_14  and  N_19
REMARK    4  A    between atoms: C_16  and  O_20
REMARK    5  A    between atoms: C_25  and  N_30
REMARK    6  A    between atoms: C_27  and  O_31
REMARK                            x       y       z     vdW  Elec       q    Type
REMARK                         _______ _______ _______ _____ _____    ______ ____
ROOT
ATOM      1  O   UNL     1     -38.283  25.262   3.322  0.00  0.00    -0.440 OA
ATOM      2  O   UNL     1     -40.075  26.669   2.931  0.00  0.00    -0.245 OA
ATOM      3  C   UNL     1     -36.988  24.914   2.711  0.00  0.00    +0.193 C 
ATOM      4  C   UNL     1     -37.068  25.722   1.449  0.00  0.00    +0.028 C 
ATOM      5  C   UNL     1     -38.236  26.463   1.425  0.00  0.00    +0.076 C 
ATOM      6  C   UNL     1     -39.005  26.188   2.622  0.00  0.00    +0.342 C 
ATOM      7  C   UNL     1     -36.194  25.793   0.372  0.00  0.00    -0.000 C 
ATOM      8  C   UNL     1     -38.579  27.299   0.376  0.00  0.00    +0.006 C 
ATOM      9  C   UNL     1     -36.511  26.629  -0.703  0.00  0.00    -0.000 C 
ATOM     10  C   UNL     1     -37.696  27.381  -0.699  0.00  0.00    +0.000 C 
ENDROOT
BRANCH   3  11
ATOM     11  C   UNL     1     -35.960  25.352   3.761  0.00  0.00    +0.023 C 
ATOM     12  C   UNL     1     -34.899  26.179   3.396  0.00  0.00    +0.027 C 
ATOM     13  C   UNL     1     -36.087  24.922   5.082  0.00  0.00    +0.003 C 
ATOM     14  C   UNL     1     -33.963  26.576   4.351  0.00  0.00    +0.176 C 
ATOM     15  C   UNL     1     -35.152  25.318   6.038  0.00  0.00    +0.038 C 
ATOM     16  C   UNL     1     -34.089  26.145   5.672  0.00  0.00    +0.156 C 
BRANCH  14  19
ATOM     17  O   UNL     1     -32.890  28.617   4.330  0.00  0.00    -0.126 OA
ATOM     18  O   UNL     1     -31.965  26.939   3.260  0.00  0.00    -0.126 OA
ATOM     19  N   UNL     1     -32.886  27.419   3.962  0.00  0.00    +0.061 N 
ENDBRANCH  14  19
BRANCH  16  20
ATOM     20  O   UNL     1     -33.189  26.520   6.624  0.00  0.00    -0.504 OA
ATOM     21  H   UNL     1     -33.270  26.197   7.501  0.00  0.00    +0.292 HD
ENDBRANCH  16  20
ENDBRANCH   3  11
BRANCH   3  22
ATOM     22  C   UNL     1     -36.941  23.411   2.410  0.00  0.00    +0.023 C 
ATOM     23  C   UNL     1     -38.044  22.778   1.838  0.00  0.00    +0.027 C 
ATOM     24  C   UNL     1     -35.794  22.675   2.710  0.00  0.00    +0.003 C 
ATOM     25  C   UNL     1     -38.002  21.411   1.566  0.00  0.00    +0.176 C 
ATOM     26  C   UNL     1     -35.751  21.308   2.439  0.00  0.00    +0.038 C 
ATOM     27  C   UNL     1     -36.855  20.676   1.867  0.00  0.00    +0.156 C 
BRANCH  25  30
ATOM     28  O   UNL     1     -38.966  19.989   0.028  0.00  0.00    -0.126 OA
ATOM     29  O   UNL     1     -40.274  21.040   1.443  0.00  0.00    -0.126 OA
ATOM     30  N   UNL     1     -39.136  20.783   0.983  0.00  0.00    +0.061 N 
ENDBRANCH  25  30
BRANCH  27  31
ATOM     31  O   UNL     1     -36.788  19.338   1.610  0.00  0.00    -0.504 OA
ATOM     32  H   UNL     1     -36.033  18.848   1.872  0.00  0.00    +0.292 HD
ENDBRANCH  27  31
ENDBRANCH   3  22
TORSDOF 6
ENDMDL
