MODEL 1
REMARK VINA RESULT:      -7.5      0.000      0.000
REMARK  Name = 54691345
REMARK  7 active torsions:
REMARK  status: ('A' for Active; 'I' for Inactive)
REMARK    1  A    between atoms: N_2  and  C_9
REMARK    2  A    between atoms: C_3  and  C_22
REMARK    3  A    between atoms: C_10  and  O_17
REMARK    4  A    between atoms: C_15  and  O_19
REMARK    5  A    between atoms: C_21  and  C_29
REMARK    6  A    between atoms: C_24  and  O_27
REMARK    7  A    between atoms: C_29  and  C_30
REMARK                            x       y       z     vdW  Elec       q    Type
REMARK                         _______ _______ _______ _____ _____    ______ ____
ROOT
ATOM      1  O   UNL     1     -35.937  26.602   5.287  0.00  0.00    -0.270 OA
ATOM      2  N   UNL     1     -35.484  26.164   3.048  0.00  0.00    -0.273 N 
ATOM      3  C   UNL     1     -35.668  25.821   4.378  0.00  0.00    +0.250 C 
ATOM      4  H   UNL     1     -35.271  25.450   2.406  0.00  0.00    +0.155 HD
ENDROOT
BRANCH   2   9
ATOM      5 CL   UNL     1     -37.443  31.521  -0.166  0.00  0.00    -0.076 Cl
ATOM      6  O   UNL     1     -36.793  28.983   1.125  0.00  0.00    -0.419 OA
ATOM      7  O   UNL     1     -37.477  26.815   1.295  0.00  0.00    -0.243 OA
ATOM      8  C   UNL     1     -34.895  29.783   2.438  0.00  0.00    +0.071 A 
ATOM      9  C   UNL     1     -35.584  27.447   2.584  0.00  0.00    +0.162 A 
ATOM     10  C   UNL     1     -34.737  28.418   2.956  0.00  0.00    +0.156 A 
ATOM     11  C   UNL     1     -35.923  30.018   1.524  0.00  0.00    +0.165 A 
ATOM     12  C   UNL     1     -34.097  30.876   2.806  0.00  0.00    +0.009 C 
ATOM     13  C   UNL     1     -36.691  27.695   1.632  0.00  0.00    +0.362 A 
ATOM     14  C   UNL     1     -36.159  31.277   0.967  0.00  0.00    +0.126 C 
ATOM     15  C   UNL     1     -35.349  32.345   1.337  0.00  0.00    +0.147 C 
ATOM     16  C   UNL     1     -34.322  32.146   2.257  0.00  0.00    +0.038 C 
BRANCH  10  17
ATOM     17  O   UNL     1     -33.689  28.243   3.832  0.00  0.00    -0.504 OA
ATOM     18  H   UNL     1     -33.807  28.415   4.745  0.00  0.00    +0.292 HD
ENDBRANCH  10  17
BRANCH  15  19
ATOM     19  O   UNL     1     -35.535  33.593   0.824  0.00  0.00    -0.505 OA
ATOM     20  H   UNL     1     -35.856  33.697  -0.050  0.00  0.00    +0.292 HD
ENDBRANCH  15  19
ENDBRANCH   2   9
BRANCH   3  22
ATOM     21  C   UNL     1     -35.542  22.068   3.963  0.00  0.00    +0.016 C 
ATOM     22  C   UNL     1     -35.542  24.373   4.690  0.00  0.00    +0.054 C 
ATOM     23  C   UNL     1     -35.660  23.427   3.671  0.00  0.00    +0.004 C 
ATOM     24  C   UNL     1     -35.306  21.656   5.274  0.00  0.00    +0.130 C 
ATOM     25  C   UNL     1     -35.306  23.960   6.000  0.00  0.00    +0.008 C 
ATOM     26  C   UNL     1     -35.187  22.601   6.292  0.00  0.00    +0.036 C 
BRANCH  24  27
ATOM     27  O   UNL     1     -35.188  20.332   5.577  0.00  0.00    -0.506 OA
ATOM     28  H   UNL     1     -34.794  19.745   4.963  0.00  0.00    +0.292 HD
ENDBRANCH  24  27
BRANCH  21  29
ATOM     29  C   UNL     1     -35.671  21.071   2.859  0.00  0.00    +0.055 C 
BRANCH  29  30
ATOM     30  C   UNL     1     -34.813  21.405   1.664  0.00  0.00    -0.030 C 
ATOM     31  C   UNL     1     -33.932  20.609   1.027  0.00  0.00    -0.048 C 
ATOM     32  C   UNL     1     -33.106  21.008  -0.163  0.00  0.00    +0.026 C 
ATOM     33  C   UNL     1     -33.698  19.199   1.500  0.00  0.00    +0.026 C 
ENDBRANCH  29  30
ENDBRANCH  21  29
ENDBRANCH   3  22
TORSDOF 7
ENDMDL
MODEL 2
REMARK VINA RESULT:      -7.4      1.473      2.361
REMARK  Name = 54691345
REMARK  7 active torsions:
REMARK  status: ('A' for Active; 'I' for Inactive)
REMARK    1  A    between atoms: N_2  and  C_9
REMARK    2  A    between atoms: C_3  and  C_22
REMARK    3  A    between atoms: C_10  and  O_17
REMARK    4  A    between atoms: C_15  and  O_19
REMARK    5  A    between atoms: C_21  and  C_29
REMARK    6  A    between atoms: C_24  and  O_27
REMARK    7  A    between atoms: C_29  and  C_30
REMARK                            x       y       z     vdW  Elec       q    Type
REMARK                         _______ _______ _______ _____ _____    ______ ____
ROOT
ATOM      1  O   UNL     1     -35.993  26.618   5.283  0.00  0.00    -0.270 OA
ATOM      2  N   UNL     1     -34.388  26.403   3.614  0.00  0.00    -0.273 N 
ATOM      3  C   UNL     1     -35.255  25.927   4.585  0.00  0.00    +0.250 C 
ATOM      4  H   UNL     1     -33.844  25.752   3.114  0.00  0.00    +0.155 HD
ENDROOT
BRANCH   2   9
ATOM      5 CL   UNL     1     -31.993  32.468   3.024  0.00  0.00    -0.076 Cl
ATOM      6  O   UNL     1     -32.799  29.689   3.423  0.00  0.00    -0.419 OA
ATOM      7  O   UNL     1     -32.052  27.686   4.215  0.00  0.00    -0.243 OA
ATOM      8  C   UNL     1     -35.019  29.866   2.420  0.00  0.00    +0.071 A 
ATOM      9  C   UNL     1     -34.250  27.731   3.316  0.00  0.00    +0.162 A 
ATOM     10  C   UNL     1     -35.223  28.445   2.731  0.00  0.00    +0.156 A 
ATOM     11  C   UNL     1     -33.806  30.446   2.789  0.00  0.00    +0.165 A 
ATOM     12  C   UNL     1     -35.951  30.683   1.763  0.00  0.00    +0.009 C 
ATOM     13  C   UNL     1     -32.951  28.335   3.690  0.00  0.00    +0.362 A 
ATOM     14  C   UNL     1     -33.510  31.789   2.545  0.00  0.00    +0.126 C 
ATOM     15  C   UNL     1     -34.453  32.585   1.903  0.00  0.00    +0.147 C 
ATOM     16  C   UNL     1     -35.669  32.031   1.509  0.00  0.00    +0.038 C 
BRANCH  10  17
ATOM     17  O   UNL     1     -36.450  27.937   2.367  0.00  0.00    -0.504 OA
ATOM     18  H   UNL     1     -36.505  27.265   1.717  0.00  0.00    +0.292 HD
ENDBRANCH  10  17
BRANCH  15  19
ATOM     19  O   UNL     1     -34.217  33.900   1.640  0.00  0.00    -0.505 OA
ATOM     20  H   UNL     1     -34.934  34.500   1.573  0.00  0.00    +0.292 HD
ENDBRANCH  15  19
ENDBRANCH   2   9
BRANCH   3  22
ATOM     21  C   UNL     1     -35.540  22.243   3.802  0.00  0.00    +0.016 C 
ATOM     22  C   UNL     1     -35.285  24.451   4.751  0.00  0.00    +0.054 C 
ATOM     23  C   UNL     1     -35.513  23.629   3.646  0.00  0.00    +0.004 C 
ATOM     24  C   UNL     1     -35.340  21.679   5.062  0.00  0.00    +0.130 C 
ATOM     25  C   UNL     1     -35.085  23.887   6.010  0.00  0.00    +0.008 C 
ATOM     26  C   UNL     1     -35.112  22.501   6.166  0.00  0.00    +0.036 C 
BRANCH  24  27
ATOM     27  O   UNL     1     -35.363  20.328   5.232  0.00  0.00    -0.506 OA
ATOM     28  H   UNL     1     -34.566  19.838   5.198  0.00  0.00    +0.292 HD
ENDBRANCH  24  27
BRANCH  21  29
ATOM     29  C   UNL     1     -35.785  21.379   2.609  0.00  0.00    +0.055 C 
BRANCH  29  30
ATOM     30  C   UNL     1     -34.787  21.613   1.501  0.00  0.00    -0.030 C 
ATOM     31  C   UNL     1     -33.912  20.735   0.974  0.00  0.00    -0.048 C 
ATOM     32  C   UNL     1     -32.942  21.037  -0.132  0.00  0.00    +0.026 C 
ATOM     33  C   UNL     1     -33.839  19.325   1.497  0.00  0.00    +0.026 C 
ENDBRANCH  29  30
ENDBRANCH  21  29
ENDBRANCH   3  22
TORSDOF 7
ENDMDL
MODEL 3
REMARK VINA RESULT:      -7.2      5.039      7.882
REMARK  Name = 54691345
REMARK  7 active torsions:
REMARK  status: ('A' for Active; 'I' for Inactive)
REMARK    1  A    between atoms: N_2  and  C_9
REMARK    2  A    between atoms: C_3  and  C_22
REMARK    3  A    between atoms: C_10  and  O_17
REMARK    4  A    between atoms: C_15  and  O_19
REMARK    5  A    between atoms: C_21  and  C_29
REMARK    6  A    between atoms: C_24  and  O_27
REMARK    7  A    between atoms: C_29  and  C_30
REMARK                            x       y       z     vdW  Elec       q    Type
REMARK                         _______ _______ _______ _____ _____    ______ ____
ROOT
ATOM      1  O   UNL     1     -35.450  20.272  -0.184  0.00  0.00    -0.270 OA
ATOM      2  N   UNL     1     -36.812  19.729   1.621  0.00  0.00    -0.273 N 
ATOM      3  C   UNL     1     -36.114  19.459   0.455  0.00  0.00    +0.250 C 
ATOM      4  H   UNL     1     -37.311  18.996   2.048  0.00  0.00    +0.155 HD
ENDROOT
BRANCH   2   9
ATOM      5 CL   UNL     1     -38.396  25.898   3.138  0.00  0.00    -0.076 Cl
ATOM      6  O   UNL     1     -37.907  23.159   2.249  0.00  0.00    -0.419 OA
ATOM      7  O   UNL     1     -38.662  21.566   0.803  0.00  0.00    -0.243 OA
ATOM      8  C   UNL     1     -36.081  22.657   3.792  0.00  0.00    +0.071 A 
ATOM      9  C   UNL     1     -36.844  20.964   2.208  0.00  0.00    +0.162 A 
ATOM     10  C   UNL     1     -35.997  21.322   3.185  0.00  0.00    +0.156 A 
ATOM     11  C   UNL     1     -37.037  23.541   3.292  0.00  0.00    +0.165 A 
ATOM     12  C   UNL     1     -35.280  23.106   4.851  0.00  0.00    +0.009 C 
ATOM     13  C   UNL     1     -37.876  21.890   1.688  0.00  0.00    +0.362 A 
ATOM     14  C   UNL     1     -37.199  24.834   3.792  0.00  0.00    +0.126 C 
ATOM     15  C   UNL     1     -36.386  25.264   4.836  0.00  0.00    +0.147 C 
ATOM     16  C   UNL     1     -35.431  24.400   5.366  0.00  0.00    +0.038 C 
BRANCH  10  17
ATOM     17  O   UNL     1     -35.016  20.505   3.702  0.00  0.00    -0.504 OA
ATOM     18  H   UNL     1     -34.115  20.753   3.634  0.00  0.00    +0.292 HD
ENDBRANCH  10  17
BRANCH  15  19
ATOM     19  O   UNL     1     -36.502  26.515   5.362  0.00  0.00    -0.505 OA
ATOM     20  H   UNL     1     -36.364  27.266   4.818  0.00  0.00    +0.292 HD
ENDBRANCH  15  19
ENDBRANCH   2   9
BRANCH   3  22
ATOM     21  C   UNL     1     -37.465  16.070  -0.523  0.00  0.00    +0.016 C 
ATOM     22  C   UNL     1     -36.178  18.052  -0.020  0.00  0.00    +0.054 C 
ATOM     23  C   UNL     1     -37.405  17.390  -0.077  0.00  0.00    +0.004 C 
ATOM     24  C   UNL     1     -36.299  15.412  -0.911  0.00  0.00    +0.130 C 
ATOM     25  C   UNL     1     -35.012  17.394  -0.408  0.00  0.00    +0.008 C 
ATOM     26  C   UNL     1     -35.072  16.074  -0.854  0.00  0.00    +0.036 C 
BRANCH  24  27
ATOM     27  O   UNL     1     -36.340  14.122  -1.349  0.00  0.00    -0.506 OA
ATOM     28  H   UNL     1     -36.094  13.424  -0.776  0.00  0.00    +0.292 HD
ENDBRANCH  24  27
BRANCH  21  29
ATOM     29  C   UNL     1     -38.788  15.378  -0.577  0.00  0.00    +0.055 C 
BRANCH  29  30
ATOM     30  C   UNL     1     -39.855  16.206  -1.251  0.00  0.00    -0.030 C 
ATOM     31  C   UNL     1     -41.185  15.994  -1.260  0.00  0.00    -0.048 C 
ATOM     32  C   UNL     1     -42.196  16.862  -1.955  0.00  0.00    +0.026 C 
ATOM     33  C   UNL     1     -41.773  14.806  -0.547  0.00  0.00    +0.026 C 
ENDBRANCH  29  30
ENDBRANCH  21  29
ENDBRANCH   3  22
TORSDOF 7
ENDMDL
MODEL 4
REMARK VINA RESULT:      -7.2      2.915      9.675
REMARK  Name = 54691345
REMARK  7 active torsions:
REMARK  status: ('A' for Active; 'I' for Inactive)
REMARK    1  A    between atoms: N_2  and  C_9
REMARK    2  A    between atoms: C_3  and  C_22
REMARK    3  A    between atoms: C_10  and  O_17
REMARK    4  A    between atoms: C_15  and  O_19
REMARK    5  A    between atoms: C_21  and  C_29
REMARK    6  A    between atoms: C_24  and  O_27
REMARK    7  A    between atoms: C_29  and  C_30
REMARK                            x       y       z     vdW  Elec       q    Type
REMARK                         _______ _______ _______ _____ _____    ______ ____
ROOT
ATOM      1  O   UNL     1     -37.031  28.445   1.495  0.00  0.00    -0.270 OA
ATOM      2  N   UNL     1     -34.907  28.147   2.393  0.00  0.00    -0.273 N 
ATOM      3  C   UNL     1     -35.939  28.889   1.840  0.00  0.00    +0.250 C 
ATOM      4  H   UNL     1     -34.074  28.611   2.632  0.00  0.00    +0.155 HD
ENDROOT
BRANCH   2   9
ATOM      5 CL   UNL     1     -34.843  21.648   1.601  0.00  0.00    -0.076 Cl
ATOM      6  O   UNL     1     -34.800  24.568   1.659  0.00  0.00    -0.419 OA
ATOM      7  O   UNL     1     -34.379  26.396   0.364  0.00  0.00    -0.243 OA
ATOM      8  C   UNL     1     -35.384  24.836   4.016  0.00  0.00    +0.071 A 
ATOM      9  C   UNL     1     -34.990  26.800   2.623  0.00  0.00    +0.162 A 
ATOM     10  C   UNL     1     -35.322  26.291   3.818  0.00  0.00    +0.156 A 
ATOM     11  C   UNL     1     -35.127  24.018   2.916  0.00  0.00    +0.165 A 
ATOM     12  C   UNL     1     -35.668  24.206   5.236  0.00  0.00    +0.009 C 
ATOM     13  C   UNL     1     -34.694  25.937   1.457  0.00  0.00    +0.362 A 
ATOM     14  C   UNL     1     -35.163  22.624   2.993  0.00  0.00    +0.126 C 
ATOM     15  C   UNL     1     -35.458  22.019   4.210  0.00  0.00    +0.147 C 
ATOM     16  C   UNL     1     -35.707  22.809   5.330  0.00  0.00    +0.038 C 
BRANCH  10  17
ATOM     17  O   UNL     1     -35.612  27.045   4.933  0.00  0.00    -0.504 OA
ATOM     18  H   UNL     1     -36.375  27.589   4.945  0.00  0.00    +0.292 HD
ENDBRANCH  10  17
BRANCH  15  19
ATOM     19  O   UNL     1     -35.508  20.664   4.340  0.00  0.00    -0.505 OA
ATOM     20  H   UNL     1     -36.202  20.266   4.827  0.00  0.00    +0.292 HD
ENDBRANCH  15  19
ENDBRANCH   2   9
BRANCH   3  22
ATOM     21  C   UNL     1     -36.421  32.552   1.059  0.00  0.00    +0.016 C 
ATOM     22  C   UNL     1     -35.673  30.342   1.688  0.00  0.00    +0.054 C 
ATOM     23  C   UNL     1     -36.671  31.188   1.201  0.00  0.00    +0.004 C 
ATOM     24  C   UNL     1     -35.174  33.072   1.402  0.00  0.00    +0.130 C 
ATOM     25  C   UNL     1     -34.426  30.862   2.031  0.00  0.00    +0.008 C 
ATOM     26  C   UNL     1     -34.176  32.227   1.889  0.00  0.00    +0.036 C 
BRANCH  24  27
ATOM     27  O   UNL     1     -34.913  34.403   1.269  0.00  0.00    -0.506 OA
ATOM     28  H   UNL     1     -35.500  34.949   0.784  0.00  0.00    +0.292 HD
ENDBRANCH  24  27
BRANCH  21  29
ATOM     29  C   UNL     1     -37.502  33.441   0.536  0.00  0.00    +0.055 C 
BRANCH  29  30
ATOM     30  C   UNL     1     -38.392  33.986   1.627  0.00  0.00    -0.030 C 
ATOM     31  C   UNL     1     -38.586  35.273   1.973  0.00  0.00    -0.048 C 
ATOM     32  C   UNL     1     -39.490  35.747   3.075  0.00  0.00    +0.026 C 
ATOM     33  C   UNL     1     -37.861  36.375   1.247  0.00  0.00    +0.026 C 
ENDBRANCH  29  30
ENDBRANCH  21  29
ENDBRANCH   3  22
TORSDOF 7
ENDMDL
MODEL 5
REMARK VINA RESULT:      -7.2      2.163      2.618
REMARK  Name = 54691345
REMARK  7 active torsions:
REMARK  status: ('A' for Active; 'I' for Inactive)
REMARK    1  A    between atoms: N_2  and  C_9
REMARK    2  A    between atoms: C_3  and  C_22
REMARK    3  A    between atoms: C_10  and  O_17
REMARK    4  A    between atoms: C_15  and  O_19
REMARK    5  A    between atoms: C_21  and  C_29
REMARK    6  A    between atoms: C_24  and  O_27
REMARK    7  A    between atoms: C_29  and  C_30
REMARK                            x       y       z     vdW  Elec       q    Type
REMARK                         _______ _______ _______ _____ _____    ______ ____
ROOT
ATOM      1  O   UNL     1     -34.639  26.612   5.560  0.00  0.00    -0.270 OA
ATOM      2  N   UNL     1     -33.859  26.612   3.369  0.00  0.00    -0.273 N 
ATOM      3  C   UNL     1     -34.414  26.034   4.500  0.00  0.00    +0.250 C 
ATOM      4  H   UNL     1     -33.725  26.048   2.574  0.00  0.00    +0.155 HD
ENDROOT
BRANCH   2   9
ATOM      5 CL   UNL     1     -33.791  33.043   2.141  0.00  0.00    -0.076 Cl
ATOM      6  O   UNL     1     -34.091  30.166   2.549  0.00  0.00    -0.419 OA
ATOM      7  O   UNL     1     -35.536  28.434   2.215  0.00  0.00    -0.243 OA
ATOM      8  C   UNL     1     -31.972  29.797   3.707  0.00  0.00    +0.071 A 
ATOM      9  C   UNL     1     -33.487  27.927   3.304  0.00  0.00    +0.162 A 
ATOM     10  C   UNL     1     -32.319  28.372   3.790  0.00  0.00    +0.156 A 
ATOM     11  C   UNL     1     -32.876  30.651   3.075  0.00  0.00    +0.165 A 
ATOM     12  C   UNL     1     -30.804  30.369   4.231  0.00  0.00    +0.009 C 
ATOM     13  C   UNL     1     -34.461  28.832   2.652  0.00  0.00    +0.362 A 
ATOM     14  C   UNL     1     -32.644  32.021   2.937  0.00  0.00    +0.126 C 
ATOM     15  C   UNL     1     -31.474  32.566   3.454  0.00  0.00    +0.147 C 
ATOM     16  C   UNL     1     -30.557  31.742   4.103  0.00  0.00    +0.038 C 
BRANCH  10  17
ATOM     17  O   UNL     1     -31.375  27.576   4.400  0.00  0.00    -0.504 OA
ATOM     18  H   UNL     1     -31.396  27.453   5.329  0.00  0.00    +0.292 HD
ENDBRANCH  10  17
BRANCH  15  19
ATOM     19  O   UNL     1     -31.197  33.896   3.347  0.00  0.00    -0.505 OA
ATOM     20  H   UNL     1     -31.087  34.285   2.502  0.00  0.00    +0.292 HD
ENDBRANCH  15  19
ENDBRANCH   2   9
BRANCH   3  22
ATOM     21  C   UNL     1     -35.336  22.694   2.995  0.00  0.00    +0.016 C 
ATOM     22  C   UNL     1     -34.776  24.598   4.374  0.00  0.00    +0.054 C 
ATOM     23  C   UNL     1     -34.997  24.042   3.113  0.00  0.00    +0.004 C 
ATOM     24  C   UNL     1     -35.454  21.903   4.137  0.00  0.00    +0.130 C 
ATOM     25  C   UNL     1     -34.893  23.806   5.515  0.00  0.00    +0.008 C 
ATOM     26  C   UNL     1     -35.232  22.458   5.397  0.00  0.00    +0.036 C 
BRANCH  24  27
ATOM     27  O   UNL     1     -35.784  20.584   4.040  0.00  0.00    -0.506 OA
ATOM     28  H   UNL     1     -36.426  20.218   4.614  0.00  0.00    +0.292 HD
ENDBRANCH  24  27
BRANCH  21  29
ATOM     29  C   UNL     1     -35.569  22.117   1.638  0.00  0.00    +0.055 C 
BRANCH  29  30
ATOM     30  C   UNL     1     -34.291  21.901   0.865  0.00  0.00    -0.030 C 
ATOM     31  C   UNL     1     -33.587  20.761   0.727  0.00  0.00    -0.048 C 
ATOM     32  C   UNL     1     -32.316  20.617  -0.061  0.00  0.00    +0.026 C 
ATOM     33  C   UNL     1     -34.049  19.495   1.399  0.00  0.00    +0.026 C 
ENDBRANCH  29  30
ENDBRANCH  21  29
ENDBRANCH   3  22
TORSDOF 7
ENDMDL
MODEL 6
REMARK VINA RESULT:      -7.2      2.717      9.567
REMARK  Name = 54691345
REMARK  7 active torsions:
REMARK  status: ('A' for Active; 'I' for Inactive)
REMARK    1  A    between atoms: N_2  and  C_9
REMARK    2  A    between atoms: C_3  and  C_22
REMARK    3  A    between atoms: C_10  and  O_17
REMARK    4  A    between atoms: C_15  and  O_19
REMARK    5  A    between atoms: C_21  and  C_29
REMARK    6  A    between atoms: C_24  and  O_27
REMARK    7  A    between atoms: C_29  and  C_30
REMARK                            x       y       z     vdW  Elec       q    Type
REMARK                         _______ _______ _______ _____ _____    ______ ____
ROOT
ATOM      1  O   UNL     1     -33.872  28.612   1.307  0.00  0.00    -0.270 OA
ATOM      2  N   UNL     1     -35.513  28.740   2.949  0.00  0.00    -0.273 N 
ATOM      3  C   UNL     1     -34.624  29.266   2.025  0.00  0.00    +0.250 C 
ATOM      4  H   UNL     1     -36.068  29.363   3.471  0.00  0.00    +0.155 HD
ENDROOT
BRANCH   2   9
ATOM      5 CL   UNL     1     -37.631  22.549   2.726  0.00  0.00    -0.076 Cl
ATOM      6  O   UNL     1     -36.903  25.376   2.623  0.00  0.00    -0.419 OA
ATOM      7  O   UNL     1     -37.415  27.337   1.579  0.00  0.00    -0.243 OA
ATOM      8  C   UNL     1     -35.078  25.283   4.244  0.00  0.00    +0.071 A 
ATOM      9  C   UNL     1     -35.656  27.398   3.174  0.00  0.00    +0.162 A 
ATOM     10  C   UNL     1     -34.893  26.727   4.049  0.00  0.00    +0.156 A 
ATOM     11  C   UNL     1     -36.093  24.653   3.523  0.00  0.00    +0.165 A 
ATOM     12  C   UNL     1     -34.299  24.483   5.092  0.00  0.00    +0.009 C 
ATOM     13  C   UNL     1     -36.720  26.732   2.390  0.00  0.00    +0.362 A 
ATOM     14  C   UNL     1     -36.358  23.287   3.636  0.00  0.00    +0.126 C 
ATOM     15  C   UNL     1     -35.580  22.514   4.491  0.00  0.00    +0.147 C 
ATOM     16  C   UNL     1     -34.550  23.111   5.215  0.00  0.00    +0.038 C 
BRANCH  10  17
ATOM     17  O   UNL     1     -33.894  27.296   4.808  0.00  0.00    -0.504 OA
ATOM     18  H   UNL     1     -34.108  27.927   5.466  0.00  0.00    +0.292 HD
ENDBRANCH  10  17
BRANCH  15  19
ATOM     19  O   UNL     1     -35.796  21.177   4.640  0.00  0.00    -0.505 OA
ATOM     20  H   UNL     1     -36.420  20.870   5.268  0.00  0.00    +0.292 HD
ENDBRANCH  15  19
ENDBRANCH   2   9
BRANCH   3  22
ATOM     21  C   UNL     1     -35.716  32.789   1.212  0.00  0.00    +0.016 C 
ATOM     22  C   UNL     1     -34.625  30.747   1.905  0.00  0.00    +0.054 C 
ATOM     23  C   UNL     1     -35.715  31.399   1.325  0.00  0.00    +0.004 C 
ATOM     24  C   UNL     1     -34.629  33.527   1.679  0.00  0.00    +0.130 C 
ATOM     25  C   UNL     1     -33.539  31.485   2.371  0.00  0.00    +0.008 C 
ATOM     26  C   UNL     1     -33.541  32.875   2.259  0.00  0.00    +0.036 C 
BRANCH  24  27
ATOM     27  O   UNL     1     -34.614  34.886   1.576  0.00  0.00    -0.506 OA
ATOM     28  H   UNL     1     -34.124  35.397   2.189  0.00  0.00    +0.292 HD
ENDBRANCH  24  27
BRANCH  21  29
ATOM     29  C   UNL     1     -36.890  33.469   0.588  0.00  0.00    +0.055 C 
BRANCH  29  30
ATOM     30  C   UNL     1     -37.897  33.950   1.605  0.00  0.00    -0.030 C 
ATOM     31  C   UNL     1     -38.304  35.214   1.835  0.00  0.00    -0.048 C 
ATOM     32  C   UNL     1     -39.314  35.624   2.868  0.00  0.00    +0.026 C 
ATOM     33  C   UNL     1     -37.732  36.356   1.037  0.00  0.00    +0.026 C 
ENDBRANCH  29  30
ENDBRANCH  21  29
ENDBRANCH   3  22
TORSDOF 7
ENDMDL
MODEL 7
REMARK VINA RESULT:      -7.2      5.732      8.709
REMARK  Name = 54691345
REMARK  7 active torsions:
REMARK  status: ('A' for Active; 'I' for Inactive)
REMARK    1  A    between atoms: N_2  and  C_9
REMARK    2  A    between atoms: C_3  and  C_22
REMARK    3  A    between atoms: C_10  and  O_17
REMARK    4  A    between atoms: C_15  and  O_19
REMARK    5  A    between atoms: C_21  and  C_29
REMARK    6  A    between atoms: C_24  and  O_27
REMARK    7  A    between atoms: C_29  and  C_30
REMARK                            x       y       z     vdW  Elec       q    Type
REMARK                         _______ _______ _______ _____ _____    ______ ____
ROOT
ATOM      1  O   UNL     1     -36.332  19.847  -0.796  0.00  0.00    -0.270 OA
ATOM      2  N   UNL     1     -36.935  19.184   1.350  0.00  0.00    -0.273 N 
ATOM      3  C   UNL     1     -36.674  18.980   0.004  0.00  0.00    +0.250 C 
ATOM      4  H   UNL     1     -37.203  18.411   1.897  0.00  0.00    +0.155 HD
ENDROOT
BRANCH   2   9
ATOM      5 CL   UNL     1     -34.704  24.362   4.678  0.00  0.00    -0.076 Cl
ATOM      6  O   UNL     1     -35.430  21.922   3.247  0.00  0.00    -0.419 OA
ATOM      7  O   UNL     1     -34.603  19.905   2.578  0.00  0.00    -0.243 OA
ATOM      8  C   UNL     1     -37.696  22.591   2.628  0.00  0.00    +0.071 A 
ATOM      9  C   UNL     1     -36.840  20.407   1.956  0.00  0.00    +0.162 A 
ATOM     10  C   UNL     1     -37.853  21.285   1.975  0.00  0.00    +0.156 A 
ATOM     11  C   UNL     1     -36.480  22.863   3.256  0.00  0.00    +0.165 A 
ATOM     12  C   UNL     1     -38.674  23.595   2.656  0.00  0.00    +0.009 C 
ATOM     13  C   UNL     1     -35.539  20.698   2.601  0.00  0.00    +0.362 A 
ATOM     14  C   UNL     1     -36.226  24.070   3.909  0.00  0.00    +0.126 C 
ATOM     15  C   UNL     1     -37.213  25.048   3.935  0.00  0.00    +0.147 C 
ATOM     16  C   UNL     1     -38.434  24.813   3.306  0.00  0.00    +0.038 C 
BRANCH  10  17
ATOM     17  O   UNL     1     -39.085  21.065   1.398  0.00  0.00    -0.504 OA
ATOM     18  H   UNL     1     -39.803  21.633   1.595  0.00  0.00    +0.292 HD
ENDBRANCH  10  17
BRANCH  15  19
ATOM     19  O   UNL     1     -37.019  26.244   4.559  0.00  0.00    -0.505 OA
ATOM     20  H   UNL     1     -36.263  26.372   5.099  0.00  0.00    +0.292 HD
ENDBRANCH  15  19
ENDBRANCH   2   9
BRANCH   3  22
ATOM     21  C   UNL     1     -38.200  15.707  -1.103  0.00  0.00    +0.016 C 
ATOM     22  C   UNL     1     -36.808  17.578  -0.469  0.00  0.00    +0.054 C 
ATOM     23  C   UNL     1     -38.075  17.023  -0.658  0.00  0.00    +0.004 C 
ATOM     24  C   UNL     1     -37.060  14.946  -1.359  0.00  0.00    +0.130 C 
ATOM     25  C   UNL     1     -35.669  16.817  -0.726  0.00  0.00    +0.008 C 
ATOM     26  C   UNL     1     -35.794  15.501  -1.171  0.00  0.00    +0.036 C 
BRANCH  24  27
ATOM     27  O   UNL     1     -37.165  13.659  -1.794  0.00  0.00    -0.506 OA
ATOM     28  H   UNL     1     -36.691  12.978  -1.361  0.00  0.00    +0.292 HD
ENDBRANCH  24  27
BRANCH  21  29
ATOM     29  C   UNL     1     -39.564  15.130  -1.298  0.00  0.00    +0.055 C 
BRANCH  29  30
ATOM     30  C   UNL     1     -40.058  14.371  -0.090  0.00  0.00    -0.030 C 
ATOM     31  C   UNL     1     -40.378  13.066  -0.005  0.00  0.00    -0.048 C 
ATOM     32  C   UNL     1     -40.866  12.372   1.235  0.00  0.00    +0.026 C 
ATOM     33  C   UNL     1     -40.273  12.175  -1.214  0.00  0.00    +0.026 C 
ENDBRANCH  29  30
ENDBRANCH  21  29
ENDBRANCH   3  22
TORSDOF 7
ENDMDL
MODEL 8
REMARK VINA RESULT:      -7.0      3.851      7.656
REMARK  Name = 54691345
REMARK  7 active torsions:
REMARK  status: ('A' for Active; 'I' for Inactive)
REMARK    1  A    between atoms: N_2  and  C_9
REMARK    2  A    between atoms: C_3  and  C_22
REMARK    3  A    between atoms: C_10  and  O_17
REMARK    4  A    between atoms: C_15  and  O_19
REMARK    5  A    between atoms: C_21  and  C_29
REMARK    6  A    between atoms: C_24  and  O_27
REMARK    7  A    between atoms: C_29  and  C_30
REMARK                            x       y       z     vdW  Elec       q    Type
REMARK                         _______ _______ _______ _____ _____    ______ ____
ROOT
ATOM      1  O   UNL     1     -34.026  25.491   2.980  0.00  0.00    -0.270 OA
ATOM      2  N   UNL     1     -35.835  26.018   4.342  0.00  0.00    -0.273 N 
ATOM      3  C   UNL     1     -34.501  26.046   3.967  0.00  0.00    +0.250 C 
ATOM      4  H   UNL     1     -36.102  26.502   5.156  0.00  0.00    +0.155 HD
ENDROOT
BRANCH   2   9
ATOM      5 CL   UNL     1     -39.836  21.350   2.090  0.00  0.00    -0.076 Cl
ATOM      6  O   UNL     1     -37.935  23.222   3.281  0.00  0.00    -0.419 OA
ATOM      7  O   UNL     1     -36.328  23.387   4.889  0.00  0.00    -0.243 OA
ATOM      8  C   UNL     1     -38.561  25.178   1.958  0.00  0.00    +0.071 A 
ATOM      9  C   UNL     1     -36.799  25.350   3.638  0.00  0.00    +0.162 A 
ATOM     10  C   UNL     1     -37.528  25.936   2.676  0.00  0.00    +0.156 A 
ATOM     11  C   UNL     1     -38.724  23.831   2.282  0.00  0.00    +0.165 A 
ATOM     12  C   UNL     1     -39.409  25.711   0.977  0.00  0.00    +0.009 C 
ATOM     13  C   UNL     1     -36.983  23.927   4.003  0.00  0.00    +0.362 A 
ATOM     14  C   UNL     1     -39.672  23.017   1.659  0.00  0.00    +0.126 C 
ATOM     15  C   UNL     1     -40.496  23.564   0.680  0.00  0.00    +0.147 C 
ATOM     16  C   UNL     1     -40.366  24.909   0.343  0.00  0.00    +0.038 C 
BRANCH  10  17
ATOM     17  O   UNL     1     -37.396  27.252   2.292  0.00  0.00    -0.504 OA
ATOM     18  H   UNL     1     -37.604  27.939   2.895  0.00  0.00    +0.292 HD
ENDBRANCH  10  17
BRANCH  15  19
ATOM     19  O   UNL     1     -41.437  22.816   0.040  0.00  0.00    -0.505 OA
ATOM     20  H   UNL     1     -41.186  22.032  -0.408  0.00  0.00    +0.292 HD
ENDBRANCH  15  19
ENDBRANCH   2   9
BRANCH   3  22
ATOM     21  C   UNL     1     -32.049  28.668   5.141  0.00  0.00    +0.016 C 
ATOM     22  C   UNL     1     -33.605  26.843   4.844  0.00  0.00    +0.054 C 
ATOM     23  C   UNL     1     -32.889  27.919   4.318  0.00  0.00    +0.004 C 
ATOM     24  C   UNL     1     -31.924  28.340   6.491  0.00  0.00    +0.130 C 
ATOM     25  C   UNL     1     -33.481  26.517   6.194  0.00  0.00    +0.008 C 
ATOM     26  C   UNL     1     -32.640  27.266   7.018  0.00  0.00    +0.036 C 
BRANCH  24  27
ATOM     27  O   UNL     1     -31.107  29.062   7.310  0.00  0.00    -0.506 OA
ATOM     28  H   UNL     1     -30.191  28.870   7.344  0.00  0.00    +0.292 HD
ENDBRANCH  24  27
BRANCH  21  29
ATOM     29  C   UNL     1     -31.290  29.815   4.560  0.00  0.00    +0.055 C 
BRANCH  29  30
ATOM     30  C   UNL     1     -32.186  30.948   4.121  0.00  0.00    -0.030 C 
ATOM     31  C   UNL     1     -32.514  31.306   2.865  0.00  0.00    -0.048 C 
ATOM     32  C   UNL     1     -33.416  32.450   2.498  0.00  0.00    +0.026 C 
ATOM     33  C   UNL     1     -31.961  30.549   1.687  0.00  0.00    +0.026 C 
ENDBRANCH  29  30
ENDBRANCH  21  29
ENDBRANCH   3  22
TORSDOF 7
ENDMDL
MODEL 9
REMARK VINA RESULT:      -7.0      4.414      7.361
REMARK  Name = 54691345
REMARK  7 active torsions:
REMARK  status: ('A' for Active; 'I' for Inactive)
REMARK    1  A    between atoms: N_2  and  C_9
REMARK    2  A    between atoms: C_3  and  C_22
REMARK    3  A    between atoms: C_10  and  O_17
REMARK    4  A    between atoms: C_15  and  O_19
REMARK    5  A    between atoms: C_21  and  C_29
REMARK    6  A    between atoms: C_24  and  O_27
REMARK    7  A    between atoms: C_29  and  C_30
REMARK                            x       y       z     vdW  Elec       q    Type
REMARK                         _______ _______ _______ _____ _____    ______ ____
ROOT
ATOM      1  O   UNL     1     -35.347  20.279  -0.137  0.00  0.00    -0.270 OA
ATOM      2  N   UNL     1     -36.731  19.733   1.649  0.00  0.00    -0.273 N 
ATOM      3  C   UNL     1     -36.013  19.464   0.495  0.00  0.00    +0.250 C 
ATOM      4  H   UNL     1     -37.230  18.997   2.072  0.00  0.00    +0.155 HD
ENDROOT
BRANCH   2   9
ATOM      5 CL   UNL     1     -38.386  25.899   3.104  0.00  0.00    -0.076 Cl
ATOM      6  O   UNL     1     -37.861  23.158   2.239  0.00  0.00    -0.419 OA
ATOM      7  O   UNL     1     -38.575  21.554   0.785  0.00  0.00    -0.243 OA
ATOM      8  C   UNL     1     -36.064  22.675   3.821  0.00  0.00    +0.071 A 
ATOM      9  C   UNL     1     -36.783  20.971   2.230  0.00  0.00    +0.162 A 
ATOM     10  C   UNL     1     -35.959  21.338   3.222  0.00  0.00    +0.156 A 
ATOM     11  C   UNL     1     -37.015  23.551   3.297  0.00  0.00    +0.165 A 
ATOM     12  C   UNL     1     -35.288  23.135   4.895  0.00  0.00    +0.009 C 
ATOM     13  C   UNL     1     -37.810  21.887   1.684  0.00  0.00    +0.362 A 
ATOM     14  C   UNL     1     -37.196  24.845   3.788  0.00  0.00    +0.126 C 
ATOM     15  C   UNL     1     -36.408  25.285   4.846  0.00  0.00    +0.147 C 
ATOM     16  C   UNL     1     -35.458  24.430   5.400  0.00  0.00    +0.038 C 
BRANCH  10  17
ATOM     17  O   UNL     1     -34.984  20.530   3.764  0.00  0.00    -0.504 OA
ATOM     18  H   UNL     1     -34.875  20.485   4.693  0.00  0.00    +0.292 HD
ENDBRANCH  10  17
BRANCH  15  19
ATOM     19  O   UNL     1     -36.542  26.538   5.364  0.00  0.00    -0.505 OA
ATOM     20  H   UNL     1     -37.302  26.758   5.865  0.00  0.00    +0.292 HD
ENDBRANCH  15  19
ENDBRANCH   2   9
BRANCH   3  22
ATOM     21  C   UNL     1     -34.912  16.032  -0.634  0.00  0.00    +0.016 C 
ATOM     22  C   UNL     1     -36.057  18.054   0.026  0.00  0.00    +0.054 C 
ATOM     23  C   UNL     1     -34.870  17.355  -0.195  0.00  0.00    +0.004 C 
ATOM     24  C   UNL     1     -36.140  15.408  -0.853  0.00  0.00    +0.130 C 
ATOM     25  C   UNL     1     -37.285  17.431  -0.192  0.00  0.00    +0.008 C 
ATOM     26  C   UNL     1     -37.327  16.108  -0.631  0.00  0.00    +0.036 C 
BRANCH  24  27
ATOM     27  O   UNL     1     -36.199  14.117  -1.282  0.00  0.00    -0.506 OA
ATOM     28  H   UNL     1     -37.020  13.668  -1.307  0.00  0.00    +0.292 HD
ENDBRANCH  24  27
BRANCH  21  29
ATOM     29  C   UNL     1     -33.631  15.299  -0.866  0.00  0.00    +0.055 C 
BRANCH  29  30
ATOM     30  C   UNL     1     -32.477  15.873  -0.080  0.00  0.00    -0.030 C 
ATOM     31  C   UNL     1     -31.406  16.542  -0.549  0.00  0.00    -0.048 C 
ATOM     32  C   UNL     1     -30.289  17.088   0.294  0.00  0.00    +0.026 C 
ATOM     33  C   UNL     1     -31.247  16.787  -2.026  0.00  0.00    +0.026 C 
ENDBRANCH  29  30
ENDBRANCH  21  29
ENDBRANCH   3  22
TORSDOF 7
ENDMDL
