MODEL 1
REMARK VINA RESULT:      -6.2      0.000      0.000
REMARK  Name = 54603556
REMARK  6 active torsions:
REMARK  status: ('A' for Active; 'I' for Inactive)
REMARK    1  A    between atoms: C_3  and  C_12
REMARK    2  A    between atoms: C_4  and  O_22
REMARK    3  A    between atoms: C_10  and  O_24
REMARK    4  A    between atoms: C_11  and  O_26
REMARK    5  A    between atoms: C_15  and  O_18
REMARK    6  A    between atoms: C_17  and  O_20
REMARK                            x       y       z     vdW  Elec       q    Type
REMARK                         _______ _______ _______ _____ _____    ______ ____
ROOT
ATOM      1  O   UNL     1     -34.999  23.616   3.548  0.00  0.00    -0.472 OA
ATOM      2  O   UNL     1     -38.977  24.445   2.958  0.00  0.00    -0.289 OA
ATOM      3  C   UNL     1     -35.479  24.969   3.532  0.00  0.00    +0.222 C 
ATOM      4  C   UNL     1     -36.915  25.052   4.057  0.00  0.00    +0.217 C 
ATOM      5  C   UNL     1     -37.805  24.180   3.199  0.00  0.00    +0.207 C 
ATOM      6  C   UNL     1     -37.180  22.946   2.685  0.00  0.00    +0.074 C 
ATOM      7  C   UNL     1     -35.817  22.728   2.903  0.00  0.00    +0.145 C 
ATOM      8  C   UNL     1     -37.949  21.991   2.012  0.00  0.00    +0.046 C 
ATOM      9  C   UNL     1     -35.229  21.536   2.476  0.00  0.00    +0.077 C 
ATOM     10  C   UNL     1     -37.351  20.810   1.572  0.00  0.00    +0.168 C 
ATOM     11  C   UNL     1     -35.996  20.580   1.808  0.00  0.00    +0.171 C 
ENDROOT
BRANCH   3  12
ATOM     12  C   UNL     1     -34.527  25.799   4.374  0.00  0.00    +0.023 C 
ATOM     13  C   UNL     1     -33.723  26.765   3.771  0.00  0.00    +0.039 C 
ATOM     14  C   UNL     1     -34.458  25.596   5.753  0.00  0.00    +0.003 C 
ATOM     15  C   UNL     1     -32.851  27.529   4.545  0.00  0.00    +0.167 C 
ATOM     16  C   UNL     1     -33.586  26.359   6.527  0.00  0.00    +0.040 C 
ATOM     17  C   UNL     1     -32.781  27.326   5.923  0.00  0.00    +0.167 C 
BRANCH  15  18
ATOM     18  O   UNL     1     -32.072  28.472   3.944  0.00  0.00    -0.503 OA
ATOM     19  H   UNL     1     -32.340  28.852   3.130  0.00  0.00    +0.292 HD
ENDBRANCH  15  18
BRANCH  17  20
ATOM     20  O   UNL     1     -31.933  28.066   6.690  0.00  0.00    -0.503 OA
ATOM     21  H   UNL     1     -31.007  27.949   6.609  0.00  0.00    +0.292 HD
ENDBRANCH  17  20
ENDBRANCH   3  12
BRANCH   4  22
ATOM     22  O   UNL     1     -37.409  26.380   3.998  0.00  0.00    -0.374 OA
ATOM     23  H   UNL     1     -38.346  26.365   3.744  0.00  0.00    +0.211 HD
ENDBRANCH   4  22
BRANCH  10  24
ATOM     24  O   UNL     1     -38.105  19.881   0.920  0.00  0.00    -0.503 OA
ATOM     25  H   UNL     1     -37.818  18.990   0.877  0.00  0.00    +0.292 HD
ENDBRANCH  10  24
BRANCH  11  26
ATOM     26  O   UNL     1     -35.406  19.425   1.389  0.00  0.00    -0.503 OA
ATOM     27  H   UNL     1     -35.234  19.290   0.478  0.00  0.00    +0.292 HD
ENDBRANCH  11  26
TORSDOF 6
ENDMDL
MODEL 2
REMARK VINA RESULT:      -6.2      1.774      7.395
REMARK  Name = 54603556
REMARK  6 active torsions:
REMARK  status: ('A' for Active; 'I' for Inactive)
REMARK    1  A    between atoms: C_3  and  C_12
REMARK    2  A    between atoms: C_4  and  O_22
REMARK    3  A    between atoms: C_10  and  O_24
REMARK    4  A    between atoms: C_11  and  O_26
REMARK    5  A    between atoms: C_15  and  O_18
REMARK    6  A    between atoms: C_17  and  O_20
REMARK                            x       y       z     vdW  Elec       q    Type
REMARK                         _______ _______ _______ _____ _____    ______ ____
ROOT
ATOM      1  O   UNL     1     -36.306  23.968   2.612  0.00  0.00    -0.472 OA
ATOM      2  O   UNL     1     -34.487  22.364   5.925  0.00  0.00    -0.289 OA
ATOM      3  C   UNL     1     -35.998  22.567   2.683  0.00  0.00    +0.222 C 
ATOM      4  C   UNL     1     -36.066  22.058   4.126  0.00  0.00    +0.217 C 
ATOM      5  C   UNL     1     -35.089  22.844   4.972  0.00  0.00    +0.207 C 
ATOM      6  C   UNL     1     -34.922  24.262   4.600  0.00  0.00    +0.074 C 
ATOM      7  C   UNL     1     -35.553  24.745   3.450  0.00  0.00    +0.145 C 
ATOM      8  C   UNL     1     -34.165  25.121   5.403  0.00  0.00    +0.046 C 
ATOM      9  C   UNL     1     -35.455  26.099   3.123  0.00  0.00    +0.077 C 
ATOM     10  C   UNL     1     -34.056  26.468   5.060  0.00  0.00    +0.168 C 
ATOM     11  C   UNL     1     -34.703  26.958   3.926  0.00  0.00    +0.171 C 
ENDROOT
BRANCH   3  12
ATOM     12  C   UNL     1     -36.984  21.839   1.788  0.00  0.00    +0.023 C 
ATOM     13  C   UNL     1     -38.330  21.770   2.143  0.00  0.00    +0.039 C 
ATOM     14  C   UNL     1     -36.543  21.241   0.607  0.00  0.00    +0.003 C 
ATOM     15  C   UNL     1     -39.236  21.104   1.319  0.00  0.00    +0.167 C 
ATOM     16  C   UNL     1     -37.448  20.575  -0.218  0.00  0.00    +0.040 C 
ATOM     17  C   UNL     1     -38.796  20.506   0.138  0.00  0.00    +0.167 C 
BRANCH  15  18
ATOM     18  O   UNL     1     -40.550  21.045   1.676  0.00  0.00    -0.503 OA
ATOM     19  H   UNL     1     -40.967  20.214   1.793  0.00  0.00    +0.292 HD
ENDBRANCH  15  18
BRANCH  17  20
ATOM     20  O   UNL     1     -39.670  19.852  -0.676  0.00  0.00    -0.503 OA
ATOM     21  H   UNL     1     -40.579  19.811  -0.449  0.00  0.00    +0.292 HD
ENDBRANCH  17  20
ENDBRANCH   3  12
BRANCH   4  22
ATOM     22  O   UNL     1     -35.716  20.687   4.206  0.00  0.00    -0.374 OA
ATOM     23  H   UNL     1     -36.470  20.144   3.924  0.00  0.00    +0.211 HD
ENDBRANCH   4  22
BRANCH  10  24
ATOM     24  O   UNL     1     -33.320  27.301   5.848  0.00  0.00    -0.503 OA
ATOM     25  H   UNL     1     -32.385  27.307   5.779  0.00  0.00    +0.292 HD
ENDBRANCH  10  24
BRANCH  11  26
ATOM     26  O   UNL     1     -34.608  28.275   3.589  0.00  0.00    -0.503 OA
ATOM     27  H   UNL     1     -35.372  28.818   3.600  0.00  0.00    +0.292 HD
ENDBRANCH  11  26
TORSDOF 6
ENDMDL
MODEL 3
REMARK VINA RESULT:      -6.2      2.397      7.482
REMARK  Name = 54603556
REMARK  6 active torsions:
REMARK  status: ('A' for Active; 'I' for Inactive)
REMARK    1  A    between atoms: C_3  and  C_12
REMARK    2  A    between atoms: C_4  and  O_22
REMARK    3  A    between atoms: C_10  and  O_24
REMARK    4  A    between atoms: C_11  and  O_26
REMARK    5  A    between atoms: C_15  and  O_18
REMARK    6  A    between atoms: C_17  and  O_20
REMARK                            x       y       z     vdW  Elec       q    Type
REMARK                         _______ _______ _______ _____ _____    ______ ____
ROOT
ATOM      1  O   UNL     1     -33.391  26.281   4.961  0.00  0.00    -0.472 OA
ATOM      2  O   UNL     1     -33.944  28.991   1.926  0.00  0.00    -0.289 OA
ATOM      3  C   UNL     1     -34.493  26.156   4.048  0.00  0.00    +0.222 C 
ATOM      4  C   UNL     1     -34.128  26.700   2.664  0.00  0.00    +0.217 C 
ATOM      5  C   UNL     1     -33.729  28.153   2.795  0.00  0.00    +0.207 C 
ATOM      6  C   UNL     1     -33.019  28.509   4.039  0.00  0.00    +0.074 C 
ATOM      7  C   UNL     1     -32.878  27.548   5.043  0.00  0.00    +0.145 C 
ATOM      8  C   UNL     1     -32.468  29.784   4.199  0.00  0.00    +0.046 C 
ATOM      9  C   UNL     1     -32.154  27.852   6.197  0.00  0.00    +0.077 C 
ATOM     10  C   UNL     1     -31.761  30.088   5.363  0.00  0.00    +0.168 C 
ATOM     11  C   UNL     1     -31.600  29.123   6.357  0.00  0.00    +0.171 C 
ENDROOT
BRANCH   3  12
ATOM     12  C   UNL     1     -34.871  24.688   3.990  0.00  0.00    +0.023 C 
ATOM     13  C   UNL     1     -35.301  24.032   5.143  0.00  0.00    +0.039 C 
ATOM     14  C   UNL     1     -34.790  23.994   2.782  0.00  0.00    +0.003 C 
ATOM     15  C   UNL     1     -35.650  22.683   5.089  0.00  0.00    +0.167 C 
ATOM     16  C   UNL     1     -35.139  22.646   2.728  0.00  0.00    +0.040 C 
ATOM     17  C   UNL     1     -35.569  21.990   3.882  0.00  0.00    +0.167 C 
BRANCH  15  18
ATOM     18  O   UNL     1     -36.071  22.054   6.222  0.00  0.00    -0.503 OA
ATOM     19  H   UNL     1     -35.979  21.125   6.303  0.00  0.00    +0.292 HD
ENDBRANCH  15  18
BRANCH  17  20
ATOM     20  O   UNL     1     -35.908  20.672   3.816  0.00  0.00    -0.503 OA
ATOM     21  H   UNL     1     -35.408  20.087   3.282  0.00  0.00    +0.292 HD
ENDBRANCH  17  20
ENDBRANCH   3  12
BRANCH   4  22
ATOM     22  O   UNL     1     -35.228  26.623   1.773  0.00  0.00    -0.374 OA
ATOM     23  H   UNL     1     -36.035  26.909   2.230  0.00  0.00    +0.211 HD
ENDBRANCH   4  22
BRANCH  10  24
ATOM     24  O   UNL     1     -31.224  31.331   5.513  0.00  0.00    -0.503 OA
ATOM     25  H   UNL     1     -31.574  31.919   6.154  0.00  0.00    +0.292 HD
ENDBRANCH  10  24
BRANCH  11  26
ATOM     26  O   UNL     1     -30.903  29.410   7.493  0.00  0.00    -0.503 OA
ATOM     27  H   UNL     1     -30.203  30.031   7.469  0.00  0.00    +0.292 HD
ENDBRANCH  11  26
TORSDOF 6
ENDMDL
MODEL 4
REMARK VINA RESULT:      -6.2      1.193      1.307
REMARK  Name = 54603556
REMARK  6 active torsions:
REMARK  status: ('A' for Active; 'I' for Inactive)
REMARK    1  A    between atoms: C_3  and  C_12
REMARK    2  A    between atoms: C_4  and  O_22
REMARK    3  A    between atoms: C_10  and  O_24
REMARK    4  A    between atoms: C_11  and  O_26
REMARK    5  A    between atoms: C_15  and  O_18
REMARK    6  A    between atoms: C_17  and  O_20
REMARK                            x       y       z     vdW  Elec       q    Type
REMARK                         _______ _______ _______ _____ _____    ______ ____
ROOT
ATOM      1  O   UNL     1     -34.787  24.367   4.129  0.00  0.00    -0.472 OA
ATOM      2  O   UNL     1     -37.891  25.995   1.991  0.00  0.00    -0.289 OA
ATOM      3  C   UNL     1     -34.725  25.717   3.644  0.00  0.00    +0.222 C 
ATOM      4  C   UNL     1     -36.118  26.350   3.589  0.00  0.00    +0.217 C 
ATOM      5  C   UNL     1     -37.002  25.518   2.686  0.00  0.00    +0.207 C 
ATOM      6  C   UNL     1     -36.752  24.064   2.715  0.00  0.00    +0.074 C 
ATOM      7  C   UNL     1     -35.669  23.572   3.447  0.00  0.00    +0.145 C 
ATOM      8  C   UNL     1     -37.606  23.186   2.041  0.00  0.00    +0.046 C 
ATOM      9  C   UNL     1     -35.460  22.194   3.534  0.00  0.00    +0.077 C 
ATOM     10  C   UNL     1     -37.381  21.811   2.116  0.00  0.00    +0.168 C 
ATOM     11  C   UNL     1     -36.314  21.316   2.865  0.00  0.00    +0.171 C 
ENDROOT
BRANCH   3  12
ATOM     12  C   UNL     1     -33.797  26.488   4.565  0.00  0.00    +0.023 C 
ATOM     13  C   UNL     1     -32.913  27.428   4.037  0.00  0.00    +0.039 C 
ATOM     14  C   UNL     1     -33.830  26.258   5.940  0.00  0.00    +0.003 C 
ATOM     15  C   UNL     1     -32.062  28.138   4.883  0.00  0.00    +0.167 C 
ATOM     16  C   UNL     1     -32.980  26.967   6.787  0.00  0.00    +0.040 C 
ATOM     17  C   UNL     1     -32.095  27.908   6.258  0.00  0.00    +0.167 C 
BRANCH  15  18
ATOM     18  O   UNL     1     -31.205  29.057   4.356  0.00  0.00    -0.503 OA
ATOM     19  H   UNL     1     -30.538  29.438   4.893  0.00  0.00    +0.292 HD
ENDBRANCH  15  18
BRANCH  17  20
ATOM     20  O   UNL     1     -31.269  28.595   7.096  0.00  0.00    -0.503 OA
ATOM     21  H   UNL     1     -30.342  28.472   7.042  0.00  0.00    +0.292 HD
ENDBRANCH  17  20
ENDBRANCH   3  12
BRANCH   4  22
ATOM     22  O   UNL     1     -36.067  27.666   3.067  0.00  0.00    -0.374 OA
ATOM     23  H   UNL     1     -35.164  28.014   3.152  0.00  0.00    +0.211 HD
ENDBRANCH   4  22
BRANCH  10  24
ATOM     24  O   UNL     1     -38.218  20.960   1.460  0.00  0.00    -0.503 OA
ATOM     25  H   UNL     1     -38.563  21.195   0.621  0.00  0.00    +0.292 HD
ENDBRANCH  10  24
BRANCH  11  26
ATOM     26  O   UNL     1     -36.092  19.974   2.951  0.00  0.00    -0.503 OA
ATOM     27  H   UNL     1     -35.545  19.632   3.630  0.00  0.00    +0.292 HD
ENDBRANCH  11  26
TORSDOF 6
ENDMDL
MODEL 5
REMARK VINA RESULT:      -6.0      2.977      6.611
REMARK  Name = 54603556
REMARK  6 active torsions:
REMARK  status: ('A' for Active; 'I' for Inactive)
REMARK    1  A    between atoms: C_3  and  C_12
REMARK    2  A    between atoms: C_4  and  O_22
REMARK    3  A    between atoms: C_10  and  O_24
REMARK    4  A    between atoms: C_11  and  O_26
REMARK    5  A    between atoms: C_15  and  O_18
REMARK    6  A    between atoms: C_17  and  O_20
REMARK                            x       y       z     vdW  Elec       q    Type
REMARK                         _______ _______ _______ _____ _____    ______ ____
ROOT
ATOM      1  O   UNL     1     -35.231  22.332   2.081  0.00  0.00    -0.472 OA
ATOM      2  O   UNL     1     -38.926  20.956   0.936  0.00  0.00    -0.289 OA
ATOM      3  C   UNL     1     -35.425  20.961   1.698  0.00  0.00    +0.222 C 
ATOM      4  C   UNL     1     -36.533  20.832   0.649  0.00  0.00    +0.217 C 
ATOM      5  C   UNL     1     -37.817  21.395   1.216  0.00  0.00    +0.207 C 
ATOM      6  C   UNL     1     -37.660  22.553   2.118  0.00  0.00    +0.074 C 
ATOM      7  C   UNL     1     -36.376  22.963   2.485  0.00  0.00    +0.145 C 
ATOM      8  C   UNL     1     -38.782  23.250   2.577  0.00  0.00    +0.046 C 
ATOM      9  C   UNL     1     -36.213  24.095   3.286  0.00  0.00    +0.077 C 
ATOM     10  C   UNL     1     -38.613  24.369   3.392  0.00  0.00    +0.168 C 
ATOM     11  C   UNL     1     -37.332  24.794   3.742  0.00  0.00    +0.171 C 
ENDROOT
BRANCH   3  12
ATOM     12  C   UNL     1     -34.098  20.443   1.176  0.00  0.00    +0.023 C 
ATOM     13  C   UNL     1     -33.621  19.201   1.593  0.00  0.00    +0.039 C 
ATOM     14  C   UNL     1     -33.355  21.209   0.276  0.00  0.00    +0.003 C 
ATOM     15  C   UNL     1     -32.403  18.723   1.112  0.00  0.00    +0.167 C 
ATOM     16  C   UNL     1     -32.137  20.732  -0.205  0.00  0.00    +0.040 C 
ATOM     17  C   UNL     1     -31.660  19.489   0.213  0.00  0.00    +0.167 C 
BRANCH  15  18
ATOM     18  O   UNL     1     -31.948  17.507   1.525  0.00  0.00    -0.503 OA
ATOM     19  H   UNL     1     -31.123  17.440   1.963  0.00  0.00    +0.292 HD
ENDBRANCH  15  18
BRANCH  17  20
ATOM     20  O   UNL     1     -30.468  19.034  -0.265  0.00  0.00    -0.503 OA
ATOM     21  H   UNL     1     -29.919  19.602  -0.769  0.00  0.00    +0.292 HD
ENDBRANCH  17  20
ENDBRANCH   3  12
BRANCH   4  22
ATOM     22  O   UNL     1     -36.760  19.476   0.303  0.00  0.00    -0.374 OA
ATOM     23  H   UNL     1     -36.225  19.246  -0.473  0.00  0.00    +0.211 HD
ENDBRANCH   4  22
BRANCH  10  24
ATOM     24  O   UNL     1     -39.710  25.046   3.834  0.00  0.00    -0.503 OA
ATOM     25  H   UNL     1     -39.796  25.257   4.743  0.00  0.00    +0.292 HD
ENDBRANCH  10  24
BRANCH  11  26
ATOM     26  O   UNL     1     -37.158  25.891   4.531  0.00  0.00    -0.503 OA
ATOM     27  H   UNL     1     -36.302  26.118   4.837  0.00  0.00    +0.292 HD
ENDBRANCH  11  26
TORSDOF 6
ENDMDL
MODEL 6
REMARK VINA RESULT:      -6.0      3.064      6.267
REMARK  Name = 54603556
REMARK  6 active torsions:
REMARK  status: ('A' for Active; 'I' for Inactive)
REMARK    1  A    between atoms: C_3  and  C_12
REMARK    2  A    between atoms: C_4  and  O_22
REMARK    3  A    between atoms: C_10  and  O_24
REMARK    4  A    between atoms: C_11  and  O_26
REMARK    5  A    between atoms: C_15  and  O_18
REMARK    6  A    between atoms: C_17  and  O_20
REMARK                            x       y       z     vdW  Elec       q    Type
REMARK                         _______ _______ _______ _____ _____    ______ ____
ROOT
ATOM      1  O   UNL     1     -36.280  25.732   2.707  0.00  0.00    -0.472 OA
ATOM      2  O   UNL     1     -33.650  28.722   3.708  0.00  0.00    -0.289 OA
ATOM      3  C   UNL     1     -35.006  25.432   3.299  0.00  0.00    +0.222 C 
ATOM      4  C   UNL     1     -34.557  26.550   4.243  0.00  0.00    +0.217 C 
ATOM      5  C   UNL     1     -34.471  27.845   3.466  0.00  0.00    +0.207 C 
ATOM      6  C   UNL     1     -35.476  28.015   2.399  0.00  0.00    +0.074 C 
ATOM      7  C   UNL     1     -36.332  26.954   2.092  0.00  0.00    +0.145 C 
ATOM      8  C   UNL     1     -35.589  29.233   1.721  0.00  0.00    +0.046 C 
ATOM      9  C   UNL     1     -37.327  27.124   1.128  0.00  0.00    +0.077 C 
ATOM     10  C   UNL     1     -36.574  29.390   0.745  0.00  0.00    +0.168 C 
ATOM     11  C   UNL     1     -37.445  28.340   0.453  0.00  0.00    +0.171 C 
ENDROOT
BRANCH   3  12
ATOM     12  C   UNL     1     -35.146  24.108   4.028  0.00  0.00    +0.023 C 
ATOM     13  C   UNL     1     -35.351  22.932   3.306  0.00  0.00    +0.039 C 
ATOM     14  C   UNL     1     -35.067  24.067   5.420  0.00  0.00    +0.003 C 
ATOM     15  C   UNL     1     -35.477  21.716   3.976  0.00  0.00    +0.167 C 
ATOM     16  C   UNL     1     -35.192  22.850   6.090  0.00  0.00    +0.040 C 
ATOM     17  C   UNL     1     -35.398  21.674   5.368  0.00  0.00    +0.167 C 
BRANCH  15  18
ATOM     18  O   UNL     1     -35.675  20.573   3.259  0.00  0.00    -0.503 OA
ATOM     19  H   UNL     1     -35.107  19.839   3.384  0.00  0.00    +0.292 HD
ENDBRANCH  15  18
BRANCH  17  20
ATOM     20  O   UNL     1     -35.519  20.492   6.033  0.00  0.00    -0.503 OA
ATOM     21  H   UNL     1     -35.133  20.391   6.881  0.00  0.00    +0.292 HD
ENDBRANCH  17  20
ENDBRANCH   3  12
BRANCH   4  22
ATOM     22  O   UNL     1     -33.279  26.279   4.792  0.00  0.00    -0.374 OA
ATOM     23  H   UNL     1     -32.798  25.671   4.208  0.00  0.00    +0.211 HD
ENDBRANCH   4  22
BRANCH  10  24
ATOM     24  O   UNL     1     -36.683  30.579   0.090  0.00  0.00    -0.503 OA
ATOM     25  H   UNL     1     -37.304  30.677  -0.605  0.00  0.00    +0.292 HD
ENDBRANCH  10  24
BRANCH  11  26
ATOM     26  O   UNL     1     -38.416  28.488  -0.492  0.00  0.00    -0.503 OA
ATOM     27  H   UNL     1     -38.269  29.046  -1.231  0.00  0.00    +0.292 HD
ENDBRANCH  11  26
TORSDOF 6
ENDMDL
MODEL 7
REMARK VINA RESULT:      -5.9      3.043      5.554
REMARK  Name = 54603556
REMARK  6 active torsions:
REMARK  status: ('A' for Active; 'I' for Inactive)
REMARK    1  A    between atoms: C_3  and  C_12
REMARK    2  A    between atoms: C_4  and  O_22
REMARK    3  A    between atoms: C_10  and  O_24
REMARK    4  A    between atoms: C_11  and  O_26
REMARK    5  A    between atoms: C_15  and  O_18
REMARK    6  A    between atoms: C_17  and  O_20
REMARK                            x       y       z     vdW  Elec       q    Type
REMARK                         _______ _______ _______ _____ _____    ______ ____
ROOT
ATOM      1  O   UNL     1     -34.091  19.936   1.987  0.00  0.00    -0.472 OA
ATOM      2  O   UNL     1     -36.968  18.799  -0.713  0.00  0.00    -0.289 OA
ATOM      3  C   UNL     1     -35.081  20.867   1.524  0.00  0.00    +0.222 C 
ATOM      4  C   UNL     1     -36.398  20.157   1.199  0.00  0.00    +0.217 C 
ATOM      5  C   UNL     1     -36.145  19.106   0.141  0.00  0.00    +0.207 C 
ATOM      6  C   UNL     1     -34.836  18.429   0.218  0.00  0.00    +0.074 C 
ATOM      7  C   UNL     1     -33.891  18.873   1.146  0.00  0.00    +0.145 C 
ATOM      8  C   UNL     1     -34.554  17.338  -0.610  0.00  0.00    +0.046 C 
ATOM      9  C   UNL     1     -32.674  18.201   1.271  0.00  0.00    +0.077 C 
ATOM     10  C   UNL     1     -33.329  16.682  -0.492  0.00  0.00    +0.168 C 
ATOM     11  C   UNL     1     -32.393  17.109   0.449  0.00  0.00    +0.171 C 
ENDROOT
BRANCH   3  12
ATOM     12  C   UNL     1     -35.262  21.913   2.607  0.00  0.00    +0.023 C 
ATOM     13  C   UNL     1     -35.588  21.524   3.906  0.00  0.00    +0.039 C 
ATOM     14  C   UNL     1     -35.100  23.265   2.305  0.00  0.00    +0.003 C 
ATOM     15  C   UNL     1     -35.752  22.485   4.902  0.00  0.00    +0.167 C 
ATOM     16  C   UNL     1     -35.263  24.227   3.301  0.00  0.00    +0.040 C 
ATOM     17  C   UNL     1     -35.590  23.837   4.600  0.00  0.00    +0.167 C 
BRANCH  15  18
ATOM     18  O   UNL     1     -36.068  22.093   6.168  0.00  0.00    -0.503 OA
ATOM     19  H   UNL     1     -36.966  22.022   6.426  0.00  0.00    +0.292 HD
ENDBRANCH  15  18
BRANCH  17  20
ATOM     20  O   UNL     1     -35.747  24.787   5.564  0.00  0.00    -0.503 OA
ATOM     21  H   UNL     1     -35.282  24.712   6.374  0.00  0.00    +0.292 HD
ENDBRANCH  17  20
ENDBRANCH   3  12
BRANCH   4  22
ATOM     22  O   UNL     1     -37.364  21.066   0.697  0.00  0.00    -0.374 OA
ATOM     23  H   UNL     1     -37.367  21.869   1.243  0.00  0.00    +0.211 HD
ENDBRANCH   4  22
BRANCH  10  24
ATOM     24  O   UNL     1     -33.061  15.617  -1.299  0.00  0.00    -0.503 OA
ATOM     25  H   UNL     1     -32.681  15.753  -2.145  0.00  0.00    +0.292 HD
ENDBRANCH  10  24
BRANCH  11  26
ATOM     26  O   UNL     1     -31.196  16.468   0.576  0.00  0.00    -0.503 OA
ATOM     27  H   UNL     1     -30.522  16.605  -0.060  0.00  0.00    +0.292 HD
ENDBRANCH  11  26
TORSDOF 6
ENDMDL
MODEL 8
REMARK VINA RESULT:      -5.9      2.205      3.547
REMARK  Name = 54603556
REMARK  6 active torsions:
REMARK  status: ('A' for Active; 'I' for Inactive)
REMARK    1  A    between atoms: C_3  and  C_12
REMARK    2  A    between atoms: C_4  and  O_22
REMARK    3  A    between atoms: C_10  and  O_24
REMARK    4  A    between atoms: C_11  and  O_26
REMARK    5  A    between atoms: C_15  and  O_18
REMARK    6  A    between atoms: C_17  and  O_20
REMARK                            x       y       z     vdW  Elec       q    Type
REMARK                         _______ _______ _______ _____ _____    ______ ____
ROOT
ATOM      1  O   UNL     1     -33.512  25.795   4.819  0.00  0.00    -0.472 OA
ATOM      2  O   UNL     1     -36.320  27.026   2.087  0.00  0.00    -0.289 OA
ATOM      3  C   UNL     1     -33.227  26.850   3.887  0.00  0.00    +0.222 C 
ATOM      4  C   UNL     1     -34.492  27.639   3.540  0.00  0.00    +0.217 C 
ATOM      5  C   UNL     1     -35.516  26.694   2.951  0.00  0.00    +0.207 C 
ATOM      6  C   UNL     1     -35.518  25.328   3.510  0.00  0.00    +0.074 C 
ATOM      7  C   UNL     1     -34.525  24.963   4.423  0.00  0.00    +0.145 C 
ATOM      8  C   UNL     1     -36.518  24.419   3.152  0.00  0.00    +0.046 C 
ATOM      9  C   UNL     1     -34.554  23.695   5.006  0.00  0.00    +0.077 C 
ATOM     10  C   UNL     1     -36.529  23.147   3.725  0.00  0.00    +0.168 C 
ATOM     11  C   UNL     1     -35.553  22.787   4.653  0.00  0.00    +0.171 C 
ENDROOT
BRANCH   3  12
ATOM     12  C   UNL     1     -32.170  27.738   4.517  0.00  0.00    +0.023 C 
ATOM     13  C   UNL     1     -32.288  28.125   5.851  0.00  0.00    +0.039 C 
ATOM     14  C   UNL     1     -31.077  28.165   3.762  0.00  0.00    +0.003 C 
ATOM     15  C   UNL     1     -31.316  28.939   6.431  0.00  0.00    +0.167 C 
ATOM     16  C   UNL     1     -30.104  28.978   4.341  0.00  0.00    +0.040 C 
ATOM     17  C   UNL     1     -30.224  29.366   5.676  0.00  0.00    +0.167 C 
BRANCH  15  18
ATOM     18  O   UNL     1     -31.441  29.309   7.737  0.00  0.00    -0.503 OA
ATOM     19  H   UNL     1     -31.673  30.190   7.953  0.00  0.00    +0.292 HD
ENDBRANCH  15  18
BRANCH  17  20
ATOM     20  O   UNL     1     -29.267  30.161   6.230  0.00  0.00    -0.503 OA
ATOM     21  H   UNL     1     -28.912  30.876   5.740  0.00  0.00    +0.292 HD
ENDBRANCH  17  20
ENDBRANCH   3  12
BRANCH   4  22
ATOM     22  O   UNL     1     -34.223  28.651   2.585  0.00  0.00    -0.374 OA
ATOM     23  H   UNL     1     -34.022  29.483   3.043  0.00  0.00    +0.211 HD
ENDBRANCH   4  22
BRANCH  10  24
ATOM     24  O   UNL     1     -37.508  22.265   3.375  0.00  0.00    -0.503 OA
ATOM     25  H   UNL     1     -38.397  22.429   3.624  0.00  0.00    +0.292 HD
ENDBRANCH  10  24
BRANCH  11  26
ATOM     26  O   UNL     1     -35.562  21.549   5.224  0.00  0.00    -0.503 OA
ATOM     27  H   UNL     1     -35.260  21.436   6.103  0.00  0.00    +0.292 HD
ENDBRANCH  11  26
TORSDOF 6
ENDMDL
MODEL 9
REMARK VINA RESULT:      -5.9      3.237      5.826
REMARK  Name = 54603556
REMARK  6 active torsions:
REMARK  status: ('A' for Active; 'I' for Inactive)
REMARK    1  A    between atoms: C_3  and  C_12
REMARK    2  A    between atoms: C_4  and  O_22
REMARK    3  A    between atoms: C_10  and  O_24
REMARK    4  A    between atoms: C_11  and  O_26
REMARK    5  A    between atoms: C_15  and  O_18
REMARK    6  A    between atoms: C_17  and  O_20
REMARK                            x       y       z     vdW  Elec       q    Type
REMARK                         _______ _______ _______ _____ _____    ______ ____
ROOT
ATOM      1  O   UNL     1     -35.596  25.605   2.261  0.00  0.00    -0.472 OA
ATOM      2  O   UNL     1     -39.475  26.913   1.943  0.00  0.00    -0.289 OA
ATOM      3  C   UNL     1     -36.554  25.343   3.298  0.00  0.00    +0.222 C 
ATOM      4  C   UNL     1     -37.965  25.200   2.724  0.00  0.00    +0.217 C 
ATOM      5  C   UNL     1     -38.333  26.472   1.994  0.00  0.00    +0.207 C 
ATOM      6  C   UNL     1     -37.221  27.151   1.300  0.00  0.00    +0.074 C 
ATOM      7  C   UNL     1     -35.920  26.669   1.461  0.00  0.00    +0.145 C 
ATOM      8  C   UNL     1     -37.470  28.247   0.468  0.00  0.00    +0.046 C 
ATOM      9  C   UNL     1     -34.869  27.264   0.761  0.00  0.00    +0.077 C 
ATOM     10  C   UNL     1     -36.412  28.848  -0.215  0.00  0.00    +0.168 C 
ATOM     11  C   UNL     1     -35.116  28.355  -0.073  0.00  0.00    +0.171 C 
ENDROOT
BRANCH   3  12
ATOM     12  C   UNL     1     -36.111  24.082   4.016  0.00  0.00    +0.023 C 
ATOM     13  C   UNL     1     -36.106  22.861   3.343  0.00  0.00    +0.039 C 
ATOM     14  C   UNL     1     -35.708  24.144   5.350  0.00  0.00    +0.003 C 
ATOM     15  C   UNL     1     -35.697  21.702   4.002  0.00  0.00    +0.167 C 
ATOM     16  C   UNL     1     -35.299  22.986   6.010  0.00  0.00    +0.040 C 
ATOM     17  C   UNL     1     -35.293  21.764   5.335  0.00  0.00    +0.167 C 
BRANCH  15  18
ATOM     18  O   UNL     1     -35.694  20.515   3.332  0.00  0.00    -0.503 OA
ATOM     19  H   UNL     1     -36.423  19.933   3.409  0.00  0.00    +0.292 HD
ENDBRANCH  15  18
BRANCH  17  20
ATOM     20  O   UNL     1     -34.892  20.640   5.991  0.00  0.00    -0.503 OA
ATOM     21  H   UNL     1     -34.590  19.898   5.505  0.00  0.00    +0.292 HD
ENDBRANCH  17  20
ENDBRANCH   3  12
BRANCH   4  22
ATOM     22  O   UNL     1     -38.920  24.988   3.750  0.00  0.00    -0.374 OA
ATOM     23  H   UNL     1     -38.628  24.257   4.319  0.00  0.00    +0.211 HD
ENDBRANCH   4  22
BRANCH  10  24
ATOM     24  O   UNL     1     -36.661  29.914  -1.027  0.00  0.00    -0.503 OA
ATOM     25  H   UNL     1     -36.620  29.813  -1.958  0.00  0.00    +0.292 HD
ENDBRANCH  10  24
BRANCH  11  26
ATOM     26  O   UNL     1     -34.078  28.931  -0.744  0.00  0.00    -0.503 OA
ATOM     27  H   UNL     1     -34.183  29.779  -1.130  0.00  0.00    +0.292 HD
ENDBRANCH  11  26
TORSDOF 6
ENDMDL
