MODEL 1
REMARK VINA RESULT:      -6.7      0.000      0.000
REMARK  Name = 6020
REMARK  5 active torsions:
REMARK  status: ('A' for Active; 'I' for Inactive)
REMARK    1  A    between atoms: C_2  and  N_18
REMARK    2  A    between atoms: C_3  and  O_22
REMARK    3  A    between atoms: C_4  and  N_6
REMARK    4  A    between atoms: C_5  and  C_24
REMARK    5  A    between atoms: C_24  and  O_25
REMARK                            x       y       z     vdW  Elec       q    Type
REMARK                         _______ _______ _______ _____ _____    ______ ____
ROOT
ATOM      1  O   UNL     1     -35.242  24.380   5.821  0.00  0.00    -0.338 OA
ATOM      2  C   UNL     1     -36.161  23.232   3.985  0.00  0.00    -0.004 C 
ATOM      3  C   UNL     1     -36.652  24.671   3.899  0.00  0.00    +0.140 C 
ATOM      4  C   UNL     1     -35.797  25.386   4.949  0.00  0.00    +0.220 C 
ATOM      5  C   UNL     1     -35.805  23.106   5.462  0.00  0.00    +0.129 C 
ENDROOT
BRANCH   4   6
ATOM      6  N   UNL     1     -34.714  26.187   4.377  0.00  0.00    -0.247 N 
ATOM      7  N   UNL     1     -33.475  27.221   2.839  0.00  0.00    -0.242 NA
ATOM      8  N   UNL     1     -33.459  26.760   6.377  0.00  0.00    -0.228 NA
ATOM      9  N   UNL     1     -30.984  28.790   3.601  0.00  0.00    -0.289 N 
ATOM     10  N   UNL     1     -31.515  28.132   5.840  0.00  0.00    -0.228 NA
ATOM     11  C   UNL     1     -33.688  26.783   5.055  0.00  0.00    +0.152 C 
ATOM     12  C   UNL     1     -34.542  26.478   3.050  0.00  0.00    +0.223 C 
ATOM     13  C   UNL     1     -32.933  27.418   4.084  0.00  0.00    +0.140 C 
ATOM     14  C   UNL     1     -31.808  28.114   4.517  0.00  0.00    +0.149 C 
ATOM     15  C   UNL     1     -32.346  27.464   6.675  0.00  0.00    +0.253 C 
ATOM     16  C   UNL     1     -30.846  28.310   2.238  0.00  0.00    +0.114 C 
ATOM     17  C   UNL     1     -30.267  29.989   3.996  0.00  0.00    +0.114 C 
ENDBRANCH   4   6
BRANCH   2  18
ATOM     18  N   UNL     1     -37.118  22.241   3.526  0.00  0.00    +0.385 N 
ATOM     19  H   UNL     1     -37.441  21.688   4.320  0.00  0.00    -0.089 HD
ATOM     20  H   UNL     1     -36.671  21.628   2.844  0.00  0.00    -0.089 HD
ATOM     21  H   UNL     1     -37.913  22.710   3.093  0.00  0.00    -0.089 HD
ENDBRANCH   2  18
BRANCH   3  22
ATOM     22  O   UNL     1     -38.026  24.787   4.266  0.00  0.00    -0.382 OA
ATOM     23  H   UNL     1     -38.091  25.167   5.156  0.00  0.00    +0.210 HD
ENDBRANCH   3  22
BRANCH   5  24
ATOM     24  C   UNL     1     -34.808  22.002   5.769  0.00  0.00    +0.165 C 
BRANCH  24  25
ATOM     25  O   UNL     1     -35.497  20.764   5.821  0.00  0.00    -0.380 OA
ATOM     26  H   UNL     1     -36.450  20.927   5.905  0.00  0.00    +0.211 HD
ENDBRANCH  24  25
ENDBRANCH   5  24
TORSDOF 5
ENDMDL
MODEL 2
REMARK VINA RESULT:      -6.1      1.193      2.319
REMARK  Name = 6020
REMARK  5 active torsions:
REMARK  status: ('A' for Active; 'I' for Inactive)
REMARK    1  A    between atoms: C_2  and  N_18
REMARK    2  A    between atoms: C_3  and  O_22
REMARK    3  A    between atoms: C_4  and  N_6
REMARK    4  A    between atoms: C_5  and  C_24
REMARK    5  A    between atoms: C_24  and  O_25
REMARK                            x       y       z     vdW  Elec       q    Type
REMARK                         _______ _______ _______ _____ _____    ______ ____
ROOT
ATOM      1  O   UNL     1     -35.429  24.332   6.062  0.00  0.00    -0.338 OA
ATOM      2  C   UNL     1     -36.091  23.217   4.099  0.00  0.00    -0.004 C 
ATOM      3  C   UNL     1     -36.642  24.634   4.011  0.00  0.00    +0.140 C 
ATOM      4  C   UNL     1     -35.940  25.345   5.171  0.00  0.00    +0.220 C 
ATOM      5  C   UNL     1     -35.885  23.048   5.600  0.00  0.00    +0.129 C 
ENDROOT
BRANCH   4   6
ATOM      6  N   UNL     1     -34.845  26.219   4.747  0.00  0.00    -0.247 N 
ATOM      7  N   UNL     1     -32.850  27.213   4.755  0.00  0.00    -0.242 NA
ATOM      8  N   UNL     1     -35.813  27.244   2.769  0.00  0.00    -0.228 NA
ATOM      9  N   UNL     1     -32.073  29.231   2.617  0.00  0.00    -0.289 N 
ATOM     10  N   UNL     1     -34.258  28.814   1.734  0.00  0.00    -0.228 NA
ATOM     11  C   UNL     1     -34.833  27.052   3.664  0.00  0.00    +0.152 C 
ATOM     12  C   UNL     1     -33.633  26.351   5.370  0.00  0.00    +0.223 C 
ATOM     13  C   UNL     1     -33.588  27.658   3.688  0.00  0.00    +0.140 C 
ATOM     14  C   UNL     1     -33.313  28.570   2.673  0.00  0.00    +0.149 C 
ATOM     15  C   UNL     1     -35.432  28.147   1.838  0.00  0.00    +0.253 C 
ATOM     16  C   UNL     1     -31.334  29.517   3.833  0.00  0.00    +0.114 C 
ATOM     17  C   UNL     1     -31.504  29.626   1.342  0.00  0.00    +0.114 C 
ENDBRANCH   4   6
BRANCH   2  18
ATOM     18  N   UNL     1     -36.942  22.201   3.507  0.00  0.00    +0.385 N 
ATOM     19  H   UNL     1     -36.462  21.774   2.714  0.00  0.00    -0.089 HD
ATOM     20  H   UNL     1     -37.810  22.630   3.187  0.00  0.00    -0.089 HD
ATOM     21  H   UNL     1     -37.152  21.485   4.202  0.00  0.00    -0.089 HD
ENDBRANCH   2  18
BRANCH   3  22
ATOM     22  O   UNL     1     -38.051  24.670   4.232  0.00  0.00    -0.382 OA
ATOM     23  H   UNL     1     -38.431  23.799   4.038  0.00  0.00    +0.210 HD
ENDBRANCH   3  22
BRANCH   5  24
ATOM     24  C   UNL     1     -34.872  21.982   5.974  0.00  0.00    +0.165 C 
BRANCH  24  25
ATOM     25  O   UNL     1     -35.448  20.705   5.752  0.00  0.00    -0.380 OA
ATOM     26  H   UNL     1     -35.043  20.059   6.353  0.00  0.00    +0.211 HD
ENDBRANCH  24  25
ENDBRANCH   5  24
TORSDOF 5
ENDMDL
MODEL 3
REMARK VINA RESULT:      -5.9      1.134      1.160
REMARK  Name = 6020
REMARK  5 active torsions:
REMARK  status: ('A' for Active; 'I' for Inactive)
REMARK    1  A    between atoms: C_2  and  N_18
REMARK    2  A    between atoms: C_3  and  O_22
REMARK    3  A    between atoms: C_4  and  N_6
REMARK    4  A    between atoms: C_5  and  C_24
REMARK    5  A    between atoms: C_24  and  O_25
REMARK                            x       y       z     vdW  Elec       q    Type
REMARK                         _______ _______ _______ _____ _____    ______ ____
ROOT
ATOM      1  O   UNL     1     -34.929  25.233   5.624  0.00  0.00    -0.338 OA
ATOM      2  C   UNL     1     -36.187  24.143   3.962  0.00  0.00    -0.004 C 
ATOM      3  C   UNL     1     -36.325  25.639   3.713  0.00  0.00    +0.140 C 
ATOM      4  C   UNL     1     -35.274  26.239   4.649  0.00  0.00    +0.220 C 
ATOM      5  C   UNL     1     -35.796  24.101   5.435  0.00  0.00    +0.129 C 
ENDROOT
BRANCH   4   6
ATOM      6  N   UNL     1     -34.061  26.685   3.960  0.00  0.00    -0.247 N 
ATOM      7  N   UNL     1     -32.608  27.012   2.302  0.00  0.00    -0.242 NA
ATOM      8  N   UNL     1     -32.862  27.754   5.783  0.00  0.00    -0.228 NA
ATOM      9  N   UNL     1     -29.980  28.472   2.761  0.00  0.00    -0.289 N 
ATOM     10  N   UNL     1     -30.725  28.656   5.028  0.00  0.00    -0.228 NA
ATOM     11  C   UNL     1     -33.008  27.360   4.508  0.00  0.00    +0.152 C 
ATOM     12  C   UNL     1     -33.774  26.499   2.634  0.00  0.00    +0.223 C 
ATOM     13  C   UNL     1     -32.119  27.553   3.464  0.00  0.00    +0.140 C 
ATOM     14  C   UNL     1     -30.939  28.230   3.760  0.00  0.00    +0.149 C 
ATOM     15  C   UNL     1     -31.685  28.396   5.947  0.00  0.00    +0.253 C 
ATOM     16  C   UNL     1     -29.827  27.555   1.647  0.00  0.00    +0.114 C 
ATOM     17  C   UNL     1     -29.136  29.651   2.818  0.00  0.00    +0.114 C 
ENDBRANCH   4   6
BRANCH   2  18
ATOM     18  N   UNL     1     -37.373  23.367   3.649  0.00  0.00    +0.385 N 
ATOM     19  H   UNL     1     -38.204  23.889   3.927  0.00  0.00    -0.089 HD
ATOM     20  H   UNL     1     -37.342  22.481   4.154  0.00  0.00    -0.089 HD
ATOM     21  H   UNL     1     -37.407  23.186   2.646  0.00  0.00    -0.089 HD
ENDBRANCH   2  18
BRANCH   3  22
ATOM     22  O   UNL     1     -37.613  26.123   4.094  0.00  0.00    -0.382 OA
ATOM     23  H   UNL     1     -37.636  27.088   3.995  0.00  0.00    +0.210 HD
ENDBRANCH   3  22
BRANCH   5  24
ATOM     24  C   UNL     1     -35.075  22.831   5.851  0.00  0.00    +0.165 C 
BRANCH  24  25
ATOM     25  O   UNL     1     -36.035  21.809   6.069  0.00  0.00    -0.380 OA
ATOM     26  H   UNL     1     -35.637  20.946   5.875  0.00  0.00    +0.211 HD
ENDBRANCH  24  25
ENDBRANCH   5  24
TORSDOF 5
ENDMDL
MODEL 4
REMARK VINA RESULT:      -5.8      2.074      2.413
REMARK  Name = 6020
REMARK  5 active torsions:
REMARK  status: ('A' for Active; 'I' for Inactive)
REMARK    1  A    between atoms: C_2  and  N_18
REMARK    2  A    between atoms: C_3  and  O_22
REMARK    3  A    between atoms: C_4  and  N_6
REMARK    4  A    between atoms: C_5  and  C_24
REMARK    5  A    between atoms: C_24  and  O_25
REMARK                            x       y       z     vdW  Elec       q    Type
REMARK                         _______ _______ _______ _____ _____    ______ ____
ROOT
ATOM      1  O   UNL     1     -36.837  23.532   3.827  0.00  0.00    -0.338 OA
ATOM      2  C   UNL     1     -38.491  23.879   2.190  0.00  0.00    -0.004 C 
ATOM      3  C   UNL     1     -38.576  25.048   3.162  0.00  0.00    +0.140 C 
ATOM      4  C   UNL     1     -37.311  24.882   4.008  0.00  0.00    +0.220 C 
ATOM      5  C   UNL     1     -37.799  22.814   3.034  0.00  0.00    +0.129 C 
ENDROOT
BRANCH   4   6
ATOM      6  N   UNL     1     -36.246  25.824   3.659  0.00  0.00    -0.247 N 
ATOM      7  N   UNL     1     -35.069  27.287   2.458  0.00  0.00    -0.242 NA
ATOM      8  N   UNL     1     -34.889  25.750   5.673  0.00  0.00    -0.228 NA
ATOM      9  N   UNL     1     -32.523  28.547   3.545  0.00  0.00    -0.289 N 
ATOM     10  N   UNL     1     -32.955  27.226   5.492  0.00  0.00    -0.228 NA
ATOM     11  C   UNL     1     -35.181  26.182   4.437  0.00  0.00    +0.152 C 
ATOM     12  C   UNL     1     -36.134  26.514   2.481  0.00  0.00    +0.223 C 
ATOM     13  C   UNL     1     -34.465  27.089   3.674  0.00  0.00    +0.140 C 
ATOM     14  C   UNL     1     -33.311  27.618   4.246  0.00  0.00    +0.149 C 
ATOM     15  C   UNL     1     -33.754  26.329   6.119  0.00  0.00    +0.253 C 
ATOM     16  C   UNL     1     -32.457  28.514   2.095  0.00  0.00    +0.114 C 
ATOM     17  C   UNL     1     -31.772  29.565   4.256  0.00  0.00    +0.114 C 
ENDBRANCH   4   6
BRANCH   2  18
ATOM     18  N   UNL     1     -39.767  23.454   1.643  0.00  0.00    +0.385 N 
ATOM     19  H   UNL     1     -39.838  22.438   1.695  0.00  0.00    -0.089 HD
ATOM     20  H   UNL     1     -39.833  23.751   0.669  0.00  0.00    -0.089 HD
ATOM     21  H   UNL     1     -40.524  23.876   2.179  0.00  0.00    -0.089 HD
ENDBRANCH   2  18
BRANCH   3  22
ATOM     22  O   UNL     1     -39.717  24.948   4.013  0.00  0.00    -0.382 OA
ATOM     23  H   UNL     1     -40.348  24.316   3.634  0.00  0.00    +0.210 HD
ENDBRANCH   3  22
BRANCH   5  24
ATOM     24  C   UNL     1     -37.094  21.739   2.226  0.00  0.00    +0.165 C 
BRANCH  24  25
ATOM     25  O   UNL     1     -37.998  20.670   1.999  0.00  0.00    -0.380 OA
ATOM     26  H   UNL     1     -38.613  20.603   2.747  0.00  0.00    +0.211 HD
ENDBRANCH  24  25
ENDBRANCH   5  24
TORSDOF 5
ENDMDL
MODEL 5
REMARK VINA RESULT:      -5.7      4.517      6.991
REMARK  Name = 6020
REMARK  5 active torsions:
REMARK  status: ('A' for Active; 'I' for Inactive)
REMARK    1  A    between atoms: C_2  and  N_18
REMARK    2  A    between atoms: C_3  and  O_22
REMARK    3  A    between atoms: C_4  and  N_6
REMARK    4  A    between atoms: C_5  and  C_24
REMARK    5  A    between atoms: C_24  and  O_25
REMARK                            x       y       z     vdW  Elec       q    Type
REMARK                         _______ _______ _______ _____ _____    ______ ____
ROOT
ATOM      1  O   UNL     1     -35.520  22.956   2.322  0.00  0.00    -0.338 OA
ATOM      2  C   UNL     1     -35.797  21.945   4.429  0.00  0.00    -0.004 C 
ATOM      3  C   UNL     1     -35.719  23.448   4.665  0.00  0.00    +0.140 C 
ATOM      4  C   UNL     1     -35.819  24.021   3.249  0.00  0.00    +0.220 C 
ATOM      5  C   UNL     1     -35.110  21.800   3.076  0.00  0.00    +0.129 C 
ENDROOT
BRANCH   4   6
ATOM      6  N   UNL     1     -37.133  24.584   2.935  0.00  0.00    -0.247 N 
ATOM      7  N   UNL     1     -38.741  26.108   2.684  0.00  0.00    -0.242 NA
ATOM      8  N   UNL     1     -38.339  22.589   2.252  0.00  0.00    -0.228 NA
ATOM      9  N   UNL     1     -41.517  25.338   1.709  0.00  0.00    -0.289 N 
ATOM     10  N   UNL     1     -40.639  23.113   1.630  0.00  0.00    -0.228 NA
ATOM     11  C   UNL     1     -38.232  23.905   2.492  0.00  0.00    +0.152 C 
ATOM     12  C   UNL     1     -37.488  25.903   3.035  0.00  0.00    +0.223 C 
ATOM     13  C   UNL     1     -39.217  24.867   2.342  0.00  0.00    +0.140 C 
ATOM     14  C   UNL     1     -40.459  24.430   1.892  0.00  0.00    +0.149 C 
ATOM     15  C   UNL     1     -39.584  22.287   1.823  0.00  0.00    +0.253 C 
ATOM     16  C   UNL     1     -41.613  26.533   2.527  0.00  0.00    +0.114 C 
ATOM     17  C   UNL     1     -42.523  25.105   0.689  0.00  0.00    +0.114 C 
ENDBRANCH   4   6
BRANCH   2  18
ATOM     18  N   UNL     1     -35.199  21.139   5.478  0.00  0.00    +0.385 N 
ATOM     19  H   UNL     1     -34.197  21.048   5.309  0.00  0.00    -0.089 HD
ATOM     20  H   UNL     1     -35.629  20.214   5.481  0.00  0.00    -0.089 HD
ATOM     21  H   UNL     1     -35.351  21.588   6.381  0.00  0.00    -0.089 HD
ENDBRANCH   2  18
BRANCH   3  22
ATOM     22  O   UNL     1     -34.467  23.832   5.231  0.00  0.00    -0.382 OA
ATOM     23  H   UNL     1     -33.762  23.696   4.579  0.00  0.00    +0.210 HD
ENDBRANCH   3  22
BRANCH   5  24
ATOM     24  C   UNL     1     -35.486  20.539   2.319  0.00  0.00    +0.165 C 
BRANCH  24  25
ATOM     25  O   UNL     1     -36.672  20.002   2.883  0.00  0.00    -0.380 OA
ATOM     26  H   UNL     1     -36.445  19.457   3.653  0.00  0.00    +0.211 HD
ENDBRANCH  24  25
ENDBRANCH   5  24
TORSDOF 5
ENDMDL
MODEL 6
REMARK VINA RESULT:      -5.5      1.747      3.400
REMARK  Name = 6020
REMARK  5 active torsions:
REMARK  status: ('A' for Active; 'I' for Inactive)
REMARK    1  A    between atoms: C_2  and  N_18
REMARK    2  A    between atoms: C_3  and  O_22
REMARK    3  A    between atoms: C_4  and  N_6
REMARK    4  A    between atoms: C_5  and  C_24
REMARK    5  A    between atoms: C_24  and  O_25
REMARK                            x       y       z     vdW  Elec       q    Type
REMARK                         _______ _______ _______ _____ _____    ______ ____
ROOT
ATOM      1  O   UNL     1     -35.153  25.288   2.706  0.00  0.00    -0.338 OA
ATOM      2  C   UNL     1     -37.173  25.440   3.903  0.00  0.00    -0.004 C 
ATOM      3  C   UNL     1     -36.170  24.743   4.812  0.00  0.00    +0.140 C 
ATOM      4  C   UNL     1     -34.845  24.938   4.071  0.00  0.00    +0.220 C 
ATOM      5  C   UNL     1     -36.577  25.190   2.522  0.00  0.00    +0.129 C 
ENDROOT
BRANCH   4   6
ATOM      6  N   UNL     1     -33.991  25.971   4.658  0.00  0.00    -0.247 N 
ATOM      7  N   UNL     1     -32.986  27.205   6.220  0.00  0.00    -0.242 NA
ATOM      8  N   UNL     1     -33.086  27.013   2.659  0.00  0.00    -0.228 NA
ATOM      9  N   UNL     1     -31.084  29.459   5.481  0.00  0.00    -0.289 N 
ATOM     10  N   UNL     1     -31.568  28.839   3.221  0.00  0.00    -0.228 NA
ATOM     11  C   UNL     1     -33.221  26.878   3.987  0.00  0.00    +0.152 C 
ATOM     12  C   UNL     1     -33.817  26.207   5.996  0.00  0.00    +0.223 C 
ATOM     13  C   UNL     1     -32.607  27.633   4.973  0.00  0.00    +0.140 C 
ATOM     14  C   UNL     1     -31.752  28.645   4.549  0.00  0.00    +0.149 C 
ATOM     15  C   UNL     1     -32.237  28.023   2.371  0.00  0.00    +0.253 C 
ATOM     16  C   UNL     1     -31.680  29.744   6.773  0.00  0.00    +0.114 C 
ATOM     17  C   UNL     1     -29.780  30.018   5.173  0.00  0.00    +0.114 C 
ENDBRANCH   4   6
BRANCH   2  18
ATOM     18  N   UNL     1     -38.540  24.973   4.043  0.00  0.00    +0.385 N 
ATOM     19  H   UNL     1     -38.596  23.994   3.762  0.00  0.00    -0.089 HD
ATOM     20  H   UNL     1     -39.153  25.532   3.449  0.00  0.00    -0.089 HD
ATOM     21  H   UNL     1     -38.833  25.063   5.015  0.00  0.00    -0.089 HD
ENDBRANCH   2  18
BRANCH   3  22
ATOM     22  O   UNL     1     -36.436  23.345   4.923  0.00  0.00    -0.382 OA
ATOM     23  H   UNL     1     -35.916  22.975   5.654  0.00  0.00    +0.210 HD
ENDBRANCH   3  22
BRANCH   5  24
ATOM     24  C   UNL     1     -37.023  26.182   1.462  0.00  0.00    +0.165 C 
BRANCH  24  25
ATOM     25  O   UNL     1     -37.802  27.194   2.081  0.00  0.00    -0.380 OA
ATOM     26  H   UNL     1     -37.986  27.897   1.439  0.00  0.00    +0.211 HD
ENDBRANCH  24  25
ENDBRANCH   5  24
TORSDOF 5
ENDMDL
MODEL 7
REMARK VINA RESULT:      -5.4      1.699      2.597
REMARK  Name = 6020
REMARK  5 active torsions:
REMARK  status: ('A' for Active; 'I' for Inactive)
REMARK    1  A    between atoms: C_2  and  N_18
REMARK    2  A    between atoms: C_3  and  O_22
REMARK    3  A    between atoms: C_4  and  N_6
REMARK    4  A    between atoms: C_5  and  C_24
REMARK    5  A    between atoms: C_24  and  O_25
REMARK                            x       y       z     vdW  Elec       q    Type
REMARK                         _______ _______ _______ _____ _____    ______ ____
ROOT
ATOM      1  O   UNL     1     -35.213  24.478   2.562  0.00  0.00    -0.338 OA
ATOM      2  C   UNL     1     -37.241  25.189   3.520  0.00  0.00    -0.004 C 
ATOM      3  C   UNL     1     -36.202  25.188   4.633  0.00  0.00    +0.140 C 
ATOM      4  C   UNL     1     -34.888  24.987   3.873  0.00  0.00    +0.220 C 
ATOM      5  C   UNL     1     -36.628  24.224   2.511  0.00  0.00    +0.129 C 
ENDROOT
BRANCH   4   6
ATOM      6  N   UNL     1     -34.096  26.211   3.738  0.00  0.00    -0.247 N 
ATOM      7  N   UNL     1     -33.122  27.966   2.768  0.00  0.00    -0.242 NA
ATOM      8  N   UNL     1     -33.386  26.556   6.035  0.00  0.00    -0.228 NA
ATOM      9  N   UNL     1     -31.465  29.947   4.373  0.00  0.00    -0.289 N 
ATOM     10  N   UNL     1     -32.003  28.555   6.244  0.00  0.00    -0.228 NA
ATOM     11  C   UNL     1     -33.442  26.878   4.734  0.00  0.00    +0.152 C 
ATOM     12  C   UNL     1     -33.875  26.902   2.576  0.00  0.00    +0.223 C 
ATOM     13  C   UNL     1     -32.845  27.963   4.112  0.00  0.00    +0.140 C 
ATOM     14  C   UNL     1     -32.103  28.820   4.919  0.00  0.00    +0.149 C 
ATOM     15  C   UNL     1     -32.641  27.456   6.713  0.00  0.00    +0.253 C 
ATOM     16  C   UNL     1     -30.997  29.937   2.999  0.00  0.00    +0.114 C 
ATOM     17  C   UNL     1     -31.274  31.146   5.168  0.00  0.00    +0.114 C 
ENDBRANCH   4   6
BRANCH   2  18
ATOM     18  N   UNL     1     -38.580  24.820   3.944  0.00  0.00    +0.385 N 
ATOM     19  H   UNL     1     -38.909  24.034   3.384  0.00  0.00    -0.089 HD
ATOM     20  H   UNL     1     -39.207  25.615   3.817  0.00  0.00    -0.089 HD
ATOM     21  H   UNL     1     -38.564  24.553   4.927  0.00  0.00    -0.089 HD
ENDBRANCH   2  18
BRANCH   3  22
ATOM     22  O   UNL     1     -36.387  24.094   5.531  0.00  0.00    -0.382 OA
ATOM     23  H   UNL     1     -37.332  23.882   5.590  0.00  0.00    +0.210 HD
ENDBRANCH   3  22
BRANCH   5  24
ATOM     24  C   UNL     1     -37.128  24.407   1.090  0.00  0.00    +0.165 C 
BRANCH  24  25
ATOM     25  O   UNL     1     -38.000  25.526   1.052  0.00  0.00    -0.380 OA
ATOM     26  H   UNL     1     -37.923  26.024   1.881  0.00  0.00    +0.211 HD
ENDBRANCH  24  25
ENDBRANCH   5  24
TORSDOF 5
ENDMDL
MODEL 8
REMARK VINA RESULT:      -5.4      4.049      6.068
REMARK  Name = 6020
REMARK  5 active torsions:
REMARK  status: ('A' for Active; 'I' for Inactive)
REMARK    1  A    between atoms: C_2  and  N_18
REMARK    2  A    between atoms: C_3  and  O_22
REMARK    3  A    between atoms: C_4  and  N_6
REMARK    4  A    between atoms: C_5  and  C_24
REMARK    5  A    between atoms: C_24  and  O_25
REMARK                            x       y       z     vdW  Elec       q    Type
REMARK                         _______ _______ _______ _____ _____    ______ ____
ROOT
ATOM      1  O   UNL     1     -34.111  19.460   1.553  0.00  0.00    -0.338 OA
ATOM      2  C   UNL     1     -35.243  19.488  -0.509  0.00  0.00    -0.004 C 
ATOM      3  C   UNL     1     -36.300  19.627   0.578  0.00  0.00    +0.140 C 
ATOM      4  C   UNL     1     -35.464  19.875   1.836  0.00  0.00    +0.220 C 
ATOM      5  C   UNL     1     -34.087  18.848   0.251  0.00  0.00    +0.129 C 
ENDROOT
BRANCH   4   6
ATOM      6  N   UNL     1     -35.463  21.272   2.275  0.00  0.00    -0.247 N 
ATOM      7  N   UNL     1     -35.530  23.496   2.145  0.00  0.00    -0.242 NA
ATOM      8  N   UNL     1     -35.257  21.000   4.680  0.00  0.00    -0.228 NA
ATOM      9  N   UNL     1     -35.372  25.235   4.635  0.00  0.00    -0.289 N 
ATOM     10  N   UNL     1     -35.218  23.159   5.815  0.00  0.00    -0.228 NA
ATOM     11  C   UNL     1     -35.368  21.728   3.558  0.00  0.00    +0.152 C 
ATOM     12  C   UNL     1     -35.557  22.370   1.462  0.00  0.00    +0.223 C 
ATOM     13  C   UNL     1     -35.412  23.109   3.456  0.00  0.00    +0.140 C 
ATOM     14  C   UNL     1     -35.333  23.830   4.644  0.00  0.00    +0.149 C 
ATOM     15  C   UNL     1     -35.187  21.806   5.761  0.00  0.00    +0.253 C 
ATOM     16  C   UNL     1     -34.859  25.980   3.499  0.00  0.00    +0.114 C 
ATOM     17  C   UNL     1     -35.937  25.966   5.753  0.00  0.00    +0.114 C 
ENDBRANCH   4   6
BRANCH   2  18
ATOM     18  N   UNL     1     -35.671  18.730  -1.672  0.00  0.00    +0.385 N 
ATOM     19  H   UNL     1     -34.899  18.150  -2.002  0.00  0.00    -0.089 HD
ATOM     20  H   UNL     1     -35.954  19.373  -2.411  0.00  0.00    -0.089 HD
ATOM     21  H   UNL     1     -36.458  18.133  -1.418  0.00  0.00    -0.089 HD
ENDBRANCH   2  18
BRANCH   3  22
ATOM     22  O   UNL     1     -37.047  18.424   0.750  0.00  0.00    -0.382 OA
ATOM     23  H   UNL     1     -36.959  17.873  -0.044  0.00  0.00    +0.210 HD
ENDBRANCH   3  22
BRANCH   5  24
ATOM     24  C   UNL     1     -32.727  19.062  -0.388  0.00  0.00    +0.165 C 
BRANCH  24  25
ATOM     25  O   UNL     1     -32.008  20.018   0.375  0.00  0.00    -0.380 OA
ATOM     26  H   UNL     1     -31.114  19.683   0.552  0.00  0.00    +0.211 HD
ENDBRANCH  24  25
ENDBRANCH   5  24
TORSDOF 5
ENDMDL
MODEL 9
REMARK VINA RESULT:      -5.3      5.220      7.827
REMARK  Name = 6020
REMARK  5 active torsions:
REMARK  status: ('A' for Active; 'I' for Inactive)
REMARK    1  A    between atoms: C_2  and  N_18
REMARK    2  A    between atoms: C_3  and  O_22
REMARK    3  A    between atoms: C_4  and  N_6
REMARK    4  A    between atoms: C_5  and  C_24
REMARK    5  A    between atoms: C_24  and  O_25
REMARK                            x       y       z     vdW  Elec       q    Type
REMARK                         _______ _______ _______ _____ _____    ______ ____
ROOT
ATOM      1  O   UNL     1     -37.608  18.676  -0.001  0.00  0.00    -0.338 OA
ATOM      2  C   UNL     1     -35.689  17.566  -0.789  0.00  0.00    -0.004 C 
ATOM      3  C   UNL     1     -35.460  19.055  -1.006  0.00  0.00    +0.140 C 
ATOM      4  C   UNL     1     -36.611  19.695  -0.227  0.00  0.00    +0.220 C 
ATOM      5  C   UNL     1     -37.209  17.487  -0.706  0.00  0.00    +0.129 C 
ENDROOT
BRANCH   4   6
ATOM      6  N   UNL     1     -36.203  20.270   1.056  0.00  0.00    -0.247 N 
ATOM      7  N   UNL     1     -35.033  20.561   2.931  0.00  0.00    -0.242 NA
ATOM      8  N   UNL     1     -37.848  22.039   1.312  0.00  0.00    -0.228 NA
ATOM      9  N   UNL     1     -35.745  22.747   4.921  0.00  0.00    -0.289 N 
ATOM     10  N   UNL     1     -37.505  23.274   3.388  0.00  0.00    -0.228 NA
ATOM     11  C   UNL     1     -36.787  21.319   1.707  0.00  0.00    +0.152 C 
ATOM     12  C   UNL     1     -35.155  19.848   1.830  0.00  0.00    +0.223 C 
ATOM     13  C   UNL     1     -36.047  21.484   2.866  0.00  0.00    +0.140 C 
ATOM     14  C   UNL     1     -36.440  22.507   3.723  0.00  0.00    +0.149 C 
ATOM     15  C   UNL     1     -38.134  22.997   2.221  0.00  0.00    +0.253 C 
ATOM     16  C   UNL     1     -35.085  21.661   5.622  0.00  0.00    +0.114 C 
ATOM     17  C   UNL     1     -35.662  24.088   5.471  0.00  0.00    +0.114 C 
ENDBRANCH   4   6
BRANCH   2  18
ATOM     18  N   UNL     1     -35.113  16.711  -1.811  0.00  0.00    +0.385 N 
ATOM     19  H   UNL     1     -35.164  17.180  -2.715  0.00  0.00    -0.089 HD
ATOM     20  H   UNL     1     -35.633  15.834  -1.853  0.00  0.00    -0.089 HD
ATOM     21  H   UNL     1     -34.138  16.517  -1.584  0.00  0.00    -0.089 HD
ENDBRANCH   2  18
BRANCH   3  22
ATOM     22  O   UNL     1     -35.577  19.415  -2.382  0.00  0.00    -0.382 OA
ATOM     23  H   UNL     1     -35.126  20.260  -2.535  0.00  0.00    +0.210 HD
ENDBRANCH   3  22
BRANCH   5  24
ATOM     24  C   UNL     1     -37.731  16.262   0.025  0.00  0.00    +0.165 C 
BRANCH  24  25
ATOM     25  O   UNL     1     -36.630  15.549   0.567  0.00  0.00    -0.380 OA
ATOM     26  H   UNL     1     -36.301  14.916  -0.090  0.00  0.00    +0.211 HD
ENDBRANCH  24  25
ENDBRANCH   5  24
TORSDOF 5
ENDMDL
