MODEL 1
REMARK VINA RESULT:      -5.5      0.000      0.000
REMARK  Name = 191831
REMARK  5 active torsions:
REMARK  status: ('A' for Active; 'I' for Inactive)
REMARK    1  A    between atoms: C_2  and  N_16
REMARK    2  A    between atoms: C_3  and  O_20
REMARK    3  A    between atoms: C_4  and  N_7
REMARK    4  A    between atoms: C_5  and  C_22
REMARK    5  A    between atoms: C_22  and  O_23
REMARK                            x       y       z     vdW  Elec       q    Type
REMARK                         _______ _______ _______ _____ _____    ______ ____
ROOT
ATOM      1  O   UNL     1     -35.677  24.025   3.495  0.00  0.00    -0.336 OA
ATOM      2  C   UNL     1     -35.456  26.261   4.295  0.00  0.00    +0.013 C 
ATOM      3  C   UNL     1     -34.271  25.450   4.791  0.00  0.00    +0.124 C 
ATOM      4  C   UNL     1     -35.967  25.386   3.149  0.00  0.00    +0.189 C 
ATOM      5  C   UNL     1     -34.661  23.999   4.517  0.00  0.00    +0.171 C 
ENDROOT
BRANCH   4   7
ATOM      6  O   UNL     1     -37.123  27.497   1.693  0.00  0.00    -0.193 OA
ATOM      7  N   UNL     1     -37.365  25.520   2.858  0.00  0.00    -0.182 N 
ATOM      8  N   UNL     1     -39.233  26.679   1.873  0.00  0.00    -0.306 NA
ATOM      9  N   UNL     1     -41.393  25.836   2.061  0.00  0.00    -0.332 N 
ATOM     10  C   UNL     1     -38.233  24.547   3.321  0.00  0.00    +0.083 C 
ATOM     11  C   UNL     1     -37.871  26.615   2.116  0.00  0.00    +0.275 C 
ATOM     12  C   UNL     1     -39.546  24.592   3.098  0.00  0.00    +0.065 C 
ATOM     13  C   UNL     1     -40.043  25.754   2.315  0.00  0.00    +0.193 C 
ATOM     14  H   UNL     1     -41.751  26.594   1.546  0.00  0.00    +0.145 HD
ATOM     15  H   UNL     1     -42.000  25.138   2.397  0.00  0.00    +0.145 HD
ENDBRANCH   4   7
BRANCH   2  16
ATOM     16  N   UNL     1     -36.446  26.423   5.358  0.00  0.00    +0.386 N 
ATOM     17  H   UNL     1     -37.030  27.235   5.160  0.00  0.00    -0.089 HD
ATOM     18  H   UNL     1     -35.968  26.556   6.250  0.00  0.00    -0.089 HD
ATOM     19  H   UNL     1     -37.030  25.588   5.409  0.00  0.00    -0.089 HD
ENDBRANCH   2  16
BRANCH   3  20
ATOM     20  O   UNL     1     -33.116  25.788   4.020  0.00  0.00    -0.384 OA
ATOM     21  H   UNL     1     -32.855  25.027   3.478  0.00  0.00    +0.210 HD
ENDBRANCH   3  20
BRANCH   5  22
ATOM     22  C   UNL     1     -35.234  23.282   5.730  0.00  0.00    +0.169 C 
BRANCH  22  23
ATOM     23  O   UNL     1     -36.246  22.387   5.298  0.00  0.00    -0.379 OA
ATOM     24  H   UNL     1     -36.732  22.782   4.558  0.00  0.00    +0.211 HD
ENDBRANCH  22  23
ENDBRANCH   5  22
TORSDOF 5
ENDMDL
MODEL 2
REMARK VINA RESULT:      -5.3      2.708      4.931
REMARK  Name = 191831
REMARK  5 active torsions:
REMARK  status: ('A' for Active; 'I' for Inactive)
REMARK    1  A    between atoms: C_2  and  N_16
REMARK    2  A    between atoms: C_3  and  O_20
REMARK    3  A    between atoms: C_4  and  N_7
REMARK    4  A    between atoms: C_5  and  C_22
REMARK    5  A    between atoms: C_22  and  O_23
REMARK                            x       y       z     vdW  Elec       q    Type
REMARK                         _______ _______ _______ _____ _____    ______ ____
ROOT
ATOM      1  O   UNL     1     -34.901  24.845   3.339  0.00  0.00    -0.336 OA
ATOM      2  C   UNL     1     -35.319  25.384   5.625  0.00  0.00    +0.013 C 
ATOM      3  C   UNL     1     -35.977  24.050   5.314  0.00  0.00    +0.124 C 
ATOM      4  C   UNL     1     -34.324  25.510   4.470  0.00  0.00    +0.189 C 
ATOM      5  C   UNL     1     -35.940  23.954   3.790  0.00  0.00    +0.171 C 
ENDROOT
BRANCH   4   7
ATOM      6  O   UNL     1     -32.484  27.132   5.849  0.00  0.00    -0.193 OA
ATOM      7  N   UNL     1     -33.976  26.854   4.111  0.00  0.00    -0.182 N 
ATOM      8  N   UNL     1     -32.751  28.901   4.452  0.00  0.00    -0.306 NA
ATOM      9  N   UNL     1     -33.029  30.710   3.017  0.00  0.00    -0.332 N 
ATOM     10  C   UNL     1     -34.582  27.421   3.003  0.00  0.00    +0.083 C 
ATOM     11  C   UNL     1     -33.038  27.608   4.857  0.00  0.00    +0.275 C 
ATOM     12  C   UNL     1     -34.320  28.662   2.598  0.00  0.00    +0.065 C 
ATOM     13  C   UNL     1     -33.330  29.424   3.403  0.00  0.00    +0.193 C 
ATOM     14  H   UNL     1     -32.378  31.238   3.531  0.00  0.00    +0.145 HD
ATOM     15  H   UNL     1     -33.468  31.101   2.228  0.00  0.00    +0.145 HD
ENDBRANCH   4   7
BRANCH   2  16
ATOM     16  N   UNL     1     -36.313  26.456   5.625  0.00  0.00    +0.386 N 
ATOM     17  H   UNL     1     -36.153  27.068   4.825  0.00  0.00    -0.089 HD
ATOM     18  H   UNL     1     -36.231  26.995   6.488  0.00  0.00    -0.089 HD
ATOM     19  H   UNL     1     -37.247  26.053   5.565  0.00  0.00    -0.089 HD
ENDBRANCH   2  16
BRANCH   3  20
ATOM     20  O   UNL     1     -35.191  22.997   5.878  0.00  0.00    -0.384 OA
ATOM     21  H   UNL     1     -35.681  22.582   6.605  0.00  0.00    +0.210 HD
ENDBRANCH   3  20
BRANCH   5  22
ATOM     22  C   UNL     1     -37.241  24.372   3.122  0.00  0.00    +0.169 C 
BRANCH  22  23
ATOM     23  O   UNL     1     -38.170  24.750   4.125  0.00  0.00    -0.379 OA
ATOM     24  H   UNL     1     -37.829  25.519   4.608  0.00  0.00    +0.211 HD
ENDBRANCH  22  23
ENDBRANCH   5  22
TORSDOF 5
ENDMDL
MODEL 3
REMARK VINA RESULT:      -5.1      3.300      5.075
REMARK  Name = 191831
REMARK  5 active torsions:
REMARK  status: ('A' for Active; 'I' for Inactive)
REMARK    1  A    between atoms: C_2  and  N_16
REMARK    2  A    between atoms: C_3  and  O_20
REMARK    3  A    between atoms: C_4  and  N_7
REMARK    4  A    between atoms: C_5  and  C_22
REMARK    5  A    between atoms: C_22  and  O_23
REMARK                            x       y       z     vdW  Elec       q    Type
REMARK                         _______ _______ _______ _____ _____    ______ ____
ROOT
ATOM      1  O   UNL     1     -37.838  24.076   3.632  0.00  0.00    -0.336 OA
ATOM      2  C   UNL     1     -35.528  24.581   3.951  0.00  0.00    +0.013 C 
ATOM      3  C   UNL     1     -36.346  25.813   4.301  0.00  0.00    +0.124 C 
ATOM      4  C   UNL     1     -36.590  23.481   4.014  0.00  0.00    +0.189 C 
ATOM      5  C   UNL     1     -37.743  25.507   3.761  0.00  0.00    +0.171 C 
ENDROOT
BRANCH   4   7
ATOM      6  O   UNL     1     -35.070  21.242   4.783  0.00  0.00    -0.193 OA
ATOM      7  N   UNL     1     -36.330  22.337   3.190  0.00  0.00    -0.182 N 
ATOM      8  N   UNL     1     -35.344  20.174   2.799  0.00  0.00    -0.306 NA
ATOM      9  N   UNL     1     -35.627  19.085   0.763  0.00  0.00    -0.332 N 
ATOM     10  C   UNL     1     -36.856  22.311   1.910  0.00  0.00    +0.083 C 
ATOM     11  C   UNL     1     -35.554  21.246   3.650  0.00  0.00    +0.275 C 
ATOM     12  C   UNL     1     -36.665  21.290   1.076  0.00  0.00    +0.065 C 
ATOM     13  C   UNL     1     -35.847  20.161   1.592  0.00  0.00    +0.193 C 
ATOM     14  H   UNL     1     -35.088  18.324   1.077  0.00  0.00    +0.145 HD
ATOM     15  H   UNL     1     -36.006  19.079  -0.145  0.00  0.00    +0.145 HD
ENDBRANCH   4   7
BRANCH   2  16
ATOM     16  N   UNL     1     -34.943  24.716   2.619  0.00  0.00    +0.386 N 
ATOM     17  H   UNL     1     -34.903  25.703   2.363  0.00  0.00    -0.089 HD
ATOM     18  H   UNL     1     -35.519  24.213   1.943  0.00  0.00    -0.089 HD
ATOM     19  H   UNL     1     -34.001  24.325   2.620  0.00  0.00    -0.089 HD
ENDBRANCH   2  16
BRANCH   3  20
ATOM     20  O   UNL     1     -36.403  25.951   5.722  0.00  0.00    -0.384 OA
ATOM     21  H   UNL     1     -35.520  25.804   6.097  0.00  0.00    +0.210 HD
ENDBRANCH   3  20
BRANCH   5  22
ATOM     22  C   UNL     1     -38.016  26.122   2.397  0.00  0.00    +0.169 C 
BRANCH  22  23
ATOM     23  O   UNL     1     -37.163  27.241   2.219  0.00  0.00    -0.379 OA
ATOM     24  H   UNL     1     -37.524  27.816   1.526  0.00  0.00    +0.211 HD
ENDBRANCH  22  23
ENDBRANCH   5  22
TORSDOF 5
ENDMDL
MODEL 4
REMARK VINA RESULT:      -5.0      2.613      4.716
REMARK  Name = 191831
REMARK  5 active torsions:
REMARK  status: ('A' for Active; 'I' for Inactive)
REMARK    1  A    between atoms: C_2  and  N_16
REMARK    2  A    between atoms: C_3  and  O_20
REMARK    3  A    between atoms: C_4  and  N_7
REMARK    4  A    between atoms: C_5  and  C_22
REMARK    5  A    between atoms: C_22  and  O_23
REMARK                            x       y       z     vdW  Elec       q    Type
REMARK                         _______ _______ _______ _____ _____    ______ ____
ROOT
ATOM      1  O   UNL     1     -37.125  22.961   3.431  0.00  0.00    -0.336 OA
ATOM      2  C   UNL     1     -36.296  24.024   1.463  0.00  0.00    +0.013 C 
ATOM      3  C   UNL     1     -37.059  22.775   1.054  0.00  0.00    +0.124 C 
ATOM      4  C   UNL     1     -36.818  24.250   2.882  0.00  0.00    +0.189 C 
ATOM      5  C   UNL     1     -37.260  22.007   2.359  0.00  0.00    +0.171 C 
ENDROOT
BRANCH   4   7
ATOM      6  O   UNL     1     -36.239  27.001   2.765  0.00  0.00    -0.193 OA
ATOM      7  N   UNL     1     -35.919  24.943   3.759  0.00  0.00    -0.182 N 
ATOM      8  N   UNL     1     -34.798  26.936   4.517  0.00  0.00    -0.306 NA
ATOM      9  N   UNL     1     -33.322  26.863   6.313  0.00  0.00    -0.332 N 
ATOM     10  C   UNL     1     -35.272  24.222   4.747  0.00  0.00    +0.083 C 
ATOM     11  C   UNL     1     -35.680  26.333   3.636  0.00  0.00    +0.275 C 
ATOM     12  C   UNL     1     -34.420  24.783   5.603  0.00  0.00    +0.065 C 
ATOM     13  C   UNL     1     -34.193  26.244   5.447  0.00  0.00    +0.193 C 
ATOM     14  H   UNL     1     -33.151  27.829   6.233  0.00  0.00    +0.145 HD
ATOM     15  H   UNL     1     -32.867  26.340   7.011  0.00  0.00    +0.145 HD
ENDBRANCH   4   7
BRANCH   2  16
ATOM     16  N   UNL     1     -34.856  23.776   1.431  0.00  0.00    +0.386 N 
ATOM     17  H   UNL     1     -34.681  22.774   1.505  0.00  0.00    -0.089 HD
ATOM     18  H   UNL     1     -34.411  24.258   2.214  0.00  0.00    -0.089 HD
ATOM     19  H   UNL     1     -34.469  24.125   0.555  0.00  0.00    -0.089 HD
ENDBRANCH   2  16
BRANCH   3  20
ATOM     20  O   UNL     1     -38.331  23.156   0.524  0.00  0.00    -0.384 OA
ATOM     21  H   UNL     1     -38.859  22.360   0.347  0.00  0.00    +0.210 HD
ENDBRANCH   3  20
BRANCH   5  22
ATOM     22  C   UNL     1     -36.236  20.904   2.580  0.00  0.00    +0.169 C 
BRANCH  22  23
ATOM     23  O   UNL     1     -36.899  19.651   2.550  0.00  0.00    -0.379 OA
ATOM     24  H   UNL     1     -37.140  19.391   3.453  0.00  0.00    +0.211 HD
ENDBRANCH  22  23
ENDBRANCH   5  22
TORSDOF 5
ENDMDL
MODEL 5
REMARK VINA RESULT:      -5.0      2.876      4.640
REMARK  Name = 191831
REMARK  5 active torsions:
REMARK  status: ('A' for Active; 'I' for Inactive)
REMARK    1  A    between atoms: C_2  and  N_16
REMARK    2  A    between atoms: C_3  and  O_20
REMARK    3  A    between atoms: C_4  and  N_7
REMARK    4  A    between atoms: C_5  and  C_22
REMARK    5  A    between atoms: C_22  and  O_23
REMARK                            x       y       z     vdW  Elec       q    Type
REMARK                         _______ _______ _______ _____ _____    ______ ____
ROOT
ATOM      1  O   UNL     1     -33.204  25.955   2.730  0.00  0.00    -0.336 OA
ATOM      2  C   UNL     1     -35.328  27.041   2.771  0.00  0.00    +0.013 C 
ATOM      3  C   UNL     1     -34.302  28.005   2.198  0.00  0.00    +0.124 C 
ATOM      4  C   UNL     1     -34.610  25.700   2.611  0.00  0.00    +0.189 C 
ATOM      5  C   UNL     1     -32.955  27.358   2.513  0.00  0.00    +0.171 C 
ENDROOT
BRANCH   4   7
ATOM      6  O   UNL     1     -36.930  24.119   2.426  0.00  0.00    -0.193 OA
ATOM      7  N   UNL     1     -34.996  24.687   3.549  0.00  0.00    -0.182 N 
ATOM      8  N   UNL     1     -36.492  22.969   4.334  0.00  0.00    -0.306 NA
ATOM      9  N   UNL     1     -36.037  21.794   6.289  0.00  0.00    -0.332 N 
ATOM     10  C   UNL     1     -34.179  24.452   4.641  0.00  0.00    +0.083 C 
ATOM     11  C   UNL     1     -36.182  23.931   3.387  0.00  0.00    +0.275 C 
ATOM     12  C   UNL     1     -34.460  23.532   5.563  0.00  0.00    +0.065 C 
ATOM     13  C   UNL     1     -35.712  22.756   5.361  0.00  0.00    +0.193 C 
ATOM     14  H   UNL     1     -36.860  21.265   6.181  0.00  0.00    +0.145 HD
ATOM     15  H   UNL     1     -35.449  21.637   7.062  0.00  0.00    +0.145 HD
ENDBRANCH   4   7
BRANCH   2  16
ATOM     16  N   UNL     1     -35.605  27.361   4.170  0.00  0.00    +0.386 N 
ATOM     17  H   UNL     1     -36.011  26.549   4.632  0.00  0.00    -0.089 HD
ATOM     18  H   UNL     1     -36.260  28.143   4.217  0.00  0.00    -0.089 HD
ATOM     19  H   UNL     1     -34.736  27.620   4.638  0.00  0.00    -0.089 HD
ENDBRANCH   2  16
BRANCH   3  20
ATOM     20  O   UNL     1     -34.474  28.084   0.781  0.00  0.00    -0.384 OA
ATOM     21  H   UNL     1     -33.633  28.335   0.367  0.00  0.00    +0.210 HD
ENDBRANCH   3  20
BRANCH   5  22
ATOM     22  C   UNL     1     -32.289  27.915   3.762  0.00  0.00    +0.169 C 
BRANCH  22  23
ATOM     23  O   UNL     1     -33.048  29.017   4.233  0.00  0.00    -0.379 OA
ATOM     24  H   UNL     1     -32.523  29.520   4.875  0.00  0.00    +0.211 HD
ENDBRANCH  22  23
ENDBRANCH   5  22
TORSDOF 5
ENDMDL
MODEL 6
REMARK VINA RESULT:      -5.0      3.843      5.559
REMARK  Name = 191831
REMARK  5 active torsions:
REMARK  status: ('A' for Active; 'I' for Inactive)
REMARK    1  A    between atoms: C_2  and  N_16
REMARK    2  A    between atoms: C_3  and  O_20
REMARK    3  A    between atoms: C_4  and  N_7
REMARK    4  A    between atoms: C_5  and  C_22
REMARK    5  A    between atoms: C_22  and  O_23
REMARK                            x       y       z     vdW  Elec       q    Type
REMARK                         _______ _______ _______ _____ _____    ______ ____
ROOT
ATOM      1  O   UNL     1     -34.938  21.911   1.029  0.00  0.00    -0.336 OA
ATOM      2  C   UNL     1     -36.318  20.404   2.260  0.00  0.00    +0.013 C 
ATOM      3  C   UNL     1     -35.950  19.752   0.938  0.00  0.00    +0.124 C 
ATOM      4  C   UNL     1     -35.259  21.502   2.366  0.00  0.00    +0.189 C 
ATOM      5  C   UNL     1     -35.361  20.890   0.105  0.00  0.00    +0.171 C 
ENDROOT
BRANCH   4   7
ATOM      6  O   UNL     1     -35.307  21.617   5.177  0.00  0.00    -0.193 OA
ATOM      7  N   UNL     1     -35.644  22.647   3.139  0.00  0.00    -0.182 N 
ATOM      8  N   UNL     1     -36.026  23.770   5.236  0.00  0.00    -0.306 NA
ATOM      9  N   UNL     1     -36.763  25.975   5.291  0.00  0.00    -0.332 N 
ATOM     10  C   UNL     1     -36.027  23.797   2.472  0.00  0.00    +0.083 C 
ATOM     11  C   UNL     1     -35.642  22.627   4.555  0.00  0.00    +0.275 C 
ATOM     12  C   UNL     1     -36.401  24.905   3.109  0.00  0.00    +0.065 C 
ATOM     13  C   UNL     1     -36.386  24.850   4.594  0.00  0.00    +0.193 C 
ATOM     14  H   UNL     1     -36.763  25.967   6.275  0.00  0.00    +0.145 HD
ATOM     15  H   UNL     1     -37.034  26.786   4.805  0.00  0.00    +0.145 HD
ENDBRANCH   4   7
BRANCH   2  16
ATOM     16  N   UNL     1     -37.676  20.942   2.204  0.00  0.00    +0.386 N 
ATOM     17  H   UNL     1     -38.333  20.248   2.557  0.00  0.00    -0.089 HD
ATOM     18  H   UNL     1     -37.910  21.173   1.238  0.00  0.00    -0.089 HD
ATOM     19  H   UNL     1     -37.731  21.785   2.776  0.00  0.00    -0.089 HD
ENDBRANCH   2  16
BRANCH   3  20
ATOM     20  O   UNL     1     -34.947  18.760   1.167  0.00  0.00    -0.384 OA
ATOM     21  H   UNL     1     -34.159  18.969   0.640  0.00  0.00    +0.210 HD
ENDBRANCH   3  20
BRANCH   5  22
ATOM     22  C   UNL     1     -36.356  21.514  -0.862  0.00  0.00    +0.169 C 
BRANCH  22  23
ATOM     23  O   UNL     1     -37.510  20.691  -0.928  0.00  0.00    -0.379 OA
ATOM     24  H   UNL     1     -38.103  20.906  -0.191  0.00  0.00    +0.211 HD
ENDBRANCH  22  23
ENDBRANCH   5  22
TORSDOF 5
ENDMDL
MODEL 7
REMARK VINA RESULT:      -5.0      3.152      4.533
REMARK  Name = 191831
REMARK  5 active torsions:
REMARK  status: ('A' for Active; 'I' for Inactive)
REMARK    1  A    between atoms: C_2  and  N_16
REMARK    2  A    between atoms: C_3  and  O_20
REMARK    3  A    between atoms: C_4  and  N_7
REMARK    4  A    between atoms: C_5  and  C_22
REMARK    5  A    between atoms: C_22  and  O_23
REMARK                            x       y       z     vdW  Elec       q    Type
REMARK                         _______ _______ _______ _____ _____    ______ ____
ROOT
ATOM      1  O   UNL     1     -35.737  22.808   1.298  0.00  0.00    -0.336 OA
ATOM      2  C   UNL     1     -35.571  22.257   3.613  0.00  0.00    +0.013 C 
ATOM      3  C   UNL     1     -35.999  21.015   2.849  0.00  0.00    +0.124 C 
ATOM      4  C   UNL     1     -35.005  23.127   2.490  0.00  0.00    +0.189 C 
ATOM      5  C   UNL     1     -36.390  21.535   1.467  0.00  0.00    +0.171 C 
ENDROOT
BRANCH   4   7
ATOM      6  O   UNL     1     -33.672  24.481   4.565  0.00  0.00    -0.193 OA
ATOM      7  N   UNL     1     -35.065  24.540   2.726  0.00  0.00    -0.182 N 
ATOM      8  N   UNL     1     -34.466  26.520   3.962  0.00  0.00    -0.306 NA
ATOM      9  N   UNL     1     -35.285  28.606   3.340  0.00  0.00    -0.332 N 
ATOM     10  C   UNL     1     -35.834  25.320   1.880  0.00  0.00    +0.083 C 
ATOM     11  C   UNL     1     -34.363  25.149   3.794  0.00  0.00    +0.275 C 
ATOM     12  C   UNL     1     -35.947  26.639   2.026  0.00  0.00    +0.065 C 
ATOM     13  C   UNL     1     -35.196  27.246   3.156  0.00  0.00    +0.193 C 
ATOM     14  H   UNL     1     -34.799  29.035   4.081  0.00  0.00    +0.145 HD
ATOM     15  H   UNL     1     -35.836  29.150   2.733  0.00  0.00    +0.145 HD
ENDBRANCH   4   7
BRANCH   2  16
ATOM     16  N   UNL     1     -36.722  22.874   4.271  0.00  0.00    +0.386 N 
ATOM     17  H   UNL     1     -37.443  22.171   4.426  0.00  0.00    -0.089 HD
ATOM     18  H   UNL     1     -37.093  23.618   3.679  0.00  0.00    -0.089 HD
ATOM     19  H   UNL     1     -36.431  23.267   5.166  0.00  0.00    -0.089 HD
ENDBRANCH   2  16
BRANCH   3  20
ATOM     20  O   UNL     1     -34.883  20.131   2.729  0.00  0.00    -0.384 OA
ATOM     21  H   UNL     1     -34.805  19.831   1.809  0.00  0.00    +0.210 HD
ENDBRANCH   3  20
BRANCH   5  22
ATOM     22  C   UNL     1     -37.886  21.748   1.297  0.00  0.00    +0.169 C 
BRANCH  22  23
ATOM     23  O   UNL     1     -38.567  21.080   2.347  0.00  0.00    -0.379 OA
ATOM     24  H   UNL     1     -39.136  20.389   1.975  0.00  0.00    +0.211 HD
ENDBRANCH  22  23
ENDBRANCH   5  22
TORSDOF 5
ENDMDL
MODEL 8
REMARK VINA RESULT:      -4.9      3.195      4.835
REMARK  Name = 191831
REMARK  5 active torsions:
REMARK  status: ('A' for Active; 'I' for Inactive)
REMARK    1  A    between atoms: C_2  and  N_16
REMARK    2  A    between atoms: C_3  and  O_20
REMARK    3  A    between atoms: C_4  and  N_7
REMARK    4  A    between atoms: C_5  and  C_22
REMARK    5  A    between atoms: C_22  and  O_23
REMARK                            x       y       z     vdW  Elec       q    Type
REMARK                         _______ _______ _______ _____ _____    ______ ____
ROOT
ATOM      1  O   UNL     1     -35.760  24.205   5.672  0.00  0.00    -0.336 OA
ATOM      2  C   UNL     1     -35.720  24.210   3.286  0.00  0.00    +0.013 C 
ATOM      3  C   UNL     1     -36.367  22.919   3.757  0.00  0.00    +0.124 C 
ATOM      4  C   UNL     1     -35.830  25.081   4.539  0.00  0.00    +0.189 C 
ATOM      5  C   UNL     1     -36.054  22.859   5.251  0.00  0.00    +0.171 C 
ENDROOT
BRANCH   4   7
ATOM      6  O   UNL     1     -35.423  27.174   2.702  0.00  0.00    -0.193 OA
ATOM      7  N   UNL     1     -34.832  26.104   4.659  0.00  0.00    -0.182 N 
ATOM      8  N   UNL     1     -33.702  28.081   3.872  0.00  0.00    -0.306 NA
ATOM      9  N   UNL     1     -31.939  29.005   5.075  0.00  0.00    -0.332 N 
ATOM     10  C   UNL     1     -33.989  26.078   5.757  0.00  0.00    +0.083 C 
ATOM     11  C   UNL     1     -34.689  27.126   3.691  0.00  0.00    +0.275 C 
ATOM     12  C   UNL     1     -33.033  26.986   5.949  0.00  0.00    +0.065 C 
ATOM     13  C   UNL     1     -32.912  28.046   4.913  0.00  0.00    +0.193 C 
ATOM     14  H   UNL     1     -31.835  29.718   4.406  0.00  0.00    +0.145 HD
ATOM     15  H   UNL     1     -31.345  28.976   5.859  0.00  0.00    +0.145 HD
ENDBRANCH   4   7
BRANCH   2  16
ATOM     16  N   UNL     1     -34.332  23.973   2.893  0.00  0.00    +0.386 N 
ATOM     17  H   UNL     1     -33.880  23.372   3.582  0.00  0.00    -0.089 HD
ATOM     18  H   UNL     1     -33.836  24.864   2.842  0.00  0.00    -0.089 HD
ATOM     19  H   UNL     1     -34.310  23.520   1.980  0.00  0.00    -0.089 HD
ENDBRANCH   2  16
BRANCH   3  20
ATOM     20  O   UNL     1     -37.781  23.007   3.569  0.00  0.00    -0.384 OA
ATOM     21  H   UNL     1     -38.129  22.137   3.315  0.00  0.00    +0.210 HD
ENDBRANCH   3  20
BRANCH   5  22
ATOM     22  C   UNL     1     -34.853  21.988   5.587  0.00  0.00    +0.169 C 
BRANCH  22  23
ATOM     23  O   UNL     1     -35.275  20.636   5.670  0.00  0.00    -0.379 OA
ATOM     24  H   UNL     1     -35.960  20.470   5.003  0.00  0.00    +0.211 HD
ENDBRANCH  22  23
ENDBRANCH   5  22
TORSDOF 5
ENDMDL
MODEL 9
REMARK VINA RESULT:      -4.9      3.054      5.078
REMARK  Name = 191831
REMARK  5 active torsions:
REMARK  status: ('A' for Active; 'I' for Inactive)
REMARK    1  A    between atoms: C_2  and  N_16
REMARK    2  A    between atoms: C_3  and  O_20
REMARK    3  A    between atoms: C_4  and  N_7
REMARK    4  A    between atoms: C_5  and  C_22
REMARK    5  A    between atoms: C_22  and  O_23
REMARK                            x       y       z     vdW  Elec       q    Type
REMARK                         _______ _______ _______ _____ _____    ______ ____
ROOT
ATOM      1  O   UNL     1     -35.937  21.252   3.313  0.00  0.00    -0.336 OA
ATOM      2  C   UNL     1     -37.183  22.642   1.827  0.00  0.00    +0.013 C 
ATOM      3  C   UNL     1     -37.178  21.226   1.275  0.00  0.00    +0.124 C 
ATOM      4  C   UNL     1     -36.792  22.403   3.286  0.00  0.00    +0.189 C 
ATOM      5  C   UNL     1     -36.109  20.503   2.094  0.00  0.00    +0.171 C 
ENDROOT
BRANCH   4   7
ATOM      6  O   UNL     1     -38.050  24.776   4.123  0.00  0.00    -0.193 OA
ATOM      7  N   UNL     1     -36.135  23.504   3.929  0.00  0.00    -0.182 N 
ATOM      8  N   UNL     1     -36.140  25.692   4.937  0.00  0.00    -0.306 NA
ATOM      9  N   UNL     1     -34.178  26.625   5.770  0.00  0.00    -0.332 N 
ATOM     10  C   UNL     1     -34.774  23.415   4.165  0.00  0.00    +0.083 C 
ATOM     11  C   UNL     1     -36.839  24.668   4.322  0.00  0.00    +0.275 C 
ATOM     12  C   UNL     1     -34.084  24.390   4.754  0.00  0.00    +0.065 C 
ATOM     13  C   UNL     1     -34.854  25.596   5.155  0.00  0.00    +0.193 C 
ATOM     14  H   UNL     1     -34.662  27.436   6.045  0.00  0.00    +0.145 HD
ATOM     15  H   UNL     1     -33.210  26.550   5.931  0.00  0.00    +0.145 HD
ENDBRANCH   4   7
BRANCH   2  16
ATOM     16  N   UNL     1     -36.209  23.471   1.118  0.00  0.00    +0.386 N 
ATOM     17  H   UNL     1     -35.356  22.934   0.960  0.00  0.00    -0.089 HD
ATOM     18  H   UNL     1     -35.993  24.296   1.678  0.00  0.00    -0.089 HD
ATOM     19  H   UNL     1     -36.599  23.762   0.221  0.00  0.00    -0.089 HD
ENDBRANCH   2  16
BRANCH   3  20
ATOM     20  O   UNL     1     -38.452  20.625   1.516  0.00  0.00    -0.384 OA
ATOM     21  H   UNL     1     -39.022  21.253   1.989  0.00  0.00    +0.210 HD
ENDBRANCH   3  20
BRANCH   5  22
ATOM     22  C   UNL     1     -34.760  20.422   1.397  0.00  0.00    +0.169 C 
BRANCH  22  23
ATOM     23  O   UNL     1     -34.062  19.285   1.880  0.00  0.00    -0.379 OA
ATOM     24  H   UNL     1     -33.317  19.573   2.430  0.00  0.00    +0.211 HD
ENDBRANCH  22  23
ENDBRANCH   5  22
TORSDOF 5
ENDMDL
