MODEL 1
REMARK VINA RESULT:      -6.5      0.000      0.000
REMARK  Name = 197459
REMARK  8 active torsions:
REMARK  status: ('A' for Active; 'I' for Inactive)
REMARK    1  A    between atoms: N_1  and  C_12
REMARK    2  A    between atoms: C_9  and  C_27
REMARK    3  A    between atoms: C_11  and  O_20
REMARK    4  A    between atoms: C_13  and  O_22
REMARK    5  A    between atoms: C_14  and  C_17
REMARK    6  A    between atoms: C_28  and  C_29
REMARK    7  A    between atoms: C_29  and  C_30
REMARK    8  A    between atoms: C_30  and  C_31
REMARK                            x       y       z     vdW  Elec       q    Type
REMARK                         _______ _______ _______ _____ _____    ______ ____
ROOT
ATOM      1  N   UNL     1     -38.014  24.842   2.899  0.00  0.00    -0.236 N 
ATOM      2  N   UNL     1     -37.792  22.623   2.977  0.00  0.00    -0.240 NA
ATOM      3  N   UNL     1     -36.154  25.496   4.319  0.00  0.00    -0.316 NA
ATOM      4  N   UNL     1     -34.943  23.545   5.148  0.00  0.00    -0.317 NA
ATOM      5  C   UNL     1     -36.933  24.596   3.699  0.00  0.00    +0.221 C 
ATOM      6  C   UNL     1     -38.494  23.625   2.491  0.00  0.00    +0.224 C 
ATOM      7  C   UNL     1     -36.813  23.217   3.734  0.00  0.00    +0.167 C 
ATOM      8  C   UNL     1     -35.770  22.696   4.494  0.00  0.00    +0.211 C 
ATOM      9  C   UNL     1     -35.183  24.873   5.022  0.00  0.00    +0.188 C 
ATOM     10  N   UNL     1     -35.573  21.307   4.587  0.00  0.00    -0.331 N 
ATOM     11  H   UNL     1     -34.831  20.951   5.127  0.00  0.00    +0.145 HD
ATOM     12  H   UNL     1     -36.175  20.692   4.110  0.00  0.00    +0.145 HD
ENDROOT
BRANCH   1  15
ATOM     13  O   UNL     1     -39.952  26.224   2.922  0.00  0.00    -0.326 OA
ATOM     14  C   UNL     1     -38.483  26.466   1.049  0.00  0.00    +0.187 C 
ATOM     15  C   UNL     1     -38.562  26.152   2.539  0.00  0.00    +0.226 C 
ATOM     16  C   UNL     1     -39.890  26.168   0.567  0.00  0.00    +0.178 C 
ATOM     17  C   UNL     1     -40.726  26.571   1.766  0.00  0.00    +0.221 C 
BRANCH  17  20
ATOM     18  O   UNL     1     -42.931  26.166   2.577  0.00  0.00    -0.273 OA
ATOM     19  N   UNL     1     -42.002  24.637   1.131  0.00  0.00    -0.327 N 
ATOM     20  C   UNL     1     -41.997  25.794   1.872  0.00  0.00    +0.249 C 
ATOM     21  H   UNL     1     -42.796  24.053   1.135  0.00  0.00    +0.145 HD
ATOM     22  H   UNL     1     -41.212  24.389   0.597  0.00  0.00    +0.145 HD
ENDBRANCH  17  20
BRANCH  14  23
ATOM     23  O   UNL     1     -38.192  27.858   0.912  0.00  0.00    -0.378 OA
ATOM     24  H   UNL     1     -38.278  28.115  -0.018  0.00  0.00    +0.211 HD
ENDBRANCH  14  23
BRANCH  16  25
ATOM     25  O   UNL     1     -40.222  26.898  -0.596  0.00  0.00    -0.379 OA
ATOM     26  H   UNL     1     -39.630  27.661  -0.681  0.00  0.00    +0.211 HD
ENDBRANCH  16  25
ENDBRANCH   1  15
BRANCH   9  27
ATOM     27  C   UNL     1     -34.288  25.729   5.725  0.00  0.00    +0.032 C 
ATOM     28  C   UNL     1     -33.534  26.459   6.323  0.00  0.00    -0.074 C 
BRANCH  28  29
ATOM     29  C   UNL     1     -32.619  27.352   7.048  0.00  0.00    +0.077 C 
BRANCH  29  30
ATOM     30  C   UNL     1     -31.876  28.305   6.110  0.00  0.00    +0.014 C 
BRANCH  30  31
ATOM     31  C   UNL     1     -31.608  29.673   6.742  0.00  0.00    +0.001 C 
ATOM     32  C   UNL     1     -31.885  30.802   5.761  0.00  0.00    +0.000 C 
ENDBRANCH  30  31
ENDBRANCH  29  30
ENDBRANCH  28  29
ENDBRANCH   9  27
TORSDOF 8
ENDMDL
MODEL 2
REMARK VINA RESULT:      -6.3      4.144      6.991
REMARK  Name = 197459
REMARK  8 active torsions:
REMARK  status: ('A' for Active; 'I' for Inactive)
REMARK    1  A    between atoms: N_1  and  C_12
REMARK    2  A    between atoms: C_9  and  C_27
REMARK    3  A    between atoms: C_11  and  O_20
REMARK    4  A    between atoms: C_13  and  O_22
REMARK    5  A    between atoms: C_14  and  C_17
REMARK    6  A    between atoms: C_28  and  C_29
REMARK    7  A    between atoms: C_29  and  C_30
REMARK    8  A    between atoms: C_30  and  C_31
REMARK                            x       y       z     vdW  Elec       q    Type
REMARK                         _______ _______ _______ _____ _____    ______ ____
ROOT
ATOM      1  N   UNL     1     -35.955  24.411   2.314  0.00  0.00    -0.236 N 
ATOM      2  N   UNL     1     -38.123  23.897   2.440  0.00  0.00    -0.240 NA
ATOM      3  N   UNL     1     -35.023  22.196   1.960  0.00  0.00    -0.316 NA
ATOM      4  N   UNL     1     -36.773  20.496   1.902  0.00  0.00    -0.317 NA
ATOM      5  C   UNL     1     -36.034  23.056   2.154  0.00  0.00    +0.221 C 
ATOM      6  C   UNL     1     -37.236  24.869   2.483  0.00  0.00    +0.224 C 
ATOM      7  C   UNL     1     -37.385  22.759   2.234  0.00  0.00    +0.167 C 
ATOM      8  C   UNL     1     -37.742  21.420   2.101  0.00  0.00    +0.211 C 
ATOM      9  C   UNL     1     -35.493  20.935   1.845  0.00  0.00    +0.188 C 
ATOM     10  N   UNL     1     -39.090  21.027   2.170  0.00  0.00    -0.331 N 
ATOM     11  H   UNL     1     -39.331  20.078   2.072  0.00  0.00    +0.145 HD
ATOM     12  H   UNL     1     -39.793  21.701   2.313  0.00  0.00    +0.145 HD
ENDROOT
BRANCH   1  15
ATOM     13  O   UNL     1     -34.047  25.088   3.567  0.00  0.00    -0.326 OA
ATOM     14  C   UNL     1     -34.997  26.717   2.094  0.00  0.00    +0.187 C 
ATOM     15  C   UNL     1     -34.739  25.228   2.308  0.00  0.00    +0.226 C 
ATOM     16  C   UNL     1     -34.912  27.279   3.499  0.00  0.00    +0.178 C 
ATOM     17  C   UNL     1     -33.857  26.392   4.131  0.00  0.00    +0.221 C 
BRANCH  17  20
ATOM     18  O   UNL     1     -34.915  25.517   6.080  0.00  0.00    -0.273 OA
ATOM     19  N   UNL     1     -33.156  26.974   6.353  0.00  0.00    -0.327 N 
ATOM     20  C   UNL     1     -34.039  26.235   5.604  0.00  0.00    +0.249 C 
ATOM     21  H   UNL     1     -33.195  26.939   7.337  0.00  0.00    +0.145 HD
ATOM     22  H   UNL     1     -32.485  27.541   5.908  0.00  0.00    +0.145 HD
ENDBRANCH  17  20
BRANCH  14  23
ATOM     23  O   UNL     1     -33.937  27.230   1.286  0.00  0.00    -0.378 OA
ATOM     24  H   UNL     1     -34.072  26.956   0.365  0.00  0.00    +0.211 HD
ENDBRANCH  14  23
BRANCH  16  25
ATOM     25  O   UNL     1     -34.550  28.644   3.509  0.00  0.00    -0.379 OA
ATOM     26  H   UNL     1     -34.872  29.070   2.699  0.00  0.00    +0.211 HD
ENDBRANCH  16  25
ENDBRANCH   1  15
BRANCH   9  27
ATOM     27  C   UNL     1     -34.507  19.928   1.634  0.00  0.00    +0.032 C 
ATOM     28  C   UNL     1     -33.676  19.072   1.450  0.00  0.00    -0.074 C 
BRANCH  28  29
ATOM     29  C   UNL     1     -32.667  18.027   1.224  0.00  0.00    +0.077 C 
BRANCH  29  30
ATOM     30  C   UNL     1     -31.320  18.608   0.791  0.00  0.00    +0.014 C 
BRANCH  30  31
ATOM     31  C   UNL     1     -31.457  19.932   0.034  0.00  0.00    +0.001 C 
ATOM     32  C   UNL     1     -30.171  20.290  -0.695  0.00  0.00    +0.000 C 
ENDBRANCH  30  31
ENDBRANCH  29  30
ENDBRANCH  28  29
ENDBRANCH   9  27
TORSDOF 8
ENDMDL
MODEL 3
REMARK VINA RESULT:      -6.3      3.787      6.732
REMARK  Name = 197459
REMARK  8 active torsions:
REMARK  status: ('A' for Active; 'I' for Inactive)
REMARK    1  A    between atoms: N_1  and  C_12
REMARK    2  A    between atoms: C_9  and  C_27
REMARK    3  A    between atoms: C_11  and  O_20
REMARK    4  A    between atoms: C_13  and  O_22
REMARK    5  A    between atoms: C_14  and  C_17
REMARK    6  A    between atoms: C_28  and  C_29
REMARK    7  A    between atoms: C_29  and  C_30
REMARK    8  A    between atoms: C_30  and  C_31
REMARK                            x       y       z     vdW  Elec       q    Type
REMARK                         _______ _______ _______ _____ _____    ______ ____
ROOT
ATOM      1  N   UNL     1     -35.320  25.088   3.271  0.00  0.00    -0.236 N 
ATOM      2  N   UNL     1     -35.784  24.618   5.403  0.00  0.00    -0.240 NA
ATOM      3  N   UNL     1     -35.079  22.836   2.393  0.00  0.00    -0.316 NA
ATOM      4  N   UNL     1     -35.433  21.162   4.134  0.00  0.00    -0.317 NA
ATOM      5  C   UNL     1     -35.314  23.725   3.370  0.00  0.00    +0.221 C 
ATOM      6  C   UNL     1     -35.606  25.578   4.519  0.00  0.00    +0.224 C 
ATOM      7  C   UNL     1     -35.604  23.455   4.697  0.00  0.00    +0.167 C 
ATOM      8  C   UNL     1     -35.660  22.115   5.069  0.00  0.00    +0.211 C 
ATOM      9  C   UNL     1     -35.160  21.576   2.873  0.00  0.00    +0.188 C 
ATOM     10  N   UNL     1     -35.948  21.749   6.395  0.00  0.00    -0.331 N 
ATOM     11  H   UNL     1     -35.986  20.798   6.645  0.00  0.00    +0.145 HD
ATOM     12  H   UNL     1     -36.113  22.443   7.073  0.00  0.00    +0.145 HD
ENDROOT
BRANCH   1  15
ATOM     13  O   UNL     1     -34.218  27.006   2.389  0.00  0.00    -0.326 OA
ATOM     14  C   UNL     1     -36.333  26.443   1.422  0.00  0.00    +0.187 C 
ATOM     15  C   UNL     1     -35.068  25.884   2.068  0.00  0.00    +0.226 C 
ATOM     16  C   UNL     1     -36.352  27.879   1.907  0.00  0.00    +0.178 C 
ATOM     17  C   UNL     1     -34.875  28.210   1.974  0.00  0.00    +0.221 C 
BRANCH  17  20
ATOM     18  O   UNL     1     -33.573  29.137   3.744  0.00  0.00    -0.273 OA
ATOM     19  N   UNL     1     -35.470  30.258   3.080  0.00  0.00    -0.327 N 
ATOM     20  C   UNL     1     -34.557  29.233   3.014  0.00  0.00    +0.249 C 
ATOM     21  H   UNL     1     -35.349  30.984   3.735  0.00  0.00    +0.145 HD
ATOM     22  H   UNL     1     -36.245  30.267   2.473  0.00  0.00    +0.145 HD
ENDBRANCH  17  20
BRANCH  14  23
ATOM     23  O   UNL     1     -36.155  26.395   0.006  0.00  0.00    -0.378 OA
ATOM     24  H   UNL     1     -36.381  25.510  -0.318  0.00  0.00    +0.211 HD
ENDBRANCH  14  23
BRANCH  16  25
ATOM     25  O   UNL     1     -37.060  28.730   1.029  0.00  0.00    -0.379 OA
ATOM     26  H   UNL     1     -36.527  28.893   0.236  0.00  0.00    +0.211 HD
ENDBRANCH  16  25
ENDBRANCH   1  15
BRANCH   9  27
ATOM     27  C   UNL     1     -34.929  20.540   1.923  0.00  0.00    +0.032 C 
ATOM     28  C   UNL     1     -34.731  19.658   1.122  0.00  0.00    -0.074 C 
BRANCH  28  29
ATOM     29  C   UNL     1     -34.486  18.583   0.151  0.00  0.00    +0.077 C 
BRANCH  29  30
ATOM     30  C   UNL     1     -33.443  17.581   0.648  0.00  0.00    +0.014 C 
BRANCH  30  31
ATOM     31  C   UNL     1     -32.259  18.252   1.350  0.00  0.00    +0.001 C 
ATOM     32  C   UNL     1     -31.301  18.876   0.348  0.00  0.00    +0.000 C 
ENDBRANCH  30  31
ENDBRANCH  29  30
ENDBRANCH  28  29
ENDBRANCH   9  27
TORSDOF 8
ENDMDL
MODEL 4
REMARK VINA RESULT:      -5.9      3.488      5.639
REMARK  Name = 197459
REMARK  8 active torsions:
REMARK  status: ('A' for Active; 'I' for Inactive)
REMARK    1  A    between atoms: N_1  and  C_12
REMARK    2  A    between atoms: C_9  and  C_27
REMARK    3  A    between atoms: C_11  and  O_20
REMARK    4  A    between atoms: C_13  and  O_22
REMARK    5  A    between atoms: C_14  and  C_17
REMARK    6  A    between atoms: C_28  and  C_29
REMARK    7  A    between atoms: C_29  and  C_30
REMARK    8  A    between atoms: C_30  and  C_31
REMARK                            x       y       z     vdW  Elec       q    Type
REMARK                         _______ _______ _______ _____ _____    ______ ____
ROOT
ATOM      1  N   UNL     1     -37.936  24.186   2.349  0.00  0.00    -0.236 N 
ATOM      2  N   UNL     1     -37.422  24.697   4.459  0.00  0.00    -0.240 NA
ATOM      3  N   UNL     1     -36.456  22.290   2.009  0.00  0.00    -0.316 NA
ATOM      4  N   UNL     1     -35.145  21.817   4.012  0.00  0.00    -0.317 NA
ATOM      5  C   UNL     1     -36.984  23.285   2.737  0.00  0.00    +0.221 C 
ATOM      6  C   UNL     1     -38.163  25.013   3.419  0.00  0.00    +0.224 C 
ATOM      7  C   UNL     1     -36.680  23.619   4.047  0.00  0.00    +0.167 C 
ATOM      8  C   UNL     1     -35.721  22.840   4.687  0.00  0.00    +0.211 C 
ATOM      9  C   UNL     1     -35.543  21.609   2.734  0.00  0.00    +0.188 C 
ATOM     10  N   UNL     1     -35.350  23.107   6.016  0.00  0.00    -0.331 N 
ATOM     11  H   UNL     1     -34.671  22.548   6.459  0.00  0.00    +0.145 HD
ATOM     12  H   UNL     1     -35.770  23.850   6.505  0.00  0.00    +0.145 HD
ENDROOT
BRANCH   1  15
ATOM     13  O   UNL     1     -39.025  25.618   0.789  0.00  0.00    -0.326 OA
ATOM     14  C   UNL     1     -39.819  23.364   0.914  0.00  0.00    +0.187 C 
ATOM     15  C   UNL     1     -38.594  24.264   1.042  0.00  0.00    +0.226 C 
ATOM     16  C   UNL     1     -40.969  24.330   1.125  0.00  0.00    +0.178 C 
ATOM     17  C   UNL     1     -40.430  25.603   0.505  0.00  0.00    +0.221 C 
BRANCH  17  20
ATOM     18  O   UNL     1     -40.682  27.962   0.751  0.00  0.00    -0.273 OA
ATOM     19  N   UNL     1     -41.851  26.584   2.175  0.00  0.00    -0.327 N 
ATOM     20  C   UNL     1     -40.990  26.836   1.134  0.00  0.00    +0.249 C 
ATOM     21  H   UNL     1     -42.274  27.332   2.657  0.00  0.00    +0.145 HD
ATOM     22  H   UNL     1     -42.045  25.656   2.441  0.00  0.00    +0.145 HD
ENDBRANCH  17  20
BRANCH  14  23
ATOM     23  O   UNL     1     -39.840  22.845  -0.416  0.00  0.00    -0.378 OA
ATOM     24  H   UNL     1     -38.935  22.810  -0.763  0.00  0.00    +0.211 HD
ENDBRANCH  14  23
BRANCH  16  25
ATOM     25  O   UNL     1     -42.159  23.887   0.507  0.00  0.00    -0.379 OA
ATOM     26  H   UNL     1     -42.789  24.622   0.453  0.00  0.00    +0.211 HD
ENDBRANCH  16  25
ENDBRANCH   1  15
BRANCH   9  27
ATOM     27  C   UNL     1     -34.911  20.522   2.063  0.00  0.00    +0.032 C 
ATOM     28  C   UNL     1     -34.382  19.597   1.496  0.00  0.00    -0.074 C 
BRANCH  28  29
ATOM     29  C   UNL     1     -33.741  18.468   0.808  0.00  0.00    +0.077 C 
BRANCH  29  30
ATOM     30  C   UNL     1     -32.412  18.075   1.455  0.00  0.00    +0.014 C 
BRANCH  30  31
ATOM     31  C   UNL     1     -31.204  18.377   0.564  0.00  0.00    +0.001 C 
ATOM     32  C   UNL     1     -31.275  19.784  -0.009  0.00  0.00    +0.000 C 
ENDBRANCH  30  31
ENDBRANCH  29  30
ENDBRANCH  28  29
ENDBRANCH   9  27
TORSDOF 8
ENDMDL
MODEL 5
REMARK VINA RESULT:      -5.9      4.631      6.649
REMARK  Name = 197459
REMARK  8 active torsions:
REMARK  status: ('A' for Active; 'I' for Inactive)
REMARK    1  A    between atoms: N_1  and  C_12
REMARK    2  A    between atoms: C_9  and  C_27
REMARK    3  A    between atoms: C_11  and  O_20
REMARK    4  A    between atoms: C_13  and  O_22
REMARK    5  A    between atoms: C_14  and  C_17
REMARK    6  A    between atoms: C_28  and  C_29
REMARK    7  A    between atoms: C_29  and  C_30
REMARK    8  A    between atoms: C_30  and  C_31
REMARK                            x       y       z     vdW  Elec       q    Type
REMARK                         _______ _______ _______ _____ _____    ______ ____
ROOT
ATOM      1  N   UNL     1     -34.589  26.205   3.900  0.00  0.00    -0.236 N 
ATOM      2  N   UNL     1     -32.479  26.271   3.177  0.00  0.00    -0.240 NA
ATOM      3  N   UNL     1     -35.359  28.377   3.129  0.00  0.00    -0.316 NA
ATOM      4  N   UNL     1     -33.583  29.590   1.975  0.00  0.00    -0.317 NA
ATOM      5  C   UNL     1     -34.437  27.414   3.281  0.00  0.00    +0.221 C 
ATOM      6  C   UNL     1     -33.385  25.556   3.811  0.00  0.00    +0.224 C 
ATOM      7  C   UNL     1     -33.123  27.434   2.840  0.00  0.00    +0.167 C 
ATOM      8  C   UNL     1     -32.705  28.577   2.165  0.00  0.00    +0.211 C 
ATOM      9  C   UNL     1     -34.837  29.429   2.463  0.00  0.00    +0.188 C 
ATOM     10  N   UNL     1     -31.388  28.684   1.682  0.00  0.00    -0.331 N 
ATOM     11  H   UNL     1     -31.104  29.496   1.205  0.00  0.00    +0.145 HD
ATOM     12  H   UNL     1     -30.752  27.946   1.820  0.00  0.00    +0.145 HD
ENDROOT
BRANCH   1  15
ATOM     13  O   UNL     1     -35.476  24.559   5.373  0.00  0.00    -0.326 OA
ATOM     14  C   UNL     1     -36.874  25.236   3.553  0.00  0.00    +0.187 C 
ATOM     15  C   UNL     1     -35.802  25.691   4.539  0.00  0.00    +0.226 C 
ATOM     16  C   UNL     1     -36.701  23.730   3.539  0.00  0.00    +0.178 C 
ATOM     17  C   UNL     1     -36.284  23.446   4.969  0.00  0.00    +0.221 C 
BRANCH  17  20
ATOM     18  O   UNL     1     -34.638  22.086   6.029  0.00  0.00    -0.273 OA
ATOM     19  N   UNL     1     -35.555  21.349   4.052  0.00  0.00    -0.327 N 
ATOM     20  C   UNL     1     -35.413  22.239   5.089  0.00  0.00    +0.249 C 
ATOM     21  H   UNL     1     -35.023  20.519   4.039  0.00  0.00    +0.145 HD
ATOM     22  H   UNL     1     -36.186  21.539   3.321  0.00  0.00    +0.145 HD
ENDBRANCH  17  20
BRANCH  14  23
ATOM     23  O   UNL     1     -38.145  25.588   4.101  0.00  0.00    -0.378 OA
ATOM     24  H   UNL     1     -38.242  25.185   4.978  0.00  0.00    +0.211 HD
ENDBRANCH  14  23
BRANCH  16  25
ATOM     25  O   UNL     1     -37.889  23.058   3.177  0.00  0.00    -0.379 OA
ATOM     26  H   UNL     1     -38.372  23.585   2.521  0.00  0.00    +0.211 HD
ENDBRANCH  16  25
ENDBRANCH   1  15
BRANCH   9  27
ATOM     27  C   UNL     1     -35.727  30.519   2.240  0.00  0.00    +0.032 C 
ATOM     28  C   UNL     1     -36.484  31.442   2.058  0.00  0.00    -0.074 C 
BRANCH  28  29
ATOM     29  C   UNL     1     -37.407  32.564   1.839  0.00  0.00    +0.077 C 
BRANCH  29  30
ATOM     30  C   UNL     1     -36.776  33.679   1.004  0.00  0.00    +0.014 C 
BRANCH  30  31
ATOM     31  C   UNL     1     -37.219  35.077   1.444  0.00  0.00    +0.001 C 
ATOM     32  C   UNL     1     -38.555  35.033   2.168  0.00  0.00    +0.000 C 
ENDBRANCH  30  31
ENDBRANCH  29  30
ENDBRANCH  28  29
ENDBRANCH   9  27
TORSDOF 8
ENDMDL
MODEL 6
REMARK VINA RESULT:      -5.9      2.525      3.659
REMARK  Name = 197459
REMARK  8 active torsions:
REMARK  status: ('A' for Active; 'I' for Inactive)
REMARK    1  A    between atoms: N_1  and  C_12
REMARK    2  A    between atoms: C_9  and  C_27
REMARK    3  A    between atoms: C_11  and  O_20
REMARK    4  A    between atoms: C_13  and  O_22
REMARK    5  A    between atoms: C_14  and  C_17
REMARK    6  A    between atoms: C_28  and  C_29
REMARK    7  A    between atoms: C_29  and  C_30
REMARK    8  A    between atoms: C_30  and  C_31
REMARK                            x       y       z     vdW  Elec       q    Type
REMARK                         _______ _______ _______ _____ _____    ______ ____
ROOT
ATOM      1  N   UNL     1     -36.214  24.246   2.112  0.00  0.00    -0.236 N 
ATOM      2  N   UNL     1     -36.838  22.396   3.191  0.00  0.00    -0.240 NA
ATOM      3  N   UNL     1     -34.928  25.334   3.863  0.00  0.00    -0.316 NA
ATOM      4  N   UNL     1     -34.894  23.993   5.902  0.00  0.00    -0.317 NA
ATOM      5  C   UNL     1     -35.678  24.339   3.366  0.00  0.00    +0.221 C 
ATOM      6  C   UNL     1     -36.901  23.062   2.058  0.00  0.00    +0.224 C 
ATOM      7  C   UNL     1     -36.076  23.183   4.018  0.00  0.00    +0.167 C 
ATOM      8  C   UNL     1     -35.655  23.028   5.335  0.00  0.00    +0.211 C 
ATOM      9  C   UNL     1     -34.582  25.071   5.142  0.00  0.00    +0.188 C 
ATOM     10  N   UNL     1     -36.012  21.885   6.073  0.00  0.00    -0.331 N 
ATOM     11  H   UNL     1     -35.707  21.786   7.003  0.00  0.00    +0.145 HD
ATOM     12  H   UNL     1     -36.565  21.184   5.659  0.00  0.00    +0.145 HD
ENDROOT
BRANCH   1  15
ATOM     13  O   UNL     1     -34.905  26.028   1.228  0.00  0.00    -0.326 OA
ATOM     14  C   UNL     1     -37.272  26.172   0.906  0.00  0.00    +0.187 C 
ATOM     15  C   UNL     1     -36.085  25.221   1.026  0.00  0.00    +0.226 C 
ATOM     16  C   UNL     1     -36.766  27.429   1.584  0.00  0.00    +0.178 C 
ATOM     17  C   UNL     1     -35.292  27.409   1.230  0.00  0.00    +0.221 C 
BRANCH  17  20
ATOM     18  O   UNL     1     -33.230  28.226   2.105  0.00  0.00    -0.273 OA
ATOM     19  N   UNL     1     -35.131  28.473   3.377  0.00  0.00    -0.327 N 
ATOM     20  C   UNL     1     -34.439  28.074   2.259  0.00  0.00    +0.249 C 
ATOM     21  H   UNL     1     -34.657  28.923   4.115  0.00  0.00    +0.145 HD
ATOM     22  H   UNL     1     -36.100  28.309   3.443  0.00  0.00    +0.145 HD
ENDBRANCH  17  20
BRANCH  14  23
ATOM     23  O   UNL     1     -37.499  26.410  -0.483  0.00  0.00    -0.378 OA
ATOM     24  H   UNL     1     -37.025  27.211  -0.755  0.00  0.00    +0.211 HD
ENDBRANCH  14  23
BRANCH  16  25
ATOM     25  O   UNL     1     -37.420  28.590   1.116  0.00  0.00    -0.379 OA
ATOM     26  H   UNL     1     -37.768  29.093   1.869  0.00  0.00    +0.211 HD
ENDBRANCH  16  25
ENDBRANCH   1  15
BRANCH   9  27
ATOM     27  C   UNL     1     -33.779  26.060   5.778  0.00  0.00    +0.032 C 
ATOM     28  C   UNL     1     -33.100  26.896   6.324  0.00  0.00    -0.074 C 
BRANCH  28  29
ATOM     29  C   UNL     1     -32.276  27.913   6.992  0.00  0.00    +0.077 C 
BRANCH  29  30
ATOM     30  C   UNL     1     -31.150  28.427   6.094  0.00  0.00    +0.014 C 
BRANCH  30  31
ATOM     31  C   UNL     1     -30.994  29.949   6.145  0.00  0.00    +0.001 C 
ATOM     32  C   UNL     1     -32.131  30.648   5.416  0.00  0.00    +0.000 C 
ENDBRANCH  30  31
ENDBRANCH  29  30
ENDBRANCH  28  29
ENDBRANCH   9  27
TORSDOF 8
ENDMDL
MODEL 7
REMARK VINA RESULT:      -5.9      6.911      9.093
REMARK  Name = 197459
REMARK  8 active torsions:
REMARK  status: ('A' for Active; 'I' for Inactive)
REMARK    1  A    between atoms: N_1  and  C_12
REMARK    2  A    between atoms: C_9  and  C_27
REMARK    3  A    between atoms: C_11  and  O_20
REMARK    4  A    between atoms: C_13  and  O_22
REMARK    5  A    between atoms: C_14  and  C_17
REMARK    6  A    between atoms: C_28  and  C_29
REMARK    7  A    between atoms: C_29  and  C_30
REMARK    8  A    between atoms: C_30  and  C_31
REMARK                            x       y       z     vdW  Elec       q    Type
REMARK                         _______ _______ _______ _____ _____    ______ ____
ROOT
ATOM      1  N   UNL     1     -33.597  18.459   0.340  0.00  0.00    -0.236 N 
ATOM      2  N   UNL     1     -35.496  18.204  -0.803  0.00  0.00    -0.240 NA
ATOM      3  N   UNL     1     -34.373  19.931   2.110  0.00  0.00    -0.316 NA
ATOM      4  N   UNL     1     -36.746  20.442   1.862  0.00  0.00    -0.317 NA
ATOM      5  C   UNL     1     -34.540  19.197   0.999  0.00  0.00    +0.221 C 
ATOM      6  C   UNL     1     -34.221  17.883  -0.736  0.00  0.00    +0.224 C 
ATOM      7  C   UNL     1     -35.708  19.024   0.276  0.00  0.00    +0.167 C 
ATOM      8  C   UNL     1     -36.841  19.683   0.745  0.00  0.00    +0.211 C 
ATOM      9  C   UNL     1     -35.536  20.518   2.466  0.00  0.00    +0.188 C 
ATOM     10  N   UNL     1     -38.070  19.565   0.073  0.00  0.00    -0.331 N 
ATOM     11  H   UNL     1     -38.865  20.034   0.416  0.00  0.00    +0.145 HD
ATOM     12  H   UNL     1     -38.137  19.012  -0.738  0.00  0.00    +0.145 HD
ENDROOT
BRANCH   1  15
ATOM     13  O   UNL     1     -31.502  19.570   0.558  0.00  0.00    -0.326 OA
ATOM     14  C   UNL     1     -31.437  17.284  -0.146  0.00  0.00    +0.187 C 
ATOM     15  C   UNL     1     -32.186  18.307   0.703  0.00  0.00    +0.226 C 
ATOM     16  C   UNL     1     -30.694  18.152  -1.141  0.00  0.00    +0.178 C 
ATOM     17  C   UNL     1     -30.381  19.383  -0.315  0.00  0.00    +0.221 C 
BRANCH  17  20
ATOM     18  O   UNL     1     -30.591  21.729  -0.691  0.00  0.00    -0.273 OA
ATOM     19  N   UNL     1     -29.858  20.406  -2.425  0.00  0.00    -0.327 N 
ATOM     20  C   UNL     1     -30.289  20.625  -1.138  0.00  0.00    +0.249 C 
ATOM     21  H   UNL     1     -29.764  21.163  -3.048  0.00  0.00    +0.145 HD
ATOM     22  H   UNL     1     -29.644  19.493  -2.724  0.00  0.00    +0.145 HD
ENDBRANCH  17  20
BRANCH  14  23
ATOM     23  O   UNL     1     -30.518  16.601   0.707  0.00  0.00    -0.378 OA
ATOM     24  H   UNL     1     -30.825  16.658   1.625  0.00  0.00    +0.211 HD
ENDBRANCH  14  23
BRANCH  16  25
ATOM     25  O   UNL     1     -29.532  17.521  -1.637  0.00  0.00    -0.379 OA
ATOM     26  H   UNL     1     -29.556  16.577  -1.418  0.00  0.00    +0.211 HD
ENDBRANCH  16  25
ENDBRANCH   1  15
BRANCH   9  27
ATOM     27  C   UNL     1     -35.483  21.327   3.637  0.00  0.00    +0.032 C 
ATOM     28  C   UNL     1     -35.440  22.018   4.627  0.00  0.00    -0.074 C 
BRANCH  28  29
ATOM     29  C   UNL     1     -35.387  22.863   5.828  0.00  0.00    +0.077 C 
BRANCH  29  30
ATOM     30  C   UNL     1     -35.586  24.345   5.503  0.00  0.00    +0.014 C 
BRANCH  30  31
ATOM     31  C   UNL     1     -34.296  25.033   5.049  0.00  0.00    +0.001 C 
ATOM     32  C   UNL     1     -33.951  26.212   5.946  0.00  0.00    +0.000 C 
ENDBRANCH  30  31
ENDBRANCH  29  30
ENDBRANCH  28  29
ENDBRANCH   9  27
TORSDOF 8
ENDMDL
MODEL 8
REMARK VINA RESULT:      -5.8      4.167      6.921
REMARK  Name = 197459
REMARK  8 active torsions:
REMARK  status: ('A' for Active; 'I' for Inactive)
REMARK    1  A    between atoms: N_1  and  C_12
REMARK    2  A    between atoms: C_9  and  C_27
REMARK    3  A    between atoms: C_11  and  O_20
REMARK    4  A    between atoms: C_13  and  O_22
REMARK    5  A    between atoms: C_14  and  C_17
REMARK    6  A    between atoms: C_28  and  C_29
REMARK    7  A    between atoms: C_29  and  C_30
REMARK    8  A    between atoms: C_30  and  C_31
REMARK                            x       y       z     vdW  Elec       q    Type
REMARK                         _______ _______ _______ _____ _____    ______ ____
ROOT
ATOM      1  N   UNL     1     -36.834  24.196   3.661  0.00  0.00    -0.236 N 
ATOM      2  N   UNL     1     -38.898  23.744   2.941  0.00  0.00    -0.240 NA
ATOM      3  N   UNL     1     -35.669  22.226   2.845  0.00  0.00    -0.316 NA
ATOM      4  N   UNL     1     -37.188  20.721   1.669  0.00  0.00    -0.317 NA
ATOM      5  C   UNL     1     -36.757  22.992   3.017  0.00  0.00    +0.221 C 
ATOM      6  C   UNL     1     -38.141  24.605   3.588  0.00  0.00    +0.224 C 
ATOM      7  C   UNL     1     -38.045  22.731   2.578  0.00  0.00    +0.167 C 
ATOM      8  C   UNL     1     -38.242  21.544   1.881  0.00  0.00    +0.211 C 
ATOM      9  C   UNL     1     -35.985  21.107   2.157  0.00  0.00    +0.188 C 
ATOM     10  N   UNL     1     -39.517  21.197   1.398  0.00  0.00    -0.331 N 
ATOM     11  H   UNL     1     -39.644  20.355   0.905  0.00  0.00    +0.145 HD
ATOM     12  H   UNL     1     -40.281  21.797   1.553  0.00  0.00    +0.145 HD
ENDROOT
BRANCH   1  15
ATOM     13  O   UNL     1     -35.875  26.336   4.070  0.00  0.00    -0.326 OA
ATOM     14  C   UNL     1     -34.353  24.507   3.819  0.00  0.00    +0.187 C 
ATOM     15  C   UNL     1     -35.738  24.919   4.309  0.00  0.00    +0.226 C 
ATOM     16  C   UNL     1     -33.998  25.611   2.843  0.00  0.00    +0.178 C 
ATOM     17  C   UNL     1     -34.662  26.818   3.477  0.00  0.00    +0.221 C 
BRANCH  17  20
ATOM     18  O   UNL     1     -36.215  27.895   2.023  0.00  0.00    -0.273 OA
ATOM     19  N   UNL     1     -34.059  28.695   2.104  0.00  0.00    -0.327 N 
ATOM     20  C   UNL     1     -35.074  27.845   2.474  0.00  0.00    +0.249 C 
ATOM     21  H   UNL     1     -34.230  29.409   1.446  0.00  0.00    +0.145 HD
ATOM     22  H   UNL     1     -33.162  28.591   2.495  0.00  0.00    +0.145 HD
ENDBRANCH  17  20
BRANCH  14  23
ATOM     23  O   UNL     1     -33.470  24.530   4.942  0.00  0.00    -0.378 OA
ATOM     24  H   UNL     1     -32.948  23.713   4.959  0.00  0.00    +0.211 HD
ENDBRANCH  14  23
BRANCH  16  25
ATOM     25  O   UNL     1     -32.602  25.772   2.702  0.00  0.00    -0.379 OA
ATOM     26  H   UNL     1     -32.342  25.561   1.791  0.00  0.00    +0.211 HD
ENDBRANCH  16  25
ENDBRANCH   1  15
BRANCH   9  27
ATOM     27  C   UNL     1     -34.905  20.212   1.910  0.00  0.00    +0.032 C 
ATOM     28  C   UNL     1     -33.992  19.451   1.695  0.00  0.00    -0.074 C 
BRANCH  28  29
ATOM     29  C   UNL     1     -32.884  18.523   1.429  0.00  0.00    +0.077 C 
BRANCH  29  30
ATOM     30  C   UNL     1     -31.784  19.163   0.581  0.00  0.00    +0.014 C 
BRANCH  30  31
ATOM     31  C   UNL     1     -30.542  18.278   0.450  0.00  0.00    +0.001 C 
ATOM     32  C   UNL     1     -29.384  19.036  -0.181  0.00  0.00    +0.000 C 
ENDBRANCH  30  31
ENDBRANCH  29  30
ENDBRANCH  28  29
ENDBRANCH   9  27
TORSDOF 8
ENDMDL
MODEL 9
REMARK VINA RESULT:      -5.7      3.079      7.268
REMARK  Name = 197459
REMARK  8 active torsions:
REMARK  status: ('A' for Active; 'I' for Inactive)
REMARK    1  A    between atoms: N_1  and  C_12
REMARK    2  A    between atoms: C_9  and  C_27
REMARK    3  A    between atoms: C_11  and  O_20
REMARK    4  A    between atoms: C_13  and  O_22
REMARK    5  A    between atoms: C_14  and  C_17
REMARK    6  A    between atoms: C_28  and  C_29
REMARK    7  A    between atoms: C_29  and  C_30
REMARK    8  A    between atoms: C_30  and  C_31
REMARK                            x       y       z     vdW  Elec       q    Type
REMARK                         _______ _______ _______ _____ _____    ______ ____
ROOT
ATOM      1  N   UNL     1     -35.778  24.594   4.217  0.00  0.00    -0.236 N 
ATOM      2  N   UNL     1     -35.685  22.480   3.509  0.00  0.00    -0.240 NA
ATOM      3  N   UNL     1     -38.054  25.148   3.572  0.00  0.00    -0.316 NA
ATOM      4  N   UNL     1     -39.159  23.253   2.501  0.00  0.00    -0.317 NA
ATOM      5  C   UNL     1     -37.001  24.322   3.671  0.00  0.00    +0.221 C 
ATOM      6  C   UNL     1     -35.024  23.456   4.095  0.00  0.00    +0.224 C 
ATOM      7  C   UNL     1     -36.923  23.008   3.239  0.00  0.00    +0.167 C 
ATOM      8  C   UNL     1     -38.057  22.476   2.634  0.00  0.00    +0.211 C 
ATOM      9  C   UNL     1     -39.089  24.522   2.971  0.00  0.00    +0.188 C 
ATOM     10  N   UNL     1     -38.067  21.151   2.166  0.00  0.00    -0.331 N 
ATOM     11  H   UNL     1     -38.876  20.786   1.741  0.00  0.00    +0.145 HD
ATOM     12  H   UNL     1     -37.266  20.588   2.264  0.00  0.00    +0.145 HD
ENDROOT
BRANCH   1  15
ATOM     13  O   UNL     1     -35.636  26.953   3.927  0.00  0.00    -0.326 OA
ATOM     14  C   UNL     1     -33.854  25.910   5.137  0.00  0.00    +0.187 C 
ATOM     15  C   UNL     1     -35.346  25.857   4.820  0.00  0.00    +0.226 C 
ATOM     16  C   UNL     1     -33.293  26.711   3.978  0.00  0.00    +0.178 C 
ATOM     17  C   UNL     1     -34.423  27.677   3.685  0.00  0.00    +0.221 C 
BRANCH  17  20
ATOM     18  O   UNL     1     -33.459  28.399   1.627  0.00  0.00    -0.273 OA
ATOM     19  N   UNL     1     -35.740  28.119   1.725  0.00  0.00    -0.327 N 
ATOM     20  C   UNL     1     -34.471  28.094   2.252  0.00  0.00    +0.249 C 
ATOM     21  H   UNL     1     -35.878  28.381   0.785  0.00  0.00    +0.145 HD
ATOM     22  H   UNL     1     -36.512  27.875   2.286  0.00  0.00    +0.145 HD
ENDBRANCH  17  20
BRANCH  14  23
ATOM     23  O   UNL     1     -33.695  26.626   6.362  0.00  0.00    -0.378 OA
ATOM     24  H   UNL     1     -32.896  26.316   6.815  0.00  0.00    +0.211 HD
ENDBRANCH  14  23
BRANCH  16  25
ATOM     25  O   UNL     1     -32.090  27.369   4.316  0.00  0.00    -0.379 OA
ATOM     26  H   UNL     1     -31.815  27.940   3.581  0.00  0.00    +0.211 HD
ENDBRANCH  16  25
ENDBRANCH   1  15
BRANCH   9  27
ATOM     27  C   UNL     1     -40.270  25.302   2.811  0.00  0.00    +0.032 C 
ATOM     28  C   UNL     1     -41.268  25.969   2.675  0.00  0.00    -0.074 C 
BRANCH  28  29
ATOM     29  C   UNL     1     -42.480  26.784   2.511  0.00  0.00    +0.077 C 
BRANCH  29  30
ATOM     30  C   UNL     1     -43.108  27.162   3.854  0.00  0.00    +0.014 C 
BRANCH  30  31
ATOM     31  C   UNL     1     -44.625  27.347   3.770  0.00  0.00    +0.001 C 
ATOM     32  C   UNL     1     -45.338  26.592   4.882  0.00  0.00    +0.000 C 
ENDBRANCH  30  31
ENDBRANCH  29  30
ENDBRANCH  28  29
ENDBRANCH   9  27
TORSDOF 8
ENDMDL
