MODEL 1
REMARK VINA RESULT:      -6.8      0.000      0.000
REMARK  Name = 5487703
REMARK  2 active torsions:
REMARK  status: ('A' for Active; 'I' for Inactive)
REMARK    1  A    between atoms: C_13  and  C_21
REMARK    2  A    between atoms: C_21  and  O_22
REMARK                            x       y       z     vdW  Elec       q    Type
REMARK                         _______ _______ _______ _____ _____    ______ ____
ROOT
ATOM      1  O   UNL     1     -31.497  27.783   6.310  0.00  0.00    -0.264 OA
ATOM      2  O   UNL     1     -32.835  31.155   3.450  0.00  0.00    -0.247 OA
ATOM      3  N   UNL     1     -34.969  27.003   3.238  0.00  0.00    -0.383 NA
ATOM      4  N   UNL     1     -33.325  26.077   5.282  0.00  0.00    -0.395 NA
ATOM      5  N   UNL     1     -33.889  29.117   3.339  0.00  0.00    -0.280 N 
ATOM      6  N   UNL     1     -32.156  29.482   4.882  0.00  0.00    -0.272 N 
ATOM      7  C   UNL     1     -35.085  25.744   3.698  0.00  0.00    +0.140 C 
ATOM      8  C   UNL     1     -34.253  25.276   4.733  0.00  0.00    +0.139 C 
ATOM      9  C   UNL     1     -36.177  23.575   3.612  0.00  0.00    -0.034 C 
ATOM     10  C   UNL     1     -34.036  27.799   3.794  0.00  0.00    +0.229 A 
ATOM     11  C   UNL     1     -33.232  27.330   4.802  0.00  0.00    +0.233 A 
ATOM     12  C   UNL     1     -36.035  24.884   3.154  0.00  0.00    +0.083 C 
ATOM     13  C   UNL     1     -35.356  23.115   4.631  0.00  0.00    +0.053 C 
ATOM     14  C   UNL     1     -34.402  23.966   5.184  0.00  0.00    +0.093 C 
ATOM     15  C   UNL     1     -32.215  28.198   5.408  0.00  0.00    +0.295 A 
ATOM     16  C   UNL     1     -37.211  22.697   2.990  0.00  0.00    +0.027 C 
ATOM     17  C   UNL     1     -32.955  29.998   3.859  0.00  0.00    +0.329 A 
ATOM     18  H   UNL     1     -34.478  29.431   2.615  0.00  0.00    +0.173 HD
ATOM     19  H   UNL     1     -31.483  30.089   5.267  0.00  0.00    +0.174 HD
ENDROOT
BRANCH  13  21
ATOM     20  O   UNL     1     -35.051  20.742   4.570  0.00  0.00    -0.245 OA
ATOM     21  C   UNL     1     -35.470  21.754   5.139  0.00  0.00    +0.334 C 
BRANCH  21  22
ATOM     22  O   UNL     1     -36.102  21.701   6.342  0.00  0.00    -0.477 OA
ATOM     23  H   UNL     1     -36.857  21.158   6.452  0.00  0.00    +0.295 HD
ENDBRANCH  21  22
ENDBRANCH  13  21
TORSDOF 2
ENDMDL
MODEL 2
REMARK VINA RESULT:      -6.6      1.595      2.514
REMARK  Name = 5487703
REMARK  2 active torsions:
REMARK  status: ('A' for Active; 'I' for Inactive)
REMARK    1  A    between atoms: C_13  and  C_21
REMARK    2  A    between atoms: C_21  and  O_22
REMARK                            x       y       z     vdW  Elec       q    Type
REMARK                         _______ _______ _______ _____ _____    ______ ____
ROOT
ATOM      1  O   UNL     1     -33.053  27.997   1.186  0.00  0.00    -0.264 OA
ATOM      2  O   UNL     1     -31.724  30.444   4.871  0.00  0.00    -0.247 OA
ATOM      3  N   UNL     1     -33.613  26.217   5.500  0.00  0.00    -0.383 NA
ATOM      4  N   UNL     1     -33.894  25.956   2.745  0.00  0.00    -0.395 NA
ATOM      5  N   UNL     1     -32.652  28.368   5.190  0.00  0.00    -0.280 N 
ATOM      6  N   UNL     1     -32.383  29.236   3.024  0.00  0.00    -0.272 N 
ATOM      7  C   UNL     1     -34.150  25.106   4.966  0.00  0.00    +0.140 C 
ATOM      8  C   UNL     1     -34.292  24.974   3.571  0.00  0.00    +0.139 C 
ATOM      9  C   UNL     1     -35.135  22.905   5.261  0.00  0.00    -0.034 C 
ATOM     10  C   UNL     1     -33.217  27.196   4.666  0.00  0.00    +0.229 A 
ATOM     11  C   UNL     1     -33.361  27.055   3.309  0.00  0.00    +0.233 A 
ATOM     12  C   UNL     1     -34.575  24.067   5.789  0.00  0.00    +0.083 C 
ATOM     13  C   UNL     1     -35.275  22.775   3.888  0.00  0.00    +0.053 C 
ATOM     14  C   UNL     1     -34.853  23.808   3.053  0.00  0.00    +0.093 C 
ATOM     15  C   UNL     1     -32.928  28.122   2.398  0.00  0.00    +0.295 A 
ATOM     16  C   UNL     1     -35.575  21.824   6.193  0.00  0.00    +0.027 C 
ATOM     17  C   UNL     1     -32.218  29.419   4.399  0.00  0.00    +0.329 A 
ATOM     18  H   UNL     1     -32.558  28.446   6.166  0.00  0.00    +0.173 HD
ATOM     19  H   UNL     1     -32.084  29.971   2.440  0.00  0.00    +0.174 HD
ENDROOT
BRANCH  13  21
ATOM     20  O   UNL     1     -35.247  20.532   3.055  0.00  0.00    -0.245 OA
ATOM     21  C   UNL     1     -35.856  21.578   3.294  0.00  0.00    +0.334 C 
BRANCH  21  22
ATOM     22  O   UNL     1     -37.180  21.728   3.020  0.00  0.00    -0.477 OA
ATOM     23  H   UNL     1     -37.774  21.978   3.699  0.00  0.00    +0.295 HD
ENDBRANCH  21  22
ENDBRANCH  13  21
TORSDOF 2
ENDMDL
MODEL 3
REMARK VINA RESULT:      -6.4      1.968      6.315
REMARK  Name = 5487703
REMARK  2 active torsions:
REMARK  status: ('A' for Active; 'I' for Inactive)
REMARK    1  A    between atoms: C_13  and  C_21
REMARK    2  A    between atoms: C_21  and  O_22
REMARK                            x       y       z     vdW  Elec       q    Type
REMARK                         _______ _______ _______ _____ _____    ______ ____
ROOT
ATOM      1  O   UNL     1     -35.694  22.666   6.295  0.00  0.00    -0.264 OA
ATOM      2  O   UNL     1     -37.712  22.331   2.153  0.00  0.00    -0.247 OA
ATOM      3  N   UNL     1     -34.874  25.941   3.024  0.00  0.00    -0.383 NA
ATOM      4  N   UNL     1     -34.442  24.955   5.589  0.00  0.00    -0.395 NA
ATOM      5  N   UNL     1     -36.319  24.109   2.573  0.00  0.00    -0.280 N 
ATOM      6  N   UNL     1     -36.714  22.485   4.224  0.00  0.00    -0.272 N 
ATOM      7  C   UNL     1     -34.064  26.586   3.882  0.00  0.00    +0.140 C 
ATOM      8  C   UNL     1     -33.845  26.086   5.180  0.00  0.00    +0.139 C 
ATOM      9  C   UNL     1     -32.583  28.451   4.363  0.00  0.00    -0.034 C 
ATOM     10  C   UNL     1     -35.468  24.807   3.442  0.00  0.00    +0.229 A 
ATOM     11  C   UNL     1     -35.246  24.331   4.709  0.00  0.00    +0.233 A 
ATOM     12  C   UNL     1     -33.428  27.763   3.494  0.00  0.00    +0.083 C 
ATOM     13  C   UNL     1     -32.368  27.959   5.642  0.00  0.00    +0.053 C 
ATOM     14  C   UNL     1     -32.999  26.782   6.041  0.00  0.00    +0.093 C 
ATOM     15  C   UNL     1     -35.893  23.095   5.165  0.00  0.00    +0.295 A 
ATOM     16  C   UNL     1     -31.930  29.709   3.894  0.00  0.00    +0.027 C 
ATOM     17  C   UNL     1     -36.966  22.936   2.926  0.00  0.00    +0.329 A 
ATOM     18  H   UNL     1     -36.463  24.469   1.668  0.00  0.00    +0.173 HD
ATOM     19  H   UNL     1     -37.163  21.654   4.500  0.00  0.00    +0.174 HD
ENDROOT
BRANCH  13  21
ATOM     20  O   UNL     1     -31.804  29.635   7.253  0.00  0.00    -0.245 OA
ATOM     21  C   UNL     1     -31.494  28.648   6.582  0.00  0.00    +0.334 C 
BRANCH  21  22
ATOM     22  O   UNL     1     -30.260  28.078   6.654  0.00  0.00    -0.477 OA
ATOM     23  H   UNL     1     -29.836  27.780   5.874  0.00  0.00    +0.295 HD
ENDBRANCH  21  22
ENDBRANCH  13  21
TORSDOF 2
ENDMDL
MODEL 4
REMARK VINA RESULT:      -6.3      2.480      3.437
REMARK  Name = 5487703
REMARK  2 active torsions:
REMARK  status: ('A' for Active; 'I' for Inactive)
REMARK    1  A    between atoms: C_13  and  C_21
REMARK    2  A    between atoms: C_21  and  O_22
REMARK                            x       y       z     vdW  Elec       q    Type
REMARK                         _______ _______ _______ _____ _____    ______ ____
ROOT
ATOM      1  O   UNL     1     -35.617  27.263  -0.305  0.00  0.00    -0.264 OA
ATOM      2  O   UNL     1     -35.177  30.588   2.872  0.00  0.00    -0.247 OA
ATOM      3  N   UNL     1     -35.210  26.119   4.237  0.00  0.00    -0.383 NA
ATOM      4  N   UNL     1     -35.504  25.333   1.585  0.00  0.00    -0.395 NA
ATOM      5  N   UNL     1     -35.192  28.394   3.552  0.00  0.00    -0.280 N 
ATOM      6  N   UNL     1     -35.398  28.941   1.276  0.00  0.00    -0.272 N 
ATOM      7  C   UNL     1     -35.291  24.816   3.909  0.00  0.00    +0.140 C 
ATOM      8  C   UNL     1     -35.440  24.420   2.567  0.00  0.00    +0.139 C 
ATOM      9  C   UNL     1     -35.311  22.484   4.589  0.00  0.00    -0.034 C 
ATOM     10  C   UNL     1     -35.275  27.028   3.246  0.00  0.00    +0.229 A 
ATOM     11  C   UNL     1     -35.420  26.627   1.942  0.00  0.00    +0.233 A 
ATOM     12  C   UNL     1     -35.229  23.840   4.900  0.00  0.00    +0.083 C 
ATOM     13  C   UNL     1     -35.457  22.093   3.266  0.00  0.00    +0.053 C 
ATOM     14  C   UNL     1     -35.521  23.061   2.266  0.00  0.00    +0.093 C 
ATOM     15  C   UNL     1     -35.490  27.618   0.861  0.00  0.00    +0.295 A 
ATOM     16  C   UNL     1     -35.241  21.481   5.693  0.00  0.00    +0.027 C 
ATOM     17  C   UNL     1     -35.250  29.390   2.591  0.00  0.00    +0.329 A 
ATOM     18  H   UNL     1     -35.088  28.657   4.494  0.00  0.00    +0.173 HD
ATOM     19  H   UNL     1     -35.443  29.631   0.575  0.00  0.00    +0.174 HD
ENDROOT
BRANCH  13  21
ATOM     20  O   UNL     1     -34.589  19.937   2.698  0.00  0.00    -0.245 OA
ATOM     21  C   UNL     1     -35.548  20.687   2.897  0.00  0.00    +0.334 C 
BRANCH  21  22
ATOM     22  O   UNL     1     -36.837  20.262   2.789  0.00  0.00    -0.477 OA
ATOM     23  H   UNL     1     -37.421  20.685   2.191  0.00  0.00    +0.295 HD
ENDBRANCH  21  22
ENDBRANCH  13  21
TORSDOF 2
ENDMDL
MODEL 5
REMARK VINA RESULT:      -6.0      4.361      6.851
REMARK  Name = 5487703
REMARK  2 active torsions:
REMARK  status: ('A' for Active; 'I' for Inactive)
REMARK    1  A    between atoms: C_13  and  C_21
REMARK    2  A    between atoms: C_21  and  O_22
REMARK                            x       y       z     vdW  Elec       q    Type
REMARK                         _______ _______ _______ _____ _____    ______ ____
ROOT
ATOM      1  O   UNL     1     -39.845  27.747   0.786  0.00  0.00    -0.264 OA
ATOM      2  O   UNL     1     -42.678  24.108   0.520  0.00  0.00    -0.247 OA
ATOM      3  N   UNL     1     -38.733  23.752   2.999  0.00  0.00    -0.383 NA
ATOM      4  N   UNL     1     -38.109  26.382   2.344  0.00  0.00    -0.395 NA
ATOM      5  N   UNL     1     -40.741  23.924   1.740  0.00  0.00    -0.280 N 
ATOM      6  N   UNL     1     -41.275  25.931   0.642  0.00  0.00    -0.272 N 
ATOM      7  C   UNL     1     -37.601  24.323   3.449  0.00  0.00    +0.140 C 
ATOM      8  C   UNL     1     -37.286  25.654   3.117  0.00  0.00    +0.139 C 
ATOM      9  C   UNL     1     -35.543  24.168   4.731  0.00  0.00    -0.034 C 
ATOM     10  C   UNL     1     -39.552  24.488   2.225  0.00  0.00    +0.229 A 
ATOM     11  C   UNL     1     -39.233  25.784   1.910  0.00  0.00    +0.233 A 
ATOM     12  C   UNL     1     -36.723  23.600   4.252  0.00  0.00    +0.083 C 
ATOM     13  C   UNL     1     -35.233  25.479   4.404  0.00  0.00    +0.053 C 
ATOM     14  C   UNL     1     -36.105  26.213   3.601  0.00  0.00    +0.093 C 
ATOM     15  C   UNL     1     -40.126  26.588   1.066  0.00  0.00    +0.295 A 
ATOM     16  C   UNL     1     -34.638  23.345   5.587  0.00  0.00    +0.027 C 
ATOM     17  C   UNL     1     -41.637  24.615   0.941  0.00  0.00    +0.329 A 
ATOM     18  H   UNL     1     -40.949  22.992   1.980  0.00  0.00    +0.173 HD
ATOM     19  H   UNL     1     -41.894  26.443   0.074  0.00  0.00    +0.174 HD
ENDROOT
BRANCH  13  21
ATOM     20  O   UNL     1     -33.882  26.690   5.964  0.00  0.00    -0.245 OA
ATOM     21  C   UNL     1     -34.010  26.111   4.882  0.00  0.00    +0.334 C 
BRANCH  21  22
ATOM     22  O   UNL     1     -32.987  25.996   3.993  0.00  0.00    -0.477 OA
ATOM     23  H   UNL     1     -32.469  26.746   3.776  0.00  0.00    +0.295 HD
ENDBRANCH  21  22
ENDBRANCH  13  21
TORSDOF 2
ENDMDL
MODEL 6
REMARK VINA RESULT:      -5.9      3.377      7.020
REMARK  Name = 5487703
REMARK  2 active torsions:
REMARK  status: ('A' for Active; 'I' for Inactive)
REMARK    1  A    between atoms: C_13  and  C_21
REMARK    2  A    between atoms: C_21  and  O_22
REMARK                            x       y       z     vdW  Elec       q    Type
REMARK                         _______ _______ _______ _____ _____    ______ ____
ROOT
ATOM      1  O   UNL     1     -37.635  24.005  -0.630  0.00  0.00    -0.264 OA
ATOM      2  O   UNL     1     -40.305  21.126   1.803  0.00  0.00    -0.247 OA
ATOM      3  N   UNL     1     -37.074  23.667   4.025  0.00  0.00    -0.383 NA
ATOM      4  N   UNL     1     -36.321  24.794   1.596  0.00  0.00    -0.395 NA
ATOM      5  N   UNL     1     -38.719  22.371   2.903  0.00  0.00    -0.280 N 
ATOM      6  N   UNL     1     -38.980  22.556   0.576  0.00  0.00    -0.272 N 
ATOM      7  C   UNL     1     -36.086  24.578   3.966  0.00  0.00    +0.140 C 
ATOM      8  C   UNL     1     -35.706  25.149   2.737  0.00  0.00    +0.139 C 
ATOM      9  C   UNL     1     -34.398  25.913   5.094  0.00  0.00    -0.034 C 
ATOM     10  C   UNL     1     -37.685  23.317   2.878  0.00  0.00    +0.229 A 
ATOM     11  C   UNL     1     -37.304  23.881   1.686  0.00  0.00    +0.233 A 
ATOM     12  C   UNL     1     -35.425  24.970   5.127  0.00  0.00    +0.083 C 
ATOM     13  C   UNL     1     -34.023  26.475   3.883  0.00  0.00    +0.053 C 
ATOM     14  C   UNL     1     -34.678  26.090   2.714  0.00  0.00    +0.093 C 
ATOM     15  C   UNL     1     -37.971  23.501   0.435  0.00  0.00    +0.295 A 
ATOM     16  C   UNL     1     -33.723  26.294   6.370  0.00  0.00    +0.027 C 
ATOM     17  C   UNL     1     -39.398  21.959   1.768  0.00  0.00    +0.329 A 
ATOM     18  H   UNL     1     -38.975  21.980   3.769  0.00  0.00    +0.173 HD
ATOM     19  H   UNL     1     -39.446  22.279  -0.246  0.00  0.00    +0.174 HD
ENDROOT
BRANCH  13  21
ATOM     20  O   UNL     1     -31.763  27.210   3.610  0.00  0.00    -0.245 OA
ATOM     21  C   UNL     1     -32.955  27.462   3.803  0.00  0.00    +0.334 C 
BRANCH  21  22
ATOM     22  O   UNL     1     -33.411  28.733   3.968  0.00  0.00    -0.477 OA
ATOM     23  H   UNL     1     -32.975  29.315   4.558  0.00  0.00    +0.295 HD
ENDBRANCH  21  22
ENDBRANCH  13  21
TORSDOF 2
ENDMDL
MODEL 7
REMARK VINA RESULT:      -5.8      5.978      7.214
REMARK  Name = 5487703
REMARK  2 active torsions:
REMARK  status: ('A' for Active; 'I' for Inactive)
REMARK    1  A    between atoms: C_13  and  C_21
REMARK    2  A    between atoms: C_21  and  O_22
REMARK                            x       y       z     vdW  Elec       q    Type
REMARK                         _______ _______ _______ _____ _____    ______ ____
ROOT
ATOM      1  O   UNL     1     -42.135  24.325   0.554  0.00  0.00    -0.264 OA
ATOM      2  O   UNL     1     -41.498  27.374   3.965  0.00  0.00    -0.247 OA
ATOM      3  N   UNL     1     -38.331  24.004   3.297  0.00  0.00    -0.383 NA
ATOM      4  N   UNL     1     -39.840  23.037   1.170  0.00  0.00    -0.395 NA
ATOM      5  N   UNL     1     -39.937  25.721   3.644  0.00  0.00    -0.280 N 
ATOM      6  N   UNL     1     -41.830  25.860   2.261  0.00  0.00    -0.272 N 
ATOM      7  C   UNL     1     -37.925  22.929   2.598  0.00  0.00    +0.140 C 
ATOM      8  C   UNL     1     -38.690  22.440   1.522  0.00  0.00    +0.139 C 
ATOM      9  C   UNL     1     -36.295  21.166   2.226  0.00  0.00    -0.034 C 
ATOM     10  C   UNL     1     -39.485  24.597   2.938  0.00  0.00    +0.229 A 
ATOM     11  C   UNL     1     -40.220  24.110   1.886  0.00  0.00    +0.233 A 
ATOM     12  C   UNL     1     -36.738  22.283   2.933  0.00  0.00    +0.083 C 
ATOM     13  C   UNL     1     -37.048  20.684   1.166  0.00  0.00    +0.053 C 
ATOM     14  C   UNL     1     -38.238  21.323   0.821  0.00  0.00    +0.093 C 
ATOM     15  C   UNL     1     -41.478  24.756   1.494  0.00  0.00    +0.295 A 
ATOM     16  C   UNL     1     -35.016  20.512   2.631  0.00  0.00    +0.027 C 
ATOM     17  C   UNL     1     -41.111  26.388   3.337  0.00  0.00    +0.329 A 
ATOM     18  H   UNL     1     -39.392  26.052   4.395  0.00  0.00    +0.173 HD
ATOM     19  H   UNL     1     -42.670  26.316   2.023  0.00  0.00    +0.174 HD
ENDROOT
BRANCH  13  21
ATOM     20  O   UNL     1     -35.867  19.543  -0.574  0.00  0.00    -0.245 OA
ATOM     21  C   UNL     1     -36.623  19.520   0.401  0.00  0.00    +0.334 C 
BRANCH  21  22
ATOM     22  O   UNL     1     -37.155  18.363   0.880  0.00  0.00    -0.477 OA
ATOM     23  H   UNL     1     -36.827  17.538   0.583  0.00  0.00    +0.295 HD
ENDBRANCH  21  22
ENDBRANCH  13  21
TORSDOF 2
ENDMDL
MODEL 8
REMARK VINA RESULT:      -5.7      5.038      8.134
REMARK  Name = 5487703
REMARK  2 active torsions:
REMARK  status: ('A' for Active; 'I' for Inactive)
REMARK    1  A    between atoms: C_13  and  C_21
REMARK    2  A    between atoms: C_21  and  O_22
REMARK                            x       y       z     vdW  Elec       q    Type
REMARK                         _______ _______ _______ _____ _____    ______ ____
ROOT
ATOM      1  O   UNL     1     -37.677  19.179  -0.605  0.00  0.00    -0.264 OA
ATOM      2  O   UNL     1     -33.605  17.336   0.562  0.00  0.00    -0.247 OA
ATOM      3  N   UNL     1     -35.012  21.271   2.653  0.00  0.00    -0.383 NA
ATOM      4  N   UNL     1     -37.345  21.216   1.141  0.00  0.00    -0.395 NA
ATOM      5  N   UNL     1     -34.288  19.271   1.594  0.00  0.00    -0.280 N 
ATOM      6  N   UNL     1     -35.638  18.244  -0.032  0.00  0.00    -0.272 N 
ATOM      7  C   UNL     1     -35.944  22.231   2.791  0.00  0.00    +0.140 C 
ATOM      8  C   UNL     1     -37.126  22.202   2.026  0.00  0.00    +0.139 C 
ATOM      9  C   UNL     1     -36.703  24.275   3.862  0.00  0.00    -0.034 C 
ATOM     10  C   UNL     1     -35.240  20.287   1.763  0.00  0.00    +0.229 A 
ATOM     11  C   UNL     1     -36.395  20.271   1.024  0.00  0.00    +0.233 A 
ATOM     12  C   UNL     1     -35.752  23.269   3.699  0.00  0.00    +0.083 C 
ATOM     13  C   UNL     1     -37.866  24.247   3.108  0.00  0.00    +0.053 C 
ATOM     14  C   UNL     1     -38.070  23.212   2.197  0.00  0.00    +0.093 C 
ATOM     15  C   UNL     1     -36.645  19.197   0.054  0.00  0.00    +0.295 A 
ATOM     16  C   UNL     1     -36.442  25.366   4.848  0.00  0.00    +0.027 C 
ATOM     17  C   UNL     1     -34.448  18.223   0.702  0.00  0.00    +0.329 A 
ATOM     18  H   UNL     1     -33.467  19.303   2.136  0.00  0.00    +0.173 HD
ATOM     19  H   UNL     1     -35.775  17.510  -0.674  0.00  0.00    +0.174 HD
ENDROOT
BRANCH  13  21
ATOM     20  O   UNL     1     -38.874  26.374   2.677  0.00  0.00    -0.245 OA
ATOM     21  C   UNL     1     -38.885  25.279   3.246  0.00  0.00    +0.334 C 
BRANCH  21  22
ATOM     22  O   UNL     1     -39.886  24.909   4.090  0.00  0.00    -0.477 OA
ATOM     23  H   UNL     1     -39.899  24.044   4.450  0.00  0.00    +0.295 HD
ENDBRANCH  21  22
ENDBRANCH  13  21
TORSDOF 2
ENDMDL
MODEL 9
REMARK VINA RESULT:      -5.7      4.974      8.209
REMARK  Name = 5487703
REMARK  2 active torsions:
REMARK  status: ('A' for Active; 'I' for Inactive)
REMARK    1  A    between atoms: C_13  and  C_21
REMARK    2  A    between atoms: C_21  and  O_22
REMARK                            x       y       z     vdW  Elec       q    Type
REMARK                         _______ _______ _______ _____ _____    ______ ____
ROOT
ATOM      1  O   UNL     1     -36.971  21.180  -1.925  0.00  0.00    -0.264 OA
ATOM      2  O   UNL     1     -35.129  16.988  -1.311  0.00  0.00    -0.247 OA
ATOM      3  N   UNL     1     -35.266  19.970   2.285  0.00  0.00    -0.383 NA
ATOM      4  N   UNL     1     -36.489  21.856   0.647  0.00  0.00    -0.395 NA
ATOM      5  N   UNL     1     -35.192  18.447   0.462  0.00  0.00    -0.280 N 
ATOM      6  N   UNL     1     -36.050  19.075  -1.633  0.00  0.00    -0.272 N 
ATOM      7  C   UNL     1     -35.607  21.180   2.764  0.00  0.00    +0.140 C 
ATOM      8  C   UNL     1     -36.226  22.134   1.934  0.00  0.00    +0.139 C 
ATOM      9  C   UNL     1     -35.693  22.751   4.615  0.00  0.00    -0.034 C 
ATOM     10  C   UNL     1     -35.533  19.699   0.994  0.00  0.00    +0.229 A 
ATOM     11  C   UNL     1     -36.138  20.638   0.196  0.00  0.00    +0.233 A 
ATOM     12  C   UNL     1     -35.350  21.504   4.093  0.00  0.00    +0.083 C 
ATOM     13  C   UNL     1     -36.303  23.691   3.798  0.00  0.00    +0.053 C 
ATOM     14  C   UNL     1     -36.565  23.377   2.466  0.00  0.00    +0.093 C 
ATOM     15  C   UNL     1     -36.430  20.344  -1.212  0.00  0.00    +0.295 A 
ATOM     16  C   UNL     1     -35.391  23.045   6.047  0.00  0.00    +0.027 C 
ATOM     17  C   UNL     1     -35.434  18.091  -0.855  0.00  0.00    +0.329 A 
ATOM     18  H   UNL     1     -34.760  17.790   1.053  0.00  0.00    +0.173 HD
ATOM     19  H   UNL     1     -36.231  18.847  -2.574  0.00  0.00    +0.174 HD
ENDROOT
BRANCH  13  21
ATOM     20  O   UNL     1     -35.889  25.911   4.586  0.00  0.00    -0.245 OA
ATOM     21  C   UNL     1     -36.676  25.005   4.302  0.00  0.00    +0.334 C 
BRANCH  21  22
ATOM     22  O   UNL     1     -38.023  25.146   4.434  0.00  0.00    -0.477 OA
ATOM     23  H   UNL     1     -38.440  24.924   5.242  0.00  0.00    +0.295 HD
ENDBRANCH  21  22
ENDBRANCH  13  21
TORSDOF 2
ENDMDL
