MODEL 1
REMARK VINA RESULT:      -6.4      0.000      0.000
REMARK  Name = 193987
REMARK  8 active torsions:
REMARK  status: ('A' for Active; 'I' for Inactive)
REMARK    1  A    between atoms: C_1  and  C_4
REMARK    2  A    between atoms: C_1  and  C_8
REMARK    3  A    between atoms: C_1  and  C_23
REMARK    4  A    between atoms: N_3  and  O_6
REMARK    5  A    between atoms: C_8  and  C_11
REMARK    6  A    between atoms: C_8  and  C_17
REMARK    7  A    between atoms: C_17  and  C_18
REMARK    8  A    between atoms: C_23  and  N_26
REMARK                            x       y       z     vdW  Elec       q    Type
REMARK                         _______ _______ _______ _____ _____    ______ ____
ROOT
ATOM      1  C   UNL     1     -36.846  21.832   1.853  0.00  0.00    +0.107 C 
ENDROOT
BRANCH   1   4
ATOM      2  O   UNL     1     -38.773  23.179   2.471  0.00  0.00    -0.273 OA
ATOM      3  N   UNL     1     -39.081  20.929   2.069  0.00  0.00    -0.197 N 
ATOM      4  C   UNL     1     -38.329  22.075   2.160  0.00  0.00    +0.246 C 
ATOM      5  H   UNL     1     -38.686  20.063   1.816  0.00  0.00    +0.182 HD
BRANCH   3   6
ATOM      6  O   UNL     1     -40.445  21.066   2.359  0.00  0.00    -0.295 OA
ATOM      7  H   UNL     1     -40.961  20.958   1.544  0.00  0.00    +0.241 HD
ENDBRANCH   3   6
ENDBRANCH   1   4
BRANCH   1   8
ATOM      8  C   UNL     1     -35.993  22.953   2.504  0.00  0.00    +0.087 C 
BRANCH   8  11
ATOM      9  O   UNL     1     -34.160  22.770   1.015  0.00  0.00    -0.275 OA
ATOM     10  N   UNL     1     -35.247  24.823   1.074  0.00  0.00    -0.280 N 
ATOM     11  C   UNL     1     -35.048  23.498   1.464  0.00  0.00    +0.226 C 
ATOM     12  C   UNL     1     -36.321  25.699   1.556  0.00  0.00    +0.093 C 
ATOM     13  C   UNL     1     -34.368  25.426   0.069  0.00  0.00    +0.093 C 
ATOM     14  C   UNL     1     -35.750  27.006   2.102  0.00  0.00    +0.022 C 
ATOM     15  C   UNL     1     -33.759  26.726   0.587  0.00  0.00    +0.022 C 
ATOM     16  C   UNL     1     -34.842  27.686   1.079  0.00  0.00    +0.004 C 
ENDBRANCH   8  11
BRANCH   8  17
ATOM     17  C   UNL     1     -35.217  22.505   3.752  0.00  0.00    +0.010 C 
BRANCH  17  18
ATOM     18  C   UNL     1     -35.159  23.588   4.815  0.00  0.00    +0.000 C 
ATOM     19  C   UNL     1     -36.391  24.486   4.829  0.00  0.00    +0.000 C 
ATOM     20  C   UNL     1     -34.030  24.588   4.593  0.00  0.00    +0.000 C 
ATOM     21  C   UNL     1     -35.942  25.715   5.611  0.00  0.00    +0.000 C 
ATOM     22  C   UNL     1     -34.423  25.788   5.450  0.00  0.00    +0.000 C 
ENDBRANCH  17  18
ENDBRANCH   8  17
ENDBRANCH   1   8
BRANCH   1  23
ATOM     23  C   UNL     1     -36.409  20.418   2.265  0.00  0.00    +0.112 C 
BRANCH  23  26
ATOM     24  O   UNL     1     -33.651  19.551   1.748  0.00  0.00    -0.273 OA
ATOM     25  O   UNL     1     -37.875  19.386  -0.066  0.00  0.00    -0.252 OA
ATOM     26  N   UNL     1     -35.899  19.671   1.144  0.00  0.00    -0.212 N 
ATOM     27  N   UNL     1     -35.809  18.540  -0.790  0.00  0.00    -0.257 N 
ATOM     28  C   UNL     1     -34.426  18.518  -0.322  0.00  0.00    +0.131 C 
ATOM     29  C   UNL     1     -34.576  19.304   0.983  0.00  0.00    +0.249 C 
ATOM     30  C   UNL     1     -36.671  19.221   0.082  0.00  0.00    +0.313 C 
ATOM     31  C   UNL     1     -33.937  17.104  -0.014  0.00  0.00    +0.029 C 
ATOM     32  C   UNL     1     -33.479  19.262  -1.260  0.00  0.00    +0.029 C 
ATOM     33  C   UNL     1     -36.231  17.914  -2.031  0.00  0.00    +0.117 C 
ENDBRANCH  23  26
ENDBRANCH   1  23
TORSDOF 8
ENDMDL
MODEL 2
REMARK VINA RESULT:      -6.0      2.292      4.351
REMARK  Name = 193987
REMARK  8 active torsions:
REMARK  status: ('A' for Active; 'I' for Inactive)
REMARK    1  A    between atoms: C_1  and  C_4
REMARK    2  A    between atoms: C_1  and  C_8
REMARK    3  A    between atoms: C_1  and  C_23
REMARK    4  A    between atoms: N_3  and  O_6
REMARK    5  A    between atoms: C_8  and  C_11
REMARK    6  A    between atoms: C_8  and  C_17
REMARK    7  A    between atoms: C_17  and  C_18
REMARK    8  A    between atoms: C_23  and  N_26
REMARK                            x       y       z     vdW  Elec       q    Type
REMARK                         _______ _______ _______ _____ _____    ______ ____
ROOT
ATOM      1  C   UNL     1     -37.221  22.839   2.083  0.00  0.00    +0.107 C 
ENDROOT
BRANCH   1   4
ATOM      2  O   UNL     1     -37.310  25.258   2.305  0.00  0.00    -0.273 OA
ATOM      3  N   UNL     1     -38.933  23.994   3.346  0.00  0.00    -0.197 N 
ATOM      4  C   UNL     1     -37.812  24.168   2.571  0.00  0.00    +0.246 C 
ATOM      5  H   UNL     1     -39.303  23.102   3.536  0.00  0.00    +0.182 HD
BRANCH   3   6
ATOM      6  O   UNL     1     -39.517  25.163   3.851  0.00  0.00    -0.295 OA
ATOM      7  H   UNL     1     -39.087  25.404   4.687  0.00  0.00    +0.241 HD
ENDBRANCH   3   6
ENDBRANCH   1   4
BRANCH   1   8
ATOM      8  C   UNL     1     -35.863  22.586   2.789  0.00  0.00    +0.087 C 
BRANCH   8  11
ATOM      9  O   UNL     1     -35.532  20.250   3.000  0.00  0.00    -0.275 OA
ATOM     10  N   UNL     1     -34.602  21.264   1.128  0.00  0.00    -0.280 N 
ATOM     11  C   UNL     1     -35.323  21.259   2.322  0.00  0.00    +0.226 C 
ATOM     12  C   UNL     1     -34.375  22.438   0.277  0.00  0.00    +0.093 C 
ATOM     13  C   UNL     1     -34.043  20.013   0.609  0.00  0.00    +0.093 C 
ATOM     14  C   UNL     1     -32.885  22.626   0.000  0.00  0.00    +0.022 C 
ATOM     15  C   UNL     1     -32.547  20.155   0.340  0.00  0.00    +0.022 C 
ATOM     16  C   UNL     1     -32.260  21.352  -0.565  0.00  0.00    +0.004 C 
ENDBRANCH   8  11
BRANCH   8  17
ATOM     17  C   UNL     1     -35.937  22.626   4.323  0.00  0.00    +0.010 C 
BRANCH  17  18
ATOM     18  C   UNL     1     -35.036  23.694   4.917  0.00  0.00    +0.000 C 
ATOM     19  C   UNL     1     -35.804  24.805   5.625  0.00  0.00    +0.000 C 
ATOM     20  C   UNL     1     -34.243  24.465   3.867  0.00  0.00    +0.000 C 
ATOM     21  C   UNL     1     -34.793  25.941   5.733  0.00  0.00    +0.000 C 
ATOM     22  C   UNL     1     -33.794  25.728   4.594  0.00  0.00    +0.000 C 
ENDBRANCH  17  18
ENDBRANCH   8  17
ENDBRANCH   1   8
BRANCH   1  23
ATOM     23  C   UNL     1     -38.219  21.683   2.250  0.00  0.00    +0.112 C 
BRANCH  23  26
ATOM     24  O   UNL     1     -40.645  22.875   1.099  0.00  0.00    -0.273 OA
ATOM     25  O   UNL     1     -37.457  19.671   0.247  0.00  0.00    -0.252 OA
ATOM     26  N   UNL     1     -38.875  21.361   1.009  0.00  0.00    -0.212 N 
ATOM     27  N   UNL     1     -39.340  20.387  -0.957  0.00  0.00    -0.257 N 
ATOM     28  C   UNL     1     -40.408  21.371  -0.807  0.00  0.00    +0.131 C 
ATOM     29  C   UNL     1     -40.020  21.979   0.543  0.00  0.00    +0.249 C 
ATOM     30  C   UNL     1     -38.440  20.389   0.119  0.00  0.00    +0.313 C 
ATOM     31  C   UNL     1     -40.362  22.451  -1.886  0.00  0.00    +0.029 C 
ATOM     32  C   UNL     1     -41.787  20.726  -0.699  0.00  0.00    +0.029 C 
ATOM     33  C   UNL     1     -39.234  19.507  -2.107  0.00  0.00    +0.117 C 
ENDBRANCH  23  26
ENDBRANCH   1  23
TORSDOF 8
ENDMDL
MODEL 3
REMARK VINA RESULT:      -6.0      2.625      7.078
REMARK  Name = 193987
REMARK  8 active torsions:
REMARK  status: ('A' for Active; 'I' for Inactive)
REMARK    1  A    between atoms: C_1  and  C_4
REMARK    2  A    between atoms: C_1  and  C_8
REMARK    3  A    between atoms: C_1  and  C_23
REMARK    4  A    between atoms: N_3  and  O_6
REMARK    5  A    between atoms: C_8  and  C_11
REMARK    6  A    between atoms: C_8  and  C_17
REMARK    7  A    between atoms: C_17  and  C_18
REMARK    8  A    between atoms: C_23  and  N_26
REMARK                            x       y       z     vdW  Elec       q    Type
REMARK                         _______ _______ _______ _____ _____    ______ ____
ROOT
ATOM      1  C   UNL     1     -35.316  23.725   3.617  0.00  0.00    +0.107 C 
ENDROOT
BRANCH   1   4
ATOM      2  O   UNL     1     -36.110  23.315   5.878  0.00  0.00    -0.273 OA
ATOM      3  N   UNL     1     -35.287  21.540   4.657  0.00  0.00    -0.197 N 
ATOM      4  C   UNL     1     -35.628  22.858   4.844  0.00  0.00    +0.246 C 
ATOM      5  H   UNL     1     -34.902  21.214   3.811  0.00  0.00    +0.182 HD
BRANCH   3   6
ATOM      6  O   UNL     1     -35.520  20.687   5.744  0.00  0.00    -0.295 OA
ATOM      7  H   UNL     1     -35.781  19.811   5.418  0.00  0.00    +0.241 HD
ENDBRANCH   3   6
ENDBRANCH   1   4
BRANCH   1   8
ATOM      8  C   UNL     1     -35.904  23.056   2.348  0.00  0.00    +0.087 C 
BRANCH   8  11
ATOM      9  O   UNL     1     -33.950  23.436   1.064  0.00  0.00    -0.275 OA
ATOM     10  N   UNL     1     -34.702  21.241   1.181  0.00  0.00    -0.280 N 
ATOM     11  C   UNL     1     -34.762  22.604   1.474  0.00  0.00    +0.226 C 
ATOM     12  C   UNL     1     -35.625  20.221   1.690  0.00  0.00    +0.093 C 
ATOM     13  C   UNL     1     -33.623  20.725   0.336  0.00  0.00    +0.093 C 
ATOM     14  C   UNL     1     -36.224  19.410   0.543  0.00  0.00    +0.022 C 
ATOM     15  C   UNL     1     -34.183  19.926  -0.837  0.00  0.00    +0.022 C 
ATOM     16  C   UNL     1     -35.134  18.830  -0.357  0.00  0.00    +0.004 C 
ENDBRANCH   8  11
BRANCH   8  17
ATOM     17  C   UNL     1     -36.865  23.953   1.553  0.00  0.00    +0.010 C 
BRANCH  17  18
ATOM     18  C   UNL     1     -38.204  23.284   1.299  0.00  0.00    +0.000 C 
ATOM     19  C   UNL     1     -38.582  22.267   2.371  0.00  0.00    +0.000 C 
ATOM     20  C   UNL     1     -38.224  22.440   0.029  0.00  0.00    +0.000 C 
ATOM     21  C   UNL     1     -39.673  21.428   1.714  0.00  0.00    +0.000 C 
ATOM     22  C   UNL     1     -39.435  21.530   0.207  0.00  0.00    +0.000 C 
ENDBRANCH  17  18
ENDBRANCH   8  17
ENDBRANCH   1   8
BRANCH   1  23
ATOM     23  C   UNL     1     -35.789  25.173   3.816  0.00  0.00    +0.112 C 
BRANCH  23  26
ATOM     24  O   UNL     1     -34.510  26.611   1.597  0.00  0.00    -0.273 OA
ATOM     25  O   UNL     1     -34.256  26.073   6.158  0.00  0.00    -0.252 OA
ATOM     26  N   UNL     1     -34.682  26.094   3.863  0.00  0.00    -0.212 N 
ATOM     27  N   UNL     1     -33.012  27.369   4.648  0.00  0.00    -0.257 N 
ATOM     28  C   UNL     1     -32.989  27.629   3.211  0.00  0.00    +0.131 C 
ATOM     29  C   UNL     1     -34.143  26.729   2.760  0.00  0.00    +0.249 C 
ATOM     30  C   UNL     1     -34.015  26.463   5.023  0.00  0.00    +0.313 C 
ATOM     31  C   UNL     1     -33.316  29.083   2.876  0.00  0.00    +0.029 C 
ATOM     32  C   UNL     1     -31.692  27.165   2.553  0.00  0.00    +0.029 C 
ATOM     33  C   UNL     1     -32.088  27.994   5.576  0.00  0.00    +0.117 C 
ENDBRANCH  23  26
ENDBRANCH   1  23
TORSDOF 8
ENDMDL
MODEL 4
REMARK VINA RESULT:      -6.0      2.193      3.509
REMARK  Name = 193987
REMARK  8 active torsions:
REMARK  status: ('A' for Active; 'I' for Inactive)
REMARK    1  A    between atoms: C_1  and  C_4
REMARK    2  A    between atoms: C_1  and  C_8
REMARK    3  A    between atoms: C_1  and  C_23
REMARK    4  A    between atoms: N_3  and  O_6
REMARK    5  A    between atoms: C_8  and  C_11
REMARK    6  A    between atoms: C_8  and  C_17
REMARK    7  A    between atoms: C_17  and  C_18
REMARK    8  A    between atoms: C_23  and  N_26
REMARK                            x       y       z     vdW  Elec       q    Type
REMARK                         _______ _______ _______ _____ _____    ______ ____
ROOT
ATOM      1  C   UNL     1     -35.897  21.982   2.220  0.00  0.00    +0.107 C 
ENDROOT
BRANCH   1   4
ATOM      2  O   UNL     1     -35.006  20.499   3.928  0.00  0.00    -0.273 OA
ATOM      3  N   UNL     1     -36.305  22.288   4.587  0.00  0.00    -0.197 N 
ATOM      4  C   UNL     1     -35.669  21.498   3.659  0.00  0.00    +0.246 C 
ATOM      5  H   UNL     1     -36.827  23.080   4.328  0.00  0.00    +0.182 HD
BRANCH   3   6
ATOM      6  O   UNL     1     -36.163  21.895   5.924  0.00  0.00    -0.295 OA
ATOM      7  H   UNL     1     -36.161  20.926   5.978  0.00  0.00    +0.241 HD
ENDBRANCH   3   6
ENDBRANCH   1   4
BRANCH   1   8
ATOM      8  C   UNL     1     -36.155  23.511   2.224  0.00  0.00    +0.087 C 
BRANCH   8  11
ATOM      9  O   UNL     1     -36.553  24.019  -0.055  0.00  0.00    -0.275 OA
ATOM     10  N   UNL     1     -38.416  23.945   1.332  0.00  0.00    -0.280 N 
ATOM     11  C   UNL     1     -37.051  23.847   1.060  0.00  0.00    +0.226 C 
ATOM     12  C   UNL     1     -39.043  23.702   2.636  0.00  0.00    +0.093 C 
ATOM     13  C   UNL     1     -39.352  24.271   0.253  0.00  0.00    +0.093 C 
ATOM     14  C   UNL     1     -39.903  24.892   3.054  0.00  0.00    +0.022 C 
ATOM     15  C   UNL     1     -40.217  25.472   0.625  0.00  0.00    +0.022 C 
ATOM     16  C   UNL     1     -40.914  25.257   1.967  0.00  0.00    +0.004 C 
ENDBRANCH   8  11
BRANCH   8  17
ATOM     17  C   UNL     1     -34.877  24.363   2.181  0.00  0.00    +0.010 C 
BRANCH  17  18
ATOM     18  C   UNL     1     -34.782  25.324   3.353  0.00  0.00    +0.000 C 
ATOM     19  C   UNL     1     -33.958  24.778   4.515  0.00  0.00    +0.000 C 
ATOM     20  C   UNL     1     -36.129  25.602   4.012  0.00  0.00    +0.000 C 
ATOM     21  C   UNL     1     -34.360  25.655   5.695  0.00  0.00    +0.000 C 
ATOM     22  C   UNL     1     -35.762  26.177   5.377  0.00  0.00    +0.000 C 
ENDBRANCH  17  18
ENDBRANCH   8  17
ENDBRANCH   1   8
BRANCH   1  23
ATOM     23  C   UNL     1     -34.745  21.561   1.295  0.00  0.00    +0.112 C 
BRANCH  23  26
ATOM     24  O   UNL     1     -36.913  20.847  -0.554  0.00  0.00    -0.273 OA
ATOM     25  O   UNL     1     -33.234  19.051   1.542  0.00  0.00    -0.252 OA
ATOM     26  N   UNL     1     -35.005  20.293   0.664  0.00  0.00    -0.212 N 
ATOM     27  N   UNL     1     -34.809  18.142   0.060  0.00  0.00    -0.257 N 
ATOM     28  C   UNL     1     -35.995  18.589  -0.666  0.00  0.00    +0.131 C 
ATOM     29  C   UNL     1     -36.056  20.047  -0.199  0.00  0.00    +0.249 C 
ATOM     30  C   UNL     1     -34.231  19.154   0.840  0.00  0.00    +0.313 C 
ATOM     31  C   UNL     1     -35.803  18.546  -2.180  0.00  0.00    +0.029 C 
ATOM     32  C   UNL     1     -37.261  17.858  -0.225  0.00  0.00    +0.029 C 
ATOM     33  C   UNL     1     -34.294  16.787  -0.032  0.00  0.00    +0.117 C 
ENDBRANCH  23  26
ENDBRANCH   1  23
TORSDOF 8
ENDMDL
MODEL 5
REMARK VINA RESULT:      -5.9      1.479      2.068
REMARK  Name = 193987
REMARK  8 active torsions:
REMARK  status: ('A' for Active; 'I' for Inactive)
REMARK    1  A    between atoms: C_1  and  C_4
REMARK    2  A    between atoms: C_1  and  C_8
REMARK    3  A    between atoms: C_1  and  C_23
REMARK    4  A    between atoms: N_3  and  O_6
REMARK    5  A    between atoms: C_8  and  C_11
REMARK    6  A    between atoms: C_8  and  C_17
REMARK    7  A    between atoms: C_17  and  C_18
REMARK    8  A    between atoms: C_23  and  N_26
REMARK                            x       y       z     vdW  Elec       q    Type
REMARK                         _______ _______ _______ _____ _____    ______ ____
ROOT
ATOM      1  C   UNL     1     -36.950  20.831   0.745  0.00  0.00    +0.107 C 
ENDROOT
BRANCH   1   4
ATOM      2  O   UNL     1     -39.160  20.171  -0.021  0.00  0.00    -0.273 OA
ATOM      3  N   UNL     1     -38.953  21.108   2.076  0.00  0.00    -0.197 N 
ATOM      4  C   UNL     1     -38.468  20.652   0.874  0.00  0.00    +0.246 C 
ATOM      5  H   UNL     1     -38.363  21.487   2.767  0.00  0.00    +0.182 HD
BRANCH   3   6
ATOM      6  O   UNL     1     -40.338  21.000   2.259  0.00  0.00    -0.295 OA
ATOM      7  H   UNL     1     -40.543  21.048   3.206  0.00  0.00    +0.241 HD
ENDBRANCH   3   6
ENDBRANCH   1   4
BRANCH   1   8
ATOM      8  C   UNL     1     -36.483  21.976   1.682  0.00  0.00    +0.087 C 
BRANCH   8  11
ATOM      9  O   UNL     1     -34.886  22.823   0.151  0.00  0.00    -0.275 OA
ATOM     10  N   UNL     1     -36.505  24.316   0.893  0.00  0.00    -0.280 N 
ATOM     11  C   UNL     1     -35.881  23.069   0.837  0.00  0.00    +0.226 C 
ATOM     12  C   UNL     1     -37.715  24.627   1.663  0.00  0.00    +0.093 C 
ATOM     13  C   UNL     1     -35.978  25.430   0.101  0.00  0.00    +0.093 C 
ATOM     14  C   UNL     1     -37.482  25.830   2.574  0.00  0.00    +0.022 C 
ATOM     15  C   UNL     1     -35.711  26.647   0.983  0.00  0.00    +0.022 C 
ATOM     16  C   UNL     1     -36.951  27.029   1.789  0.00  0.00    +0.004 C 
ENDBRANCH   8  11
BRANCH   8  17
ATOM     17  C   UNL     1     -35.493  21.532   2.769  0.00  0.00    +0.010 C 
BRANCH  17  18
ATOM     18  C   UNL     1     -35.787  22.171   4.115  0.00  0.00    +0.000 C 
ATOM     19  C   UNL     1     -35.111  23.526   4.299  0.00  0.00    +0.000 C 
ATOM     20  C   UNL     1     -35.240  21.372   5.293  0.00  0.00    +0.000 C 
ATOM     21  C   UNL     1     -35.157  23.758   5.805  0.00  0.00    +0.000 C 
ATOM     22  C   UNL     1     -35.228  22.372   6.446  0.00  0.00    +0.000 C 
ENDBRANCH  17  18
ENDBRANCH   8  17
ENDBRANCH   1   8
BRANCH   1  23
ATOM     23  C   UNL     1     -36.204  19.509   0.981  0.00  0.00    +0.112 C 
BRANCH  23  26
ATOM     24  O   UNL     1     -33.445  18.911   1.791  0.00  0.00    -0.273 OA
ATOM     25  O   UNL     1     -35.980  19.844  -1.932  0.00  0.00    -0.252 OA
ATOM     26  N   UNL     1     -35.029  19.405   0.155  0.00  0.00    -0.212 N 
ATOM     27  N   UNL     1     -33.694  19.395  -1.647  0.00  0.00    -0.257 N 
ATOM     28  C   UNL     1     -32.781  19.087  -0.550  0.00  0.00    +0.131 C 
ATOM     29  C   UNL     1     -33.762  19.117   0.626  0.00  0.00    +0.249 C 
ATOM     30  C   UNL     1     -35.018  19.580  -1.222  0.00  0.00    +0.313 C 
ATOM     31  C   UNL     1     -32.173  17.692  -0.672  0.00  0.00    +0.029 C 
ATOM     32  C   UNL     1     -31.717  20.164  -0.355  0.00  0.00    +0.029 C 
ATOM     33  C   UNL     1     -33.260  19.492  -3.029  0.00  0.00    +0.117 C 
ENDBRANCH  23  26
ENDBRANCH   1  23
TORSDOF 8
ENDMDL
MODEL 6
REMARK VINA RESULT:      -5.7      2.781      3.768
REMARK  Name = 193987
REMARK  8 active torsions:
REMARK  status: ('A' for Active; 'I' for Inactive)
REMARK    1  A    between atoms: C_1  and  C_4
REMARK    2  A    between atoms: C_1  and  C_8
REMARK    3  A    between atoms: C_1  and  C_23
REMARK    4  A    between atoms: N_3  and  O_6
REMARK    5  A    between atoms: C_8  and  C_11
REMARK    6  A    between atoms: C_8  and  C_17
REMARK    7  A    between atoms: C_17  and  C_18
REMARK    8  A    between atoms: C_23  and  N_26
REMARK                            x       y       z     vdW  Elec       q    Type
REMARK                         _______ _______ _______ _____ _____    ______ ____
ROOT
ATOM      1  C   UNL     1     -37.783  24.285   2.125  0.00  0.00    +0.107 C 
ENDROOT
BRANCH   1   4
ATOM      2  O   UNL     1     -38.705  26.493   2.556  0.00  0.00    -0.273 OA
ATOM      3  N   UNL     1     -39.690  24.669   3.567  0.00  0.00    -0.197 N 
ATOM      4  C   UNL     1     -38.766  25.281   2.754  0.00  0.00    +0.246 C 
ATOM      5  H   UNL     1     -39.704  23.693   3.699  0.00  0.00    +0.182 HD
BRANCH   3   6
ATOM      6  O   UNL     1     -40.609  25.517   4.197  0.00  0.00    -0.295 OA
ATOM      7  H   UNL     1     -41.452  25.495   3.716  0.00  0.00    +0.241 HD
ENDBRANCH   3   6
ENDBRANCH   1   4
BRANCH   1   8
ATOM      8  C   UNL     1     -36.347  24.588   2.629  0.00  0.00    +0.087 C 
BRANCH   8  11
ATOM      9  O   UNL     1     -35.917  25.709   0.587  0.00  0.00    -0.275 OA
ATOM     10  N   UNL     1     -35.135  26.736   2.519  0.00  0.00    -0.280 N 
ATOM     11  C   UNL     1     -35.785  25.724   1.813  0.00  0.00    +0.226 C 
ATOM     12  C   UNL     1     -35.002  26.804   3.979  0.00  0.00    +0.093 C 
ATOM     13  C   UNL     1     -34.559  27.873   1.797  0.00  0.00    +0.093 C 
ATOM     14  C   UNL     1     -33.538  26.971   4.382  0.00  0.00    +0.022 C 
ATOM     15  C   UNL     1     -33.088  28.060   2.158  0.00  0.00    +0.022 C 
ATOM     16  C   UNL     1     -32.898  28.162   3.670  0.00  0.00    +0.004 C 
ENDBRANCH   8  11
BRANCH   8  17
ATOM     17  C   UNL     1     -35.401  23.378   2.589  0.00  0.00    +0.010 C 
BRANCH  17  18
ATOM     18  C   UNL     1     -34.958  22.945   3.975  0.00  0.00    +0.000 C 
ATOM     19  C   UNL     1     -35.251  21.477   4.270  0.00  0.00    +0.000 C 
ATOM     20  C   UNL     1     -35.707  23.658   5.096  0.00  0.00    +0.000 C 
ATOM     21  C   UNL     1     -35.157  21.382   5.789  0.00  0.00    +0.000 C 
ATOM     22  C   UNL     1     -35.462  22.782   6.322  0.00  0.00    +0.000 C 
ENDBRANCH  17  18
ENDBRANCH   8  17
ENDBRANCH   1   8
BRANCH   1  23
ATOM     23  C   UNL     1     -38.220  22.832   2.367  0.00  0.00    +0.112 C 
BRANCH  23  26
ATOM     24  O   UNL     1     -36.802  21.131   0.438  0.00  0.00    -0.273 OA
ATOM     25  O   UNL     1     -40.934  22.982   1.247  0.00  0.00    -0.252 OA
ATOM     26  N   UNL     1     -38.729  22.221   1.167  0.00  0.00    -0.212 N 
ATOM     27  N   UNL     1     -40.127  21.608  -0.475  0.00  0.00    -0.257 N 
ATOM     28  C   UNL     1     -38.871  20.961  -0.844  0.00  0.00    +0.131 C 
ATOM     29  C   UNL     1     -37.983  21.430   0.313  0.00  0.00    +0.249 C 
ATOM     30  C   UNL     1     -40.034  22.347   0.713  0.00  0.00    +0.313 C 
ATOM     31  C   UNL     1     -38.971  19.438  -0.826  0.00  0.00    +0.029 C 
ATOM     32  C   UNL     1     -38.309  21.485  -2.163  0.00  0.00    +0.029 C 
ATOM     33  C   UNL     1     -41.338  21.484  -1.267  0.00  0.00    +0.117 C 
ENDBRANCH  23  26
ENDBRANCH   1  23
TORSDOF 8
ENDMDL
MODEL 7
REMARK VINA RESULT:      -5.6      3.458      6.714
REMARK  Name = 193987
REMARK  8 active torsions:
REMARK  status: ('A' for Active; 'I' for Inactive)
REMARK    1  A    between atoms: C_1  and  C_4
REMARK    2  A    between atoms: C_1  and  C_8
REMARK    3  A    between atoms: C_1  and  C_23
REMARK    4  A    between atoms: N_3  and  O_6
REMARK    5  A    between atoms: C_8  and  C_11
REMARK    6  A    between atoms: C_8  and  C_17
REMARK    7  A    between atoms: C_17  and  C_18
REMARK    8  A    between atoms: C_23  and  N_26
REMARK                            x       y       z     vdW  Elec       q    Type
REMARK                         _______ _______ _______ _____ _____    ______ ____
ROOT
ATOM      1  C   UNL     1     -38.122  24.461   2.564  0.00  0.00    +0.107 C 
ENDROOT
BRANCH   1   4
ATOM      2  O   UNL     1     -36.790  23.977   4.539  0.00  0.00    -0.273 OA
ATOM      3  N   UNL     1     -37.320  26.173   4.075  0.00  0.00    -0.197 N 
ATOM      4  C   UNL     1     -37.330  24.821   3.828  0.00  0.00    +0.246 C 
ATOM      5  H   UNL     1     -37.767  26.817   3.479  0.00  0.00    +0.182 HD
BRANCH   3   6
ATOM      6  O   UNL     1     -36.635  26.579   5.228  0.00  0.00    -0.295 OA
ATOM      7  H   UNL     1     -35.765  26.929   4.980  0.00  0.00    +0.241 HD
ENDBRANCH   3   6
ENDBRANCH   1   4
BRANCH   1   8
ATOM      8  C   UNL     1     -37.341  23.395   1.751  0.00  0.00    +0.087 C 
BRANCH   8  11
ATOM      9  O   UNL     1     -38.099  24.117  -0.374  0.00  0.00    -0.275 OA
ATOM     10  N   UNL     1     -35.803  24.161  -0.023  0.00  0.00    -0.280 N 
ATOM     11  C   UNL     1     -37.124  23.924   0.356  0.00  0.00    +0.226 C 
ATOM     12  C   UNL     1     -34.627  23.984   0.838  0.00  0.00    +0.093 C 
ATOM     13  C   UNL     1     -35.510  24.672  -1.364  0.00  0.00    +0.093 C 
ATOM     14  C   UNL     1     -33.595  23.081   0.165  0.00  0.00    +0.022 C 
ATOM     15  C   UNL     1     -34.496  23.782  -2.078  0.00  0.00    +0.022 C 
ATOM     16  C   UNL     1     -33.239  23.588  -1.231  0.00  0.00    +0.004 C 
ENDBRANCH   8  11
BRANCH   8  17
ATOM     17  C   UNL     1     -38.022  22.019   1.704  0.00  0.00    +0.010 C 
BRANCH  17  18
ATOM     18  C   UNL     1     -37.025  20.877   1.793  0.00  0.00    +0.000 C 
ATOM     19  C   UNL     1     -35.803  21.209   2.642  0.00  0.00    +0.000 C 
ATOM     20  C   UNL     1     -36.400  20.519   0.449  0.00  0.00    +0.000 C 
ATOM     21  C   UNL     1     -34.776  20.158   2.237  0.00  0.00    +0.000 C 
ATOM     22  C   UNL     1     -35.153  19.721   0.821  0.00  0.00    +0.000 C 
ENDBRANCH  17  18
ENDBRANCH   8  17
ENDBRANCH   1   8
BRANCH   1  23
ATOM     23  C   UNL     1     -39.560  24.036   2.901  0.00  0.00    +0.112 C 
BRANCH  23  26
ATOM     24  O   UNL     1     -41.186  23.179   0.610  0.00  0.00    -0.273 OA
ATOM     25  O   UNL     1     -40.394  26.828   3.297  0.00  0.00    -0.252 OA
ATOM     26  N   UNL     1     -40.529  24.796   2.154  0.00  0.00    -0.212 N 
ATOM     27  N   UNL     1     -41.835  26.488   1.476  0.00  0.00    -0.257 N 
ATOM     28  C   UNL     1     -42.181  25.407   0.558  0.00  0.00    +0.131 C 
ATOM     29  C   UNL     1     -41.253  24.308   1.083  0.00  0.00    +0.249 C 
ATOM     30  C   UNL     1     -40.861  26.119   2.415  0.00  0.00    +0.313 C 
ATOM     31  C   UNL     1     -43.634  24.960   0.703  0.00  0.00    +0.029 C 
ATOM     32  C   UNL     1     -41.820  25.731  -0.889  0.00  0.00    +0.029 C 
ATOM     33  C   UNL     1     -42.450  27.802   1.412  0.00  0.00    +0.117 C 
ENDBRANCH  23  26
ENDBRANCH   1  23
TORSDOF 8
ENDMDL
MODEL 8
REMARK VINA RESULT:      -5.5      3.333      7.387
REMARK  Name = 193987
REMARK  8 active torsions:
REMARK  status: ('A' for Active; 'I' for Inactive)
REMARK    1  A    between atoms: C_1  and  C_4
REMARK    2  A    between atoms: C_1  and  C_8
REMARK    3  A    between atoms: C_1  and  C_23
REMARK    4  A    between atoms: N_3  and  O_6
REMARK    5  A    between atoms: C_8  and  C_11
REMARK    6  A    between atoms: C_8  and  C_17
REMARK    7  A    between atoms: C_17  and  C_18
REMARK    8  A    between atoms: C_23  and  N_26
REMARK                            x       y       z     vdW  Elec       q    Type
REMARK                         _______ _______ _______ _____ _____    ______ ____
ROOT
ATOM      1  C   UNL     1     -35.605  24.800   3.807  0.00  0.00    +0.107 C 
ENDROOT
BRANCH   1   4
ATOM      2  O   UNL     1     -34.106  23.489   5.200  0.00  0.00    -0.273 OA
ATOM      3  N   UNL     1     -36.336  22.907   5.127  0.00  0.00    -0.197 N 
ATOM      4  C   UNL     1     -35.249  23.676   4.789  0.00  0.00    +0.246 C 
ATOM      5  H   UNL     1     -37.237  23.092   4.775  0.00  0.00    +0.182 HD
BRANCH   3   6
ATOM      6  O   UNL     1     -36.086  21.844   6.004  0.00  0.00    -0.295 OA
ATOM      7  H   UNL     1     -35.633  21.130   5.525  0.00  0.00    +0.241 HD
ENDBRANCH   3   6
ENDBRANCH   1   4
BRANCH   1   8
ATOM      8  C   UNL     1     -36.914  24.436   3.058  0.00  0.00    +0.087 C 
BRANCH   8  11
ATOM      9  O   UNL     1     -35.775  24.487   0.982  0.00  0.00    -0.275 OA
ATOM     10  N   UNL     1     -37.134  22.645   1.373  0.00  0.00    -0.280 N 
ATOM     11  C   UNL     1     -36.551  23.866   1.711  0.00  0.00    +0.226 C 
ATOM     12  C   UNL     1     -38.025  21.860   2.237  0.00  0.00    +0.093 C 
ATOM     13  C   UNL     1     -36.833  22.026   0.080  0.00  0.00    +0.093 C 
ATOM     14  C   UNL     1     -39.330  21.533   1.515  0.00  0.00    +0.022 C 
ATOM     15  C   UNL     1     -38.115  21.704  -0.683  0.00  0.00    +0.022 C 
ATOM     16  C   UNL     1     -39.067  20.864   0.167  0.00  0.00    +0.004 C 
ENDBRANCH   8  11
BRANCH   8  17
ATOM     17  C   UNL     1     -37.891  25.611   2.897  0.00  0.00    +0.010 C 
BRANCH  17  18
ATOM     18  C   UNL     1     -39.282  25.154   2.494  0.00  0.00    +0.000 C 
ATOM     19  C   UNL     1     -39.559  25.310   1.002  0.00  0.00    +0.000 C 
ATOM     20  C   UNL     1     -40.394  25.990   3.119  0.00  0.00    +0.000 C 
ATOM     21  C   UNL     1     -41.078  25.237   0.899  0.00  0.00    +0.000 C 
ATOM     22  C   UNL     1     -41.616  25.685   2.259  0.00  0.00    +0.000 C 
ENDBRANCH  17  18
ENDBRANCH   8  17
ENDBRANCH   1   8
BRANCH   1  23
ATOM     23  C   UNL     1     -35.664  26.165   4.509  0.00  0.00    +0.112 C 
BRANCH  23  26
ATOM     24  O   UNL     1     -35.527  27.983   2.206  0.00  0.00    -0.273 OA
ATOM     25  O   UNL     1     -33.040  26.517   5.787  0.00  0.00    -0.252 OA
ATOM     26  N   UNL     1     -34.578  27.020   4.104  0.00  0.00    -0.212 N 
ATOM     27  N   UNL     1     -32.588  28.053   4.071  0.00  0.00    -0.257 N 
ATOM     28  C   UNL     1     -33.272  28.601   2.902  0.00  0.00    +0.131 C 
ATOM     29  C   UNL     1     -34.602  27.849   2.999  0.00  0.00    +0.249 C 
ATOM     30  C   UNL     1     -33.367  27.123   4.774  0.00  0.00    +0.313 C 
ATOM     31  C   UNL     1     -33.523  30.102   3.024  0.00  0.00    +0.029 C 
ATOM     32  C   UNL     1     -32.574  28.239   1.594  0.00  0.00    +0.029 C 
ATOM     33  C   UNL     1     -31.243  28.445   4.452  0.00  0.00    +0.117 C 
ENDBRANCH  23  26
ENDBRANCH   1  23
TORSDOF 8
ENDMDL
MODEL 9
REMARK VINA RESULT:      -5.5      4.028      7.691
REMARK  Name = 193987
REMARK  8 active torsions:
REMARK  status: ('A' for Active; 'I' for Inactive)
REMARK    1  A    between atoms: C_1  and  C_4
REMARK    2  A    between atoms: C_1  and  C_8
REMARK    3  A    between atoms: C_1  and  C_23
REMARK    4  A    between atoms: N_3  and  O_6
REMARK    5  A    between atoms: C_8  and  C_11
REMARK    6  A    between atoms: C_8  and  C_17
REMARK    7  A    between atoms: C_17  and  C_18
REMARK    8  A    between atoms: C_23  and  N_26
REMARK                            x       y       z     vdW  Elec       q    Type
REMARK                         _______ _______ _______ _____ _____    ______ ____
ROOT
ATOM      1  C   UNL     1     -33.845  25.708   1.843  0.00  0.00    +0.107 C 
ENDROOT
BRANCH   1   4
ATOM      2  O   UNL     1     -34.102  23.630   0.607  0.00  0.00    -0.273 OA
ATOM      3  N   UNL     1     -32.103  24.769   0.449  0.00  0.00    -0.197 N 
ATOM      4  C   UNL     1     -33.389  24.587   0.899  0.00  0.00    +0.246 C 
ATOM      5  H   UNL     1     -31.564  25.551   0.707  0.00  0.00    +0.182 HD
BRANCH   3   6
ATOM      6  O   UNL     1     -31.605  23.772  -0.401  0.00  0.00    -0.295 OA
ATOM      7  H   UNL     1     -31.309  24.175  -1.233  0.00  0.00    +0.241 HD
ENDBRANCH   3   6
ENDBRANCH   1   4
BRANCH   1   8
ATOM      8  C   UNL     1     -35.082  25.232   2.649  0.00  0.00    +0.087 C 
BRANCH   8  11
ATOM      9  O   UNL     1     -36.098  27.360   2.425  0.00  0.00    -0.275 OA
ATOM     10  N   UNL     1     -37.426  25.520   1.926  0.00  0.00    -0.280 N 
ATOM     11  C   UNL     1     -36.241  26.140   2.325  0.00  0.00    +0.226 C 
ATOM     12  C   UNL     1     -37.613  24.075   1.753  0.00  0.00    +0.093 C 
ATOM     13  C   UNL     1     -38.598  26.334   1.596  0.00  0.00    +0.093 C 
ATOM     14  C   UNL     1     -38.814  23.584   2.559  0.00  0.00    +0.022 C 
ATOM     15  C   UNL     1     -39.816  25.887   2.399  0.00  0.00    +0.022 C 
ATOM     16  C   UNL     1     -40.070  24.390   2.232  0.00  0.00    +0.004 C 
ENDBRANCH   8  11
BRANCH   8  17
ATOM     17  C   UNL     1     -34.855  25.173   4.167  0.00  0.00    +0.010 C 
BRANCH  17  18
ATOM     18  C   UNL     1     -34.633  23.755   4.664  0.00  0.00    +0.000 C 
ATOM     19  C   UNL     1     -35.284  22.697   3.777  0.00  0.00    +0.000 C 
ATOM     20  C   UNL     1     -35.279  23.484   6.019  0.00  0.00    +0.000 C 
ATOM     21  C   UNL     1     -35.331  21.456   4.660  0.00  0.00    +0.000 C 
ATOM     22  C   UNL     1     -35.340  21.962   6.103  0.00  0.00    +0.000 C 
ENDBRANCH  17  18
ENDBRANCH   8  17
ENDBRANCH   1   8
BRANCH   1  23
ATOM     23  C   UNL     1     -32.693  26.202   2.730  0.00  0.00    +0.112 C 
BRANCH  23  26
ATOM     24  O   UNL     1     -33.362  28.189   4.787  0.00  0.00    -0.273 OA
ATOM     25  O   UNL     1     -31.668  27.854   0.524  0.00  0.00    -0.252 OA
ATOM     26  N   UNL     1     -32.553  27.634   2.673  0.00  0.00    -0.212 N 
ATOM     27  N   UNL     1     -32.079  29.694   1.922  0.00  0.00    -0.257 N 
ATOM     28  C   UNL     1     -32.598  29.936   3.265  0.00  0.00    +0.131 C 
ATOM     29  C   UNL     1     -32.896  28.497   3.697  0.00  0.00    +0.249 C 
ATOM     30  C   UNL     1     -32.055  28.333   1.582  0.00  0.00    +0.313 C 
ATOM     31  C   UNL     1     -31.549  30.542   4.195  0.00  0.00    +0.029 C 
ATOM     32  C   UNL     1     -33.893  30.745   3.254  0.00  0.00    +0.029 C 
ATOM     33  C   UNL     1     -31.635  30.762   1.044  0.00  0.00    +0.117 C 
ENDBRANCH  23  26
ENDBRANCH   1  23
TORSDOF 8
ENDMDL
