MODEL 1
REMARK VINA RESULT:      -6.2      0.000      0.000
REMARK  Name = 56673329
REMARK  7 active torsions:
REMARK  status: ('A' for Active; 'I' for Inactive)
REMARK    1  A    between atoms: N_1  and  C_6
REMARK    2  A    between atoms: C_3  and  C_18
REMARK    3  A    between atoms: C_5  and  C_31
REMARK    4  A    between atoms: C_9  and  S_12
REMARK    5  A    between atoms: S_12  and  N_15
REMARK    6  A    between atoms: C_23  and  C_25
REMARK    7  A    between atoms: C_25  and  O_26
REMARK                            x       y       z     vdW  Elec       q    Type
REMARK                         _______ _______ _______ _____ _____    ______ ____
ROOT
ATOM      1  N   UNL     1     -36.403  21.108   1.181  0.00  0.00    -0.190 N 
ATOM      2  N   UNL     1     -36.210  19.992   0.457  0.00  0.00    -0.170 NA
ATOM      3  C   UNL     1     -35.377  21.399   2.031  0.00  0.00    +0.075 C 
ATOM      4  C   UNL     1     -34.447  20.403   1.851  0.00  0.00    +0.041 C 
ATOM      5  C   UNL     1     -35.013  19.567   0.870  0.00  0.00    +0.172 C 
ENDROOT
BRANCH   1   6
ATOM      6  C   UNL     1     -37.579  21.840   1.011  0.00  0.00    +0.074 C 
ATOM      7  C   UNL     1     -38.629  21.692   1.917  0.00  0.00    +0.018 C 
ATOM      8  C   UNL     1     -37.704  22.721  -0.064  0.00  0.00    +0.018 C 
ATOM      9  C   UNL     1     -39.930  23.303   0.672  0.00  0.00    +0.122 C 
ATOM     10  C   UNL     1     -39.806  22.423   1.748  0.00  0.00    +0.021 C 
ATOM     11  C   UNL     1     -38.881  23.452  -0.233  0.00  0.00    +0.021 C 
BRANCH   9  12
ATOM     12  S   UNL     1     -41.401  24.219   0.460  0.00  0.00    +0.057 S 
ATOM     13  O   UNL     1     -42.455  23.306   0.039  0.00  0.00    -0.153 OA
ATOM     14  O   UNL     1     -41.598  25.057   1.634  0.00  0.00    -0.153 OA
BRANCH  12  15
ATOM     15  N   UNL     1     -40.978  25.217  -0.860  0.00  0.00    -0.203 NA
ATOM     16  H   UNL     1     -41.806  25.710  -1.193  0.00  0.00    +0.144 HD
ATOM     17  H   UNL     1     -40.598  24.642  -1.613  0.00  0.00    +0.144 HD
ENDBRANCH  12  15
ENDBRANCH   9  12
ENDBRANCH   1   6
BRANCH   3  18
ATOM     18  C   UNL     1     -35.342  22.542   2.910  0.00  0.00    +0.016 C 
ATOM     19  C   UNL     1     -34.990  23.796   2.409  0.00  0.00    +0.002 C 
ATOM     20  C   UNL     1     -35.661  22.394   4.260  0.00  0.00    +0.002 C 
ATOM     21  C   UNL     1     -34.956  24.902   3.258  0.00  0.00    +0.006 C 
ATOM     22  C   UNL     1     -35.627  23.500   5.109  0.00  0.00    +0.006 C 
ATOM     23  C   UNL     1     -35.275  24.753   4.608  0.00  0.00    +0.075 C 
BRANCH  23  25
ATOM     24  O   UNL     1     -34.260  26.288   6.137  0.00  0.00    -0.245 OA
ATOM     25  C   UNL     1     -35.242  25.907   5.493  0.00  0.00    +0.338 C 
BRANCH  25  26
ATOM     26  O   UNL     1     -36.438  26.557   5.547  0.00  0.00    -0.477 OA
ATOM     27  H   UNL     1     -36.842  26.861   4.758  0.00  0.00    +0.295 HD
ENDBRANCH  25  26
ENDBRANCH  23  25
ENDBRANCH   3  18
BRANCH   5  31
ATOM     28  F   UNL     1     -33.544  17.715   1.135  0.00  0.00    -0.164 F 
ATOM     29  F   UNL     1     -35.358  17.371  -0.015  0.00  0.00    -0.164 F 
ATOM     30  F   UNL     1     -33.739  18.533  -0.871  0.00  0.00    -0.164 F 
ATOM     31  C   UNL     1     -34.436  18.339   0.298  0.00  0.00    +0.436 C 
ENDBRANCH   5  31
TORSDOF 7
ENDMDL
MODEL 2
REMARK VINA RESULT:      -6.1      1.827      2.138
REMARK  Name = 56673329
REMARK  7 active torsions:
REMARK  status: ('A' for Active; 'I' for Inactive)
REMARK    1  A    between atoms: N_1  and  C_6
REMARK    2  A    between atoms: C_3  and  C_18
REMARK    3  A    between atoms: C_5  and  C_31
REMARK    4  A    between atoms: C_9  and  S_12
REMARK    5  A    between atoms: S_12  and  N_15
REMARK    6  A    between atoms: C_23  and  C_25
REMARK    7  A    between atoms: C_25  and  O_26
REMARK                            x       y       z     vdW  Elec       q    Type
REMARK                         _______ _______ _______ _____ _____    ______ ____
ROOT
ATOM      1  N   UNL     1     -36.816  22.263   1.532  0.00  0.00    -0.190 N 
ATOM      2  N   UNL     1     -37.055  21.154   0.812  0.00  0.00    -0.170 NA
ATOM      3  C   UNL     1     -35.567  22.308   2.077  0.00  0.00    +0.075 C 
ATOM      4  C   UNL     1     -34.945  21.147   1.687  0.00  0.00    +0.041 C 
ATOM      5  C   UNL     1     -35.908  20.476   0.910  0.00  0.00    +0.172 C 
ENDROOT
BRANCH   1   6
ATOM      6  C   UNL     1     -37.816  23.230   1.655  0.00  0.00    +0.074 C 
ATOM      7  C   UNL     1     -38.826  23.070   2.604  0.00  0.00    +0.018 C 
ATOM      8  C   UNL     1     -37.806  24.354   0.830  0.00  0.00    +0.018 C 
ATOM      9  C   UNL     1     -39.815  25.160   1.902  0.00  0.00    +0.122 C 
ATOM     10  C   UNL     1     -39.826  24.035   2.727  0.00  0.00    +0.021 C 
ATOM     11  C   UNL     1     -38.806  25.319   0.953  0.00  0.00    +0.021 C 
BRANCH   9  12
ATOM     12  S   UNL     1     -41.066  26.368   2.055  0.00  0.00    +0.057 S 
ATOM     13  O   UNL     1     -40.710  27.507   1.221  0.00  0.00    -0.153 OA
ATOM     14  O   UNL     1     -42.359  25.720   1.880  0.00  0.00    -0.153 OA
BRANCH  12  15
ATOM     15  N   UNL     1     -40.893  26.811   3.696  0.00  0.00    -0.203 NA
ATOM     16  H   UNL     1     -41.782  27.164   4.049  0.00  0.00    +0.144 HD
ATOM     17  H   UNL     1     -40.181  27.537   3.779  0.00  0.00    +0.144 HD
ENDBRANCH  12  15
ENDBRANCH   9  12
ENDBRANCH   1   6
BRANCH   3  18
ATOM     18  C   UNL     1     -35.067  23.392   2.886  0.00  0.00    +0.016 C 
ATOM     19  C   UNL     1     -34.420  24.472   2.283  0.00  0.00    +0.002 C 
ATOM     20  C   UNL     1     -35.231  23.362   4.271  0.00  0.00    +0.002 C 
ATOM     21  C   UNL     1     -33.936  25.520   3.065  0.00  0.00    +0.006 C 
ATOM     22  C   UNL     1     -34.746  24.411   5.053  0.00  0.00    +0.006 C 
ATOM     23  C   UNL     1     -34.099  25.490   4.450  0.00  0.00    +0.075 C 
BRANCH  23  25
ATOM     24  O   UNL     1     -33.225  26.491   6.439  0.00  0.00    -0.245 OA
ATOM     25  C   UNL     1     -33.597  26.584   5.265  0.00  0.00    +0.338 C 
BRANCH  25  26
ATOM     26  O   UNL     1     -33.569  27.767   4.590  0.00  0.00    -0.477 OA
ATOM     27  H   UNL     1     -33.266  27.793   3.703  0.00  0.00    +0.295 HD
ENDBRANCH  25  26
ENDBRANCH  23  25
ENDBRANCH   3  18
BRANCH   5  31
ATOM     28  F   UNL     1     -36.862  18.357   0.403  0.00  0.00    -0.164 F 
ATOM     29  F   UNL     1     -35.593  19.251  -1.121  0.00  0.00    -0.164 F 
ATOM     30  F   UNL     1     -34.706  18.422   0.675  0.00  0.00    -0.164 F 
ATOM     31  C   UNL     1     -35.770  19.173   0.239  0.00  0.00    +0.436 C 
ENDBRANCH   5  31
TORSDOF 7
ENDMDL
MODEL 3
REMARK VINA RESULT:      -6.1      5.440      7.768
REMARK  Name = 56673329
REMARK  7 active torsions:
REMARK  status: ('A' for Active; 'I' for Inactive)
REMARK    1  A    between atoms: N_1  and  C_6
REMARK    2  A    between atoms: C_3  and  C_18
REMARK    3  A    between atoms: C_5  and  C_31
REMARK    4  A    between atoms: C_9  and  S_12
REMARK    5  A    between atoms: S_12  and  N_15
REMARK    6  A    between atoms: C_23  and  C_25
REMARK    7  A    between atoms: C_25  and  O_26
REMARK                            x       y       z     vdW  Elec       q    Type
REMARK                         _______ _______ _______ _____ _____    ______ ____
ROOT
ATOM      1  N   UNL     1     -37.959  25.551   2.817  0.00  0.00    -0.190 N 
ATOM      2  N   UNL     1     -39.058  26.314   2.936  0.00  0.00    -0.170 NA
ATOM      3  C   UNL     1     -38.195  24.323   2.275  0.00  0.00    +0.075 C 
ATOM      4  C   UNL     1     -39.545  24.278   2.021  0.00  0.00    +0.041 C 
ATOM      5  C   UNL     1     -40.024  25.531   2.447  0.00  0.00    +0.172 C 
ENDROOT
BRANCH   1   6
ATOM      6  C   UNL     1     -36.726  26.055   3.238  0.00  0.00    +0.074 C 
ATOM      7  C   UNL     1     -36.270  25.792   4.530  0.00  0.00    +0.018 C 
ATOM      8  C   UNL     1     -35.950  26.820   2.367  0.00  0.00    +0.018 C 
ATOM      9  C   UNL     1     -34.264  27.060   4.080  0.00  0.00    +0.122 C 
ATOM     10  C   UNL     1     -35.039  26.295   4.951  0.00  0.00    +0.021 C 
ATOM     11  C   UNL     1     -34.719  27.323   2.788  0.00  0.00    +0.021 C 
BRANCH   9  12
ATOM     12  S   UNL     1     -32.723  27.690   4.606  0.00  0.00    +0.057 S 
ATOM     13  O   UNL     1     -31.679  27.103   3.779  0.00  0.00    -0.153 OA
ATOM     14  O   UNL     1     -32.829  29.139   4.715  0.00  0.00    -0.153 OA
BRANCH  12  15
ATOM     15  N   UNL     1     -32.619  27.029   6.177  0.00  0.00    -0.203 NA
ATOM     16  H   UNL     1     -33.379  27.393   6.751  0.00  0.00    +0.144 HD
ATOM     17  H   UNL     1     -31.724  27.286   6.595  0.00  0.00    +0.144 HD
ENDBRANCH  12  15
ENDBRANCH   9  12
ENDBRANCH   1   6
BRANCH   3  18
ATOM     18  C   UNL     1     -37.182  23.323   2.041  0.00  0.00    +0.016 C 
ATOM     19  C   UNL     1     -36.796  22.466   3.073  0.00  0.00    +0.002 C 
ATOM     20  C   UNL     1     -36.589  23.212   0.783  0.00  0.00    +0.002 C 
ATOM     21  C   UNL     1     -35.817  21.499   2.847  0.00  0.00    +0.006 C 
ATOM     22  C   UNL     1     -35.609  22.244   0.558  0.00  0.00    +0.006 C 
ATOM     23  C   UNL     1     -35.223  21.389   1.590  0.00  0.00    +0.075 C 
BRANCH  23  25
ATOM     24  O   UNL     1     -33.297  20.457   0.519  0.00  0.00    -0.245 OA
ATOM     25  C   UNL     1     -34.204  20.379   1.355  0.00  0.00    +0.338 C 
BRANCH  25  26
ATOM     26  O   UNL     1     -34.342  19.298   2.172  0.00  0.00    -0.477 OA
ATOM     27  H   UNL     1     -35.025  19.281   2.814  0.00  0.00    +0.295 HD
ENDBRANCH  25  26
ENDBRANCH  23  25
ENDBRANCH   3  18
BRANCH   5  31
ATOM     28  F   UNL     1     -41.551  27.196   1.704  0.00  0.00    -0.164 F 
ATOM     29  F   UNL     1     -42.301  25.157   1.816  0.00  0.00    -0.164 F 
ATOM     30  F   UNL     1     -41.958  26.284   3.637  0.00  0.00    -0.164 F 
ATOM     31  C   UNL     1     -41.411  26.022   2.404  0.00  0.00    +0.436 C 
ENDBRANCH   5  31
TORSDOF 7
ENDMDL
MODEL 4
REMARK VINA RESULT:      -6.0      2.274      5.519
REMARK  Name = 56673329
REMARK  7 active torsions:
REMARK  status: ('A' for Active; 'I' for Inactive)
REMARK    1  A    between atoms: N_1  and  C_6
REMARK    2  A    between atoms: C_3  and  C_18
REMARK    3  A    between atoms: C_5  and  C_31
REMARK    4  A    between atoms: C_9  and  S_12
REMARK    5  A    between atoms: S_12  and  N_15
REMARK    6  A    between atoms: C_23  and  C_25
REMARK    7  A    between atoms: C_25  and  O_26
REMARK                            x       y       z     vdW  Elec       q    Type
REMARK                         _______ _______ _______ _____ _____    ______ ____
ROOT
ATOM      1  N   UNL     1     -35.338  21.294   1.714  0.00  0.00    -0.190 N 
ATOM      2  N   UNL     1     -34.305  20.435   1.670  0.00  0.00    -0.170 NA
ATOM      3  C   UNL     1     -36.414  20.900   0.975  0.00  0.00    +0.075 C 
ATOM      4  C   UNL     1     -36.061  19.700   0.408  0.00  0.00    +0.041 C 
ATOM      5  C   UNL     1     -34.753  19.463   0.872  0.00  0.00    +0.172 C 
ENDROOT
BRANCH   1   6
ATOM      6  C   UNL     1     -35.229  22.460   2.475  0.00  0.00    +0.074 C 
ATOM      7  C   UNL     1     -35.576  22.446   3.825  0.00  0.00    +0.018 C 
ATOM      8  C   UNL     1     -34.771  23.638   1.885  0.00  0.00    +0.018 C 
ATOM      9  C   UNL     1     -35.010  24.788   3.995  0.00  0.00    +0.122 C 
ATOM     10  C   UNL     1     -35.468  23.610   4.586  0.00  0.00    +0.021 C 
ATOM     11  C   UNL     1     -34.662  24.803   2.646  0.00  0.00    +0.021 C 
BRANCH   9  12
ATOM     12  S   UNL     1     -34.874  26.246   4.947  0.00  0.00    +0.057 S 
ATOM     13  O   UNL     1     -34.059  25.956   6.118  0.00  0.00    -0.153 OA
ATOM     14  O   UNL     1     -34.503  27.342   4.062  0.00  0.00    -0.153 OA
BRANCH  12  15
ATOM     15  N   UNL     1     -36.493  26.466   5.443  0.00  0.00    -0.203 NA
ATOM     16  H   UNL     1     -37.115  25.967   4.806  0.00  0.00    +0.144 HD
ATOM     17  H   UNL     1     -36.720  27.460   5.431  0.00  0.00    +0.144 HD
ENDBRANCH  12  15
ENDBRANCH   9  12
ENDBRANCH   1   6
BRANCH   3  18
ATOM     18  C   UNL     1     -37.645  21.644   0.862  0.00  0.00    +0.016 C 
ATOM     19  C   UNL     1     -38.616  21.542   1.860  0.00  0.00    +0.002 C 
ATOM     20  C   UNL     1     -37.864  22.467  -0.243  0.00  0.00    +0.002 C 
ATOM     21  C   UNL     1     -39.806  22.262   1.751  0.00  0.00    +0.006 C 
ATOM     22  C   UNL     1     -39.055  23.186  -0.352  0.00  0.00    +0.006 C 
ATOM     23  C   UNL     1     -40.025  23.083   0.645  0.00  0.00    +0.075 C 
BRANCH  23  25
ATOM     24  O   UNL     1     -42.320  23.409   0.053  0.00  0.00    -0.245 OA
ATOM     25  C   UNL     1     -41.265  23.835   0.533  0.00  0.00    +0.338 C 
BRANCH  25  26
ATOM     26  O   UNL     1     -41.154  25.099   1.028  0.00  0.00    -0.477 OA
ATOM     27  H   UNL     1     -41.035  25.233   1.948  0.00  0.00    +0.295 HD
ENDBRANCH  25  26
ENDBRANCH  23  25
ENDBRANCH   3  18
BRANCH   5  31
ATOM     28  F   UNL     1     -33.066  18.513  -0.509  0.00  0.00    -0.164 F 
ATOM     29  F   UNL     1     -33.046  17.950   1.592  0.00  0.00    -0.164 F 
ATOM     30  F   UNL     1     -34.573  17.154   0.274  0.00  0.00    -0.164 F 
ATOM     31  C   UNL     1     -33.891  18.309   0.570  0.00  0.00    +0.436 C 
ENDBRANCH   5  31
TORSDOF 7
ENDMDL
MODEL 5
REMARK VINA RESULT:      -6.0      5.083      6.429
REMARK  Name = 56673329
REMARK  7 active torsions:
REMARK  status: ('A' for Active; 'I' for Inactive)
REMARK    1  A    between atoms: N_1  and  C_6
REMARK    2  A    between atoms: C_3  and  C_18
REMARK    3  A    between atoms: C_5  and  C_31
REMARK    4  A    between atoms: C_9  and  S_12
REMARK    5  A    between atoms: S_12  and  N_15
REMARK    6  A    between atoms: C_23  and  C_25
REMARK    7  A    between atoms: C_25  and  O_26
REMARK                            x       y       z     vdW  Elec       q    Type
REMARK                         _______ _______ _______ _____ _____    ______ ____
ROOT
ATOM      1  N   UNL     1     -35.264  26.359   3.225  0.00  0.00    -0.190 N 
ATOM      2  N   UNL     1     -34.731  27.516   3.654  0.00  0.00    -0.170 NA
ATOM      3  C   UNL     1     -34.421  25.293   3.328  0.00  0.00    +0.075 C 
ATOM      4  C   UNL     1     -33.255  25.785   3.862  0.00  0.00    +0.041 C 
ATOM      5  C   UNL     1     -33.504  27.159   4.043  0.00  0.00    +0.172 C 
ENDROOT
BRANCH   1   6
ATOM      6  C   UNL     1     -36.571  26.347   2.733  0.00  0.00    +0.074 C 
ATOM      7  C   UNL     1     -37.599  25.801   3.501  0.00  0.00    +0.018 C 
ATOM      8  C   UNL     1     -36.849  26.882   1.475  0.00  0.00    +0.018 C 
ATOM      9  C   UNL     1     -39.182  26.322   1.753  0.00  0.00    +0.122 C 
ATOM     10  C   UNL     1     -38.905  25.788   3.011  0.00  0.00    +0.021 C 
ATOM     11  C   UNL     1     -38.155  26.869   0.985  0.00  0.00    +0.021 C 
BRANCH   9  12
ATOM     12  S   UNL     1     -40.816  26.307   1.139  0.00  0.00    +0.057 S 
ATOM     13  O   UNL     1     -40.796  26.789  -0.235  0.00  0.00    -0.153 OA
ATOM     14  O   UNL     1     -41.412  25.012   1.442  0.00  0.00    -0.153 OA
BRANCH  12  15
ATOM     15  N   UNL     1     -41.549  27.491   2.128  0.00  0.00    -0.203 NA
ATOM     16  H   UNL     1     -41.511  28.396   1.660  0.00  0.00    +0.144 HD
ATOM     17  H   UNL     1     -41.052  27.546   3.017  0.00  0.00    +0.144 HD
ENDBRANCH  12  15
ENDBRANCH   9  12
ENDBRANCH   1   6
BRANCH   3  18
ATOM     18  C   UNL     1     -34.757  23.945   2.939  0.00  0.00    +0.016 C 
ATOM     19  C   UNL     1     -35.214  23.036   3.895  0.00  0.00    +0.002 C 
ATOM     20  C   UNL     1     -34.626  23.550   1.607  0.00  0.00    +0.002 C 
ATOM     21  C   UNL     1     -35.540  21.733   3.519  0.00  0.00    +0.006 C 
ATOM     22  C   UNL     1     -34.951  22.246   1.232  0.00  0.00    +0.006 C 
ATOM     23  C   UNL     1     -35.408  21.338   2.187  0.00  0.00    +0.075 C 
BRANCH  23  25
ATOM     24  O   UNL     1     -35.116  19.285   0.995  0.00  0.00    -0.245 OA
ATOM     25  C   UNL     1     -35.749  19.980   1.796  0.00  0.00    +0.338 C 
BRANCH  25  26
ATOM     26  O   UNL     1     -36.872  19.525   2.419  0.00  0.00    -0.477 OA
ATOM     27  H   UNL     1     -36.844  19.299   3.328  0.00  0.00    +0.295 HD
ENDBRANCH  25  26
ENDBRANCH  23  25
ENDBRANCH   3  18
BRANCH   5  31
ATOM     28  F   UNL     1     -31.285  28.002   4.183  0.00  0.00    -0.164 F 
ATOM     29  F   UNL     1     -32.895  29.464   4.239  0.00  0.00    -0.164 F 
ATOM     30  F   UNL     1     -32.523  28.199   5.960  0.00  0.00    -0.164 F 
ATOM     31  C   UNL     1     -32.586  28.172   4.588  0.00  0.00    +0.436 C 
ENDBRANCH   5  31
TORSDOF 7
ENDMDL
MODEL 6
REMARK VINA RESULT:      -5.9      5.127      6.450
REMARK  Name = 56673329
REMARK  7 active torsions:
REMARK  status: ('A' for Active; 'I' for Inactive)
REMARK    1  A    between atoms: N_1  and  C_6
REMARK    2  A    between atoms: C_3  and  C_18
REMARK    3  A    between atoms: C_5  and  C_31
REMARK    4  A    between atoms: C_9  and  S_12
REMARK    5  A    between atoms: S_12  and  N_15
REMARK    6  A    between atoms: C_23  and  C_25
REMARK    7  A    between atoms: C_25  and  O_26
REMARK                            x       y       z     vdW  Elec       q    Type
REMARK                         _______ _______ _______ _____ _____    ______ ____
ROOT
ATOM      1  N   UNL     1     -36.695  27.273   1.978  0.00  0.00    -0.190 N 
ATOM      2  N   UNL     1     -36.553  28.525   1.511  0.00  0.00    -0.170 NA
ATOM      3  C   UNL     1     -35.722  26.898   2.856  0.00  0.00    +0.075 C 
ATOM      4  C   UNL     1     -34.884  27.980   2.973  0.00  0.00    +0.041 C 
ATOM      5  C   UNL     1     -35.445  28.952   2.124  0.00  0.00    +0.172 C 
ENDROOT
BRANCH   1   6
ATOM      6  C   UNL     1     -37.774  26.498   1.545  0.00  0.00    +0.074 C 
ATOM      7  C   UNL     1     -38.836  26.238   2.411  0.00  0.00    +0.018 C 
ATOM      8  C   UNL     1     -37.790  25.986   0.248  0.00  0.00    +0.018 C 
ATOM      9  C   UNL     1     -39.929  24.952   0.683  0.00  0.00    +0.122 C 
ATOM     10  C   UNL     1     -39.914  25.465   1.980  0.00  0.00    +0.021 C 
ATOM     11  C   UNL     1     -38.868  25.212  -0.183  0.00  0.00    +0.021 C 
BRANCH   9  12
ATOM     12  S   UNL     1     -41.278  23.984   0.142  0.00  0.00    +0.057 S 
ATOM     13  O   UNL     1     -42.440  24.320   0.953  0.00  0.00    -0.153 OA
ATOM     14  O   UNL     1     -41.359  24.074  -1.309  0.00  0.00    -0.153 OA
BRANCH  12  15
ATOM     15  N   UNL     1     -40.746  22.417   0.565  0.00  0.00    -0.203 NA
ATOM     16  H   UNL     1     -39.851  22.228   0.114  0.00  0.00    +0.144 HD
ATOM     17  H   UNL     1     -41.434  21.730   0.257  0.00  0.00    +0.144 HD
ENDBRANCH  12  15
ENDBRANCH   9  12
ENDBRANCH   1   6
BRANCH   3  18
ATOM     18  C   UNL     1     -35.652  25.607   3.497  0.00  0.00    +0.016 C 
ATOM     19  C   UNL     1     -36.010  25.476   4.840  0.00  0.00    +0.002 C 
ATOM     20  C   UNL     1     -35.229  24.491   2.776  0.00  0.00    +0.002 C 
ATOM     21  C   UNL     1     -35.944  24.229   5.461  0.00  0.00    +0.006 C 
ATOM     22  C   UNL     1     -35.162  23.244   3.398  0.00  0.00    +0.006 C 
ATOM     23  C   UNL     1     -35.520  23.113   4.739  0.00  0.00    +0.075 C 
BRANCH  23  25
ATOM     24  O   UNL     1     -34.921  20.803   4.913  0.00  0.00    -0.245 OA
ATOM     25  C   UNL     1     -35.452  21.812   5.386  0.00  0.00    +0.338 C 
BRANCH  25  26
ATOM     26  O   UNL     1     -36.050  21.808   6.610  0.00  0.00    -0.477 OA
ATOM     27  H   UNL     1     -36.951  21.563   6.691  0.00  0.00    +0.295 HD
ENDBRANCH  25  26
ENDBRANCH  23  25
ENDBRANCH   3  18
BRANCH   5  31
ATOM     28  F   UNL     1     -35.231  30.768   0.603  0.00  0.00    -0.164 F 
ATOM     29  F   UNL     1     -35.462  31.273   2.707  0.00  0.00    -0.164 F 
ATOM     30  F   UNL     1     -33.586  30.452   1.991  0.00  0.00    -0.164 F 
ATOM     31  C   UNL     1     -34.948  30.314   1.868  0.00  0.00    +0.436 C 
ENDBRANCH   5  31
TORSDOF 7
ENDMDL
MODEL 7
REMARK VINA RESULT:      -5.9      4.959      7.443
REMARK  Name = 56673329
REMARK  7 active torsions:
REMARK  status: ('A' for Active; 'I' for Inactive)
REMARK    1  A    between atoms: N_1  and  C_6
REMARK    2  A    between atoms: C_3  and  C_18
REMARK    3  A    between atoms: C_5  and  C_31
REMARK    4  A    between atoms: C_9  and  S_12
REMARK    5  A    between atoms: S_12  and  N_15
REMARK    6  A    between atoms: C_23  and  C_25
REMARK    7  A    between atoms: C_25  and  O_26
REMARK                            x       y       z     vdW  Elec       q    Type
REMARK                         _______ _______ _______ _____ _____    ______ ____
ROOT
ATOM      1  N   UNL     1     -35.717  23.187   2.842  0.00  0.00    -0.190 N 
ATOM      2  N   UNL     1     -34.963  23.869   3.722  0.00  0.00    -0.170 NA
ATOM      3  C   UNL     1     -37.003  23.631   2.757  0.00  0.00    +0.075 C 
ATOM      4  C   UNL     1     -37.098  24.677   3.643  0.00  0.00    +0.041 C 
ATOM      5  C   UNL     1     -35.813  24.778   4.207  0.00  0.00    +0.172 C 
ENDROOT
BRANCH   1   6
ATOM      6  C   UNL     1     -35.148  22.133   2.124  0.00  0.00    +0.074 C 
ATOM      7  C   UNL     1     -35.211  20.833   2.627  0.00  0.00    +0.018 C 
ATOM      8  C   UNL     1     -34.516  22.379   0.905  0.00  0.00    +0.018 C 
ATOM      9  C   UNL     1     -34.012  20.027   0.692  0.00  0.00    +0.122 C 
ATOM     10  C   UNL     1     -34.643  19.780   1.910  0.00  0.00    +0.021 C 
ATOM     11  C   UNL     1     -33.948  21.326   0.189  0.00  0.00    +0.021 C 
BRANCH   9  12
ATOM     12  S   UNL     1     -33.300  18.709  -0.206  0.00  0.00    +0.057 S 
ATOM     13  O   UNL     1     -33.656  18.863  -1.609  0.00  0.00    -0.153 OA
ATOM     14  O   UNL     1     -31.899  18.594   0.175  0.00  0.00    -0.153 OA
BRANCH  12  15
ATOM     15  N   UNL     1     -34.154  17.377   0.437  0.00  0.00    -0.203 NA
ATOM     16  H   UNL     1     -33.946  16.543  -0.111  0.00  0.00    +0.144 HD
ATOM     17  H   UNL     1     -35.155  17.566   0.402  0.00  0.00    +0.144 HD
ENDBRANCH  12  15
ENDBRANCH   9  12
ENDBRANCH   1   6
BRANCH   3  18
ATOM     18  C   UNL     1     -38.006  23.070   1.886  0.00  0.00    +0.016 C 
ATOM     19  C   UNL     1     -38.207  23.611   0.615  0.00  0.00    +0.002 C 
ATOM     20  C   UNL     1     -38.773  21.985   2.312  0.00  0.00    +0.002 C 
ATOM     21  C   UNL     1     -39.177  23.068  -0.228  0.00  0.00    +0.006 C 
ATOM     22  C   UNL     1     -39.743  21.443   1.468  0.00  0.00    +0.006 C 
ATOM     23  C   UNL     1     -39.944  21.984   0.199  0.00  0.00    +0.075 C 
BRANCH  23  25
ATOM     24  O   UNL     1     -41.066  21.655  -1.888  0.00  0.00    -0.245 OA
ATOM     25  C   UNL     1     -40.953  21.417  -0.682  0.00  0.00    +0.338 C 
BRANCH  25  26
ATOM     26  O   UNL     1     -41.794  20.566  -0.031  0.00  0.00    -0.477 OA
ATOM     27  H   UNL     1     -42.588  20.285  -0.443  0.00  0.00    +0.295 HD
ENDBRANCH  25  26
ENDBRANCH  23  25
ENDBRANCH   3  18
BRANCH   5  31
ATOM     28  F   UNL     1     -36.350  26.151   6.073  0.00  0.00    -0.164 F 
ATOM     29  F   UNL     1     -34.365  25.262   6.049  0.00  0.00    -0.164 F 
ATOM     30  F   UNL     1     -34.832  26.901   4.708  0.00  0.00    -0.164 F 
ATOM     31  C   UNL     1     -35.353  25.739   5.223  0.00  0.00    +0.436 C 
ENDBRANCH   5  31
TORSDOF 7
ENDMDL
MODEL 8
REMARK VINA RESULT:      -5.8      4.608      6.006
REMARK  Name = 56673329
REMARK  7 active torsions:
REMARK  status: ('A' for Active; 'I' for Inactive)
REMARK    1  A    between atoms: N_1  and  C_6
REMARK    2  A    between atoms: C_3  and  C_18
REMARK    3  A    between atoms: C_5  and  C_31
REMARK    4  A    between atoms: C_9  and  S_12
REMARK    5  A    between atoms: S_12  and  N_15
REMARK    6  A    between atoms: C_23  and  C_25
REMARK    7  A    between atoms: C_25  and  O_26
REMARK                            x       y       z     vdW  Elec       q    Type
REMARK                         _______ _______ _______ _____ _____    ______ ____
ROOT
ATOM      1  N   UNL     1     -36.666  23.817   2.775  0.00  0.00    -0.190 N 
ATOM      2  N   UNL     1     -36.804  24.879   3.588  0.00  0.00    -0.170 NA
ATOM      3  C   UNL     1     -35.438  23.230   2.839  0.00  0.00    +0.075 C 
ATOM      4  C   UNL     1     -34.721  23.958   3.758  0.00  0.00    +0.041 C 
ATOM      5  C   UNL     1     -35.613  24.959   4.186  0.00  0.00    +0.172 C 
ENDROOT
BRANCH   1   6
ATOM      6  C   UNL     1     -37.740  23.424   1.973  0.00  0.00    +0.074 C 
ATOM      7  C   UNL     1     -38.569  22.380   2.382  0.00  0.00    +0.018 C 
ATOM      8  C   UNL     1     -37.983  24.076   0.764  0.00  0.00    +0.018 C 
ATOM      9  C   UNL     1     -39.884  22.638   0.372  0.00  0.00    +0.122 C 
ATOM     10  C   UNL     1     -39.642  21.986   1.581  0.00  0.00    +0.021 C 
ATOM     11  C   UNL     1     -39.055  23.682  -0.037  0.00  0.00    +0.021 C 
BRANCH   9  12
ATOM     12  S   UNL     1     -41.226  22.146  -0.632  0.00  0.00    +0.057 S 
ATOM     13  O   UNL     1     -42.365  23.000  -0.327  0.00  0.00    -0.153 OA
ATOM     14  O   UNL     1     -40.757  22.030  -2.006  0.00  0.00    -0.153 OA
BRANCH  12  15
ATOM     15  N   UNL     1     -41.532  20.580  -0.023  0.00  0.00    -0.203 NA
ATOM     16  H   UNL     1     -42.316  20.615   0.628  0.00  0.00    +0.144 HD
ATOM     17  H   UNL     1     -40.703  20.235   0.460  0.00  0.00    +0.144 HD
ENDBRANCH  12  15
ENDBRANCH   9  12
ENDBRANCH   1   6
BRANCH   3  18
ATOM     18  C   UNL     1     -35.042  22.075   2.070  0.00  0.00    +0.016 C 
ATOM     19  C   UNL     1     -35.211  20.795   2.598  0.00  0.00    +0.002 C 
ATOM     20  C   UNL     1     -34.492  22.239   0.798  0.00  0.00    +0.002 C 
ATOM     21  C   UNL     1     -34.829  19.678   1.854  0.00  0.00    +0.006 C 
ATOM     22  C   UNL     1     -34.110  21.122   0.055  0.00  0.00    +0.006 C 
ATOM     23  C   UNL     1     -34.279  19.842   0.583  0.00  0.00    +0.075 C 
BRANCH  23  25
ATOM     24  O   UNL     1     -33.278  18.706  -1.269  0.00  0.00    -0.245 OA
ATOM     25  C   UNL     1     -33.883  18.678  -0.193  0.00  0.00    +0.338 C 
BRANCH  25  26
ATOM     26  O   UNL     1     -34.251  17.508   0.399  0.00  0.00    -0.477 OA
ATOM     27  H   UNL     1     -33.841  17.238   1.198  0.00  0.00    +0.295 HD
ENDBRANCH  25  26
ENDBRANCH  23  25
ENDBRANCH   3  18
BRANCH   5  31
ATOM     28  F   UNL     1     -34.947  27.202   4.610  0.00  0.00    -0.164 F 
ATOM     29  F   UNL     1     -36.455  26.360   5.934  0.00  0.00    -0.164 F 
ATOM     30  F   UNL     1     -34.390  25.716   6.098  0.00  0.00    -0.164 F 
ATOM     31  C   UNL     1     -35.361  26.021   5.175  0.00  0.00    +0.436 C 
ENDBRANCH   5  31
TORSDOF 7
ENDMDL
MODEL 9
REMARK VINA RESULT:      -5.8      6.594      8.734
REMARK  Name = 56673329
REMARK  7 active torsions:
REMARK  status: ('A' for Active; 'I' for Inactive)
REMARK    1  A    between atoms: N_1  and  C_6
REMARK    2  A    between atoms: C_3  and  C_18
REMARK    3  A    between atoms: C_5  and  C_31
REMARK    4  A    between atoms: C_9  and  S_12
REMARK    5  A    between atoms: S_12  and  N_15
REMARK    6  A    between atoms: C_23  and  C_25
REMARK    7  A    between atoms: C_25  and  O_26
REMARK                            x       y       z     vdW  Elec       q    Type
REMARK                         _______ _______ _______ _____ _____    ______ ____
ROOT
ATOM      1  N   UNL     1     -32.590  27.809   4.633  0.00  0.00    -0.190 N 
ATOM      2  N   UNL     1     -31.573  27.633   5.493  0.00  0.00    -0.170 NA
ATOM      3  C   UNL     1     -32.614  29.042   4.051  0.00  0.00    +0.075 C 
ATOM      4  C   UNL     1     -31.536  29.721   4.567  0.00  0.00    +0.041 C 
ATOM      5  C   UNL     1     -30.932  28.804   5.448  0.00  0.00    +0.172 C 
ENDROOT
BRANCH   1   6
ATOM      6  C   UNL     1     -33.494  26.766   4.417  0.00  0.00    +0.074 C 
ATOM      7  C   UNL     1     -33.366  25.956   3.289  0.00  0.00    +0.018 C 
ATOM      8  C   UNL     1     -34.523  26.534   5.330  0.00  0.00    +0.018 C 
ATOM      9  C   UNL     1     -35.297  24.683   3.985  0.00  0.00    +0.122 C 
ATOM     10  C   UNL     1     -34.268  24.914   3.072  0.00  0.00    +0.021 C 
ATOM     11  C   UNL     1     -35.425  25.492   5.113  0.00  0.00    +0.021 C 
BRANCH   9  12
ATOM     12  S   UNL     1     -36.427  23.379   3.715  0.00  0.00    +0.057 S 
ATOM     13  O   UNL     1     -37.776  23.925   3.744  0.00  0.00    -0.153 OA
ATOM     14  O   UNL     1     -35.982  22.614   2.558  0.00  0.00    -0.153 OA
BRANCH  12  15
ATOM     15  N   UNL     1     -36.182  22.438   5.119  0.00  0.00    -0.203 NA
ATOM     16  H   UNL     1     -37.067  22.328   5.613  0.00  0.00    +0.144 HD
ATOM     17  H   UNL     1     -35.508  22.904   5.727  0.00  0.00    +0.144 HD
ENDBRANCH  12  15
ENDBRANCH   9  12
ENDBRANCH   1   6
BRANCH   3  18
ATOM     18  C   UNL     1     -33.600  29.475   3.092  0.00  0.00    +0.016 C 
ATOM     19  C   UNL     1     -34.646  30.306   3.495  0.00  0.00    +0.002 C 
ATOM     20  C   UNL     1     -33.509  29.064   1.762  0.00  0.00    +0.002 C 
ATOM     21  C   UNL     1     -35.601  30.726   2.568  0.00  0.00    +0.006 C 
ATOM     22  C   UNL     1     -34.464  29.483   0.835  0.00  0.00    +0.006 C 
ATOM     23  C   UNL     1     -35.509  30.314   1.238  0.00  0.00    +0.075 C 
BRANCH  23  25
ATOM     24  O   UNL     1     -36.261  31.175  -0.863  0.00  0.00    -0.245 OA
ATOM     25  C   UNL     1     -36.503  30.753   0.272  0.00  0.00    +0.338 C 
BRANCH  25  26
ATOM     26  O   UNL     1     -37.774  30.650   0.749  0.00  0.00    -0.477 OA
ATOM     27  H   UNL     1     -37.957  30.091   1.479  0.00  0.00    +0.295 HD
ENDBRANCH  25  26
ENDBRANCH  23  25
ENDBRANCH   3  18
BRANCH   5  31
ATOM     28  F   UNL     1     -29.031  27.857   6.516  0.00  0.00    -0.164 F 
ATOM     29  F   UNL     1     -28.808  29.871   5.724  0.00  0.00    -0.164 F 
ATOM     30  F   UNL     1     -29.982  29.536   7.517  0.00  0.00    -0.164 F 
ATOM     31  C   UNL     1     -29.730  29.012   6.272  0.00  0.00    +0.436 C 
ENDBRANCH   5  31
TORSDOF 7
ENDMDL
