MODEL 1
REMARK VINA RESULT:      -7.0      0.000      0.000
REMARK  Name = 20966
REMARK  7 active torsions:
REMARK  status: ('A' for Active; 'I' for Inactive)
REMARK    1  A    between atoms: N_2  and  CA_19
REMARK    2  A    between atoms: C_3  and  C_12
REMARK    3  A    between atoms: C_11  and  O_17
REMARK    4  A    between atoms: CA_19  and  C_21
REMARK    5  A    between atoms: CA_19  and  CB_24
REMARK    6  A    between atoms: C_21  and  O_22
REMARK    7  A    between atoms: CB_24  and  CG_25
REMARK                            x       y       z     vdW  Elec       q    Type
REMARK                         _______ _______ _______ _____ _____    ______ ____
ROOT
ATOM      1  O   UNL     1     -36.465  24.246   1.764  0.00  0.00    -0.270 OA
ATOM      2  N   UNL     1     -37.170  23.826   3.933  0.00  0.00    -0.293 N 
ATOM      3  C   ACE A   0     -37.389  24.136   2.587  0.00  0.00    +0.249 C 
ATOM      4  H   UNL     1     -37.950  23.754   4.527  0.00  0.00    +0.150 HD
ENDROOT
BRANCH   3  12
ATOM      5  O   UNL     1     -42.823  26.975   2.253  0.00  0.00    -0.449 OA
ATOM      6  O   UNL     1     -41.262  27.309   3.860  0.00  0.00    -0.245 OA
ATOM      7  C   UNL     1     -42.841  24.937   0.933  0.00  0.00    +0.070 C 
ATOM      8  C   UNL     1     -43.116  26.433   0.946  0.00  0.00    +0.174 C 
ATOM      9  C   UNL     1     -41.415  24.732   1.345  0.00  0.00    -0.009 C 
ATOM     10  C   UNL     1     -40.838  25.602   2.279  0.00  0.00    +0.106 C 
ATOM     11  C   UNL     1     -39.516  25.414   2.694  0.00  0.00    +0.144 C 
ATOM     12  C   UNL     1     -38.771  24.354   2.178  0.00  0.00    +0.087 C 
ATOM     13  C   UNL     1     -40.664  23.663   0.845  0.00  0.00    -0.004 C 
ATOM     14  C   UNL     1     -41.639  26.703   2.866  0.00  0.00    +0.344 C 
ATOM     15  C   UNL     1     -44.577  26.732   0.641  0.00  0.00    +0.048 C 
ATOM     16  C   UNL     1     -39.344  23.478   1.257  0.00  0.00    +0.007 C 
BRANCH  11  17
ATOM     17  O   UNL     1     -38.919  26.253   3.590  0.00  0.00    -0.505 OA
ATOM     18  H   UNL     1     -39.051  26.128   4.509  0.00  0.00    +0.292 HD
ENDBRANCH  11  17
ENDBRANCH   3  12
BRANCH   2  19
ATOM     19  CA  UNL     1     -35.857  23.605   4.495  0.00  0.00    +0.176 C 
BRANCH  19  21
ATOM     20  OXT UNL     1     -35.283  21.263   4.305  0.00  0.00    -0.248 OA
ATOM     21  C   UNL     1     -35.710  22.178   5.002  0.00  0.00    +0.332 C 
BRANCH  21  22
ATOM     22  O   UNL     1     -36.079  21.991   6.292  0.00  0.00    -0.479 OA
ATOM     23  H   UNL     1     -35.474  21.619   6.903  0.00  0.00    +0.295 HD
ENDBRANCH  21  22
ENDBRANCH  19  21
BRANCH  19  24
ATOM     24  CB  UNL     1     -35.569  24.596   5.630  0.00  0.00    +0.057 C 
BRANCH  24  25
ATOM     25  CG  UNL     1     -34.560  25.653   5.247  0.00  0.00    -0.020 C 
ATOM     26  CD1 UNL     1     -33.812  26.268   6.240  0.00  0.00    -0.004 C 
ATOM     27  CD2 UNL     1     -34.401  25.989   3.912  0.00  0.00    -0.004 C 
ATOM     28  CE1 UNL     1     -32.881  27.244   5.886  0.00  0.00    -0.000 C 
ATOM     29  CE2 UNL     1     -33.469  26.966   3.560  0.00  0.00    -0.000 C 
ATOM     30  CZ  UNL     1     -32.709  27.593   4.546  0.00  0.00    -0.000 C 
ENDBRANCH  24  25
ENDBRANCH  19  24
ENDBRANCH   2  19
TORSDOF 7
ENDMDL
MODEL 2
REMARK VINA RESULT:      -6.9      3.081      8.182
REMARK  Name = 20966
REMARK  7 active torsions:
REMARK  status: ('A' for Active; 'I' for Inactive)
REMARK    1  A    between atoms: N_2  and  CA_19
REMARK    2  A    between atoms: C_3  and  C_12
REMARK    3  A    between atoms: C_11  and  O_17
REMARK    4  A    between atoms: CA_19  and  C_21
REMARK    5  A    between atoms: CA_19  and  CB_24
REMARK    6  A    between atoms: C_21  and  O_22
REMARK    7  A    between atoms: CB_24  and  CG_25
REMARK                            x       y       z     vdW  Elec       q    Type
REMARK                         _______ _______ _______ _____ _____    ______ ____
ROOT
ATOM      1  O   UNL     1     -36.223  25.762   5.459  0.00  0.00    -0.270 OA
ATOM      2  N   UNL     1     -34.663  24.117   4.971  0.00  0.00    -0.293 N 
ATOM      3  C   ACE A   0     -35.039  25.426   5.292  0.00  0.00    +0.249 C 
ATOM      4  H   UNL     1     -33.705  23.923   4.854  0.00  0.00    +0.150 HD
ENDROOT
BRANCH   3  12
ATOM      5  O   UNL     1     -31.232  29.888   3.479  0.00  0.00    -0.449 OA
ATOM      6  O   UNL     1     -32.367  28.491   2.106  0.00  0.00    -0.245 OA
ATOM      7  C   UNL     1     -30.810  29.293   5.795  0.00  0.00    +0.070 C 
ATOM      8  C   UNL     1     -31.092  30.422   4.815  0.00  0.00    +0.174 C 
ATOM      9  C   UNL     1     -31.923  28.297   5.677  0.00  0.00    -0.009 C 
ATOM     10  C   UNL     1     -32.526  28.086   4.430  0.00  0.00    +0.106 C 
ATOM     11  C   UNL     1     -33.550  27.145   4.293  0.00  0.00    +0.144 C 
ATOM     12  C   UNL     1     -33.970  26.410   5.402  0.00  0.00    +0.087 C 
ATOM     13  C   UNL     1     -32.341  27.544   6.780  0.00  0.00    -0.004 C 
ATOM     14  C   UNL     1     -32.053  28.831   3.238  0.00  0.00    +0.344 C 
ATOM     15  C   UNL     1     -29.956  31.433   4.790  0.00  0.00    +0.048 C 
ATOM     16  C   UNL     1     -33.365  26.607   6.642  0.00  0.00    +0.007 C 
BRANCH  11  17
ATOM     17  O   UNL     1     -34.170  26.927   3.097  0.00  0.00    -0.505 OA
ATOM     18  H   UNL     1     -34.373  26.053   2.826  0.00  0.00    +0.292 HD
ENDBRANCH  11  17
ENDBRANCH   3  12
BRANCH   2  19
ATOM     19  CA  UNL     1     -35.606  23.036   4.804  0.00  0.00    +0.176 C 
BRANCH  19  21
ATOM     20  OXT UNL     1     -35.209  22.037   6.971  0.00  0.00    -0.248 OA
ATOM     21  C   UNL     1     -35.302  21.889   5.757  0.00  0.00    +0.332 C 
BRANCH  21  22
ATOM     22  O   UNL     1     -35.149  20.681   5.163  0.00  0.00    -0.479 OA
ATOM     23  H   UNL     1     -34.328  20.234   5.218  0.00  0.00    +0.295 HD
ENDBRANCH  21  22
ENDBRANCH  19  21
BRANCH  19  24
ATOM     24  CB  UNL     1     -35.613  22.527   3.357  0.00  0.00    +0.057 C 
BRANCH  24  25
ATOM     25  CG  UNL     1     -36.993  22.501   2.747  0.00  0.00    -0.020 C 
ATOM     26  CD1 UNL     1     -37.379  21.408   1.986  0.00  0.00    -0.004 C 
ATOM     27  CD2 UNL     1     -37.850  23.570   2.958  0.00  0.00    -0.004 C 
ATOM     28  CE1 UNL     1     -38.655  21.384   1.422  0.00  0.00    -0.000 C 
ATOM     29  CE2 UNL     1     -39.126  23.545   2.394  0.00  0.00    -0.000 C 
ATOM     30  CZ  UNL     1     -39.528  22.453   1.627  0.00  0.00    -0.000 C 
ENDBRANCH  24  25
ENDBRANCH  19  24
ENDBRANCH   2  19
TORSDOF 7
ENDMDL
MODEL 3
REMARK VINA RESULT:      -6.7      4.523      7.225
REMARK  Name = 20966
REMARK  7 active torsions:
REMARK  status: ('A' for Active; 'I' for Inactive)
REMARK    1  A    between atoms: N_2  and  CA_19
REMARK    2  A    between atoms: C_3  and  C_12
REMARK    3  A    between atoms: C_11  and  O_17
REMARK    4  A    between atoms: CA_19  and  C_21
REMARK    5  A    between atoms: CA_19  and  CB_24
REMARK    6  A    between atoms: C_21  and  O_22
REMARK    7  A    between atoms: CB_24  and  CG_25
REMARK                            x       y       z     vdW  Elec       q    Type
REMARK                         _______ _______ _______ _____ _____    ______ ____
ROOT
ATOM      1  O   UNL     1     -32.566  26.792   6.791  0.00  0.00    -0.270 OA
ATOM      2  N   UNL     1     -32.727  28.159   4.925  0.00  0.00    -0.293 N 
ATOM      3  C   ACE A   0     -33.064  27.030   5.678  0.00  0.00    +0.249 C 
ATOM      4  H   UNL     1     -33.162  28.283   4.052  0.00  0.00    +0.150 HD
ENDROOT
BRANCH   3  12
ATOM      5  O   UNL     1     -35.317  23.035   1.596  0.00  0.00    -0.449 OA
ATOM      6  O   UNL     1     -33.636  24.502   1.210  0.00  0.00    -0.245 OA
ATOM      7  C   UNL     1     -36.901  23.397   3.402  0.00  0.00    +0.070 C 
ATOM      8  C   UNL     1     -36.138  22.368   2.582  0.00  0.00    +0.174 C 
ATOM      9  C   UNL     1     -35.898  24.330   4.010  0.00  0.00    -0.009 C 
ATOM     10  C   UNL     1     -34.729  24.639   3.302  0.00  0.00    +0.106 C 
ATOM     11  C   UNL     1     -33.792  25.525   3.841  0.00  0.00    +0.144 C 
ATOM     12  C   UNL     1     -34.024  26.107   5.088  0.00  0.00    +0.087 C 
ATOM     13  C   UNL     1     -36.129  24.931   5.252  0.00  0.00    -0.004 C 
ATOM     14  C   UNL     1     -34.498  24.060   1.957  0.00  0.00    +0.344 C 
ATOM     15  C   UNL     1     -37.084  21.437   1.839  0.00  0.00    +0.048 C 
ATOM     16  C   UNL     1     -35.192  25.813   5.791  0.00  0.00    +0.007 C 
BRANCH  11  17
ATOM     17  O   UNL     1     -32.636  25.834   3.185  0.00  0.00    -0.505 OA
ATOM     18  H   UNL     1     -31.891  26.136   3.666  0.00  0.00    +0.292 HD
ENDBRANCH  11  17
ENDBRANCH   3  12
BRANCH   2  19
ATOM     19  CA  UNL     1     -31.774  29.153   5.363  0.00  0.00    +0.176 C 
BRANCH  19  21
ATOM     20  OXT UNL     1     -31.485  31.535   5.056  0.00  0.00    -0.248 OA
ATOM     21  C   UNL     1     -32.211  30.552   4.953  0.00  0.00    +0.332 C 
BRANCH  21  22
ATOM     22  O   UNL     1     -33.468  30.631   4.454  0.00  0.00    -0.479 OA
ATOM     23  H   UNL     1     -33.606  30.611   3.528  0.00  0.00    +0.295 HD
ENDBRANCH  21  22
ENDBRANCH  19  21
BRANCH  19  24
ATOM     24  CB  UNL     1     -30.374  28.858   4.810  0.00  0.00    +0.057 C 
BRANCH  24  25
ATOM     25  CG  UNL     1     -29.350  28.622   5.893  0.00  0.00    -0.020 C 
ATOM     26  CD1 UNL     1     -28.565  27.479   5.849  0.00  0.00    -0.004 C 
ATOM     27  CD2 UNL     1     -29.211  29.552   6.912  0.00  0.00    -0.004 C 
ATOM     28  CE1 UNL     1     -27.619  27.262   6.850  0.00  0.00    -0.000 C 
ATOM     29  CE2 UNL     1     -28.264  29.333   7.912  0.00  0.00    -0.000 C 
ATOM     30  CZ  UNL     1     -27.468  28.189   7.882  0.00  0.00    -0.000 C 
ENDBRANCH  24  25
ENDBRANCH  19  24
ENDBRANCH   2  19
TORSDOF 7
ENDMDL
MODEL 4
REMARK VINA RESULT:      -6.7      3.249      8.533
REMARK  Name = 20966
REMARK  7 active torsions:
REMARK  status: ('A' for Active; 'I' for Inactive)
REMARK    1  A    between atoms: N_2  and  CA_19
REMARK    2  A    between atoms: C_3  and  C_12
REMARK    3  A    between atoms: C_11  and  O_17
REMARK    4  A    between atoms: CA_19  and  C_21
REMARK    5  A    between atoms: CA_19  and  CB_24
REMARK    6  A    between atoms: C_21  and  O_22
REMARK    7  A    between atoms: CB_24  and  CG_25
REMARK                            x       y       z     vdW  Elec       q    Type
REMARK                         _______ _______ _______ _____ _____    ______ ____
ROOT
ATOM      1  O   UNL     1     -41.329  26.719   1.191  0.00  0.00    -0.270 OA
ATOM      2  N   UNL     1     -42.002  26.473   3.397  0.00  0.00    -0.293 N 
ATOM      3  C   ACE A   0     -41.153  26.219   2.315  0.00  0.00    +0.249 C 
ATOM      4  H   UNL     1     -41.801  26.043   4.258  0.00  0.00    +0.150 HD
ENDROOT
BRANCH   3  12
ATOM      5  O   UNL     1     -37.895  21.029   1.935  0.00  0.00    -0.449 OA
ATOM      6  O   UNL     1     -40.115  21.221   1.527  0.00  0.00    -0.245 OA
ATOM      7  C   UNL     1     -36.726  22.675   3.285  0.00  0.00    +0.070 C 
ATOM      8  C   UNL     1     -36.634  21.713   2.110  0.00  0.00    +0.174 C 
ATOM      9  C   UNL     1     -37.868  23.610   3.021  0.00  0.00    -0.009 C 
ATOM     10  C   UNL     1     -38.994  23.141   2.333  0.00  0.00    +0.106 C 
ATOM     11  C   UNL     1     -40.079  23.990   2.097  0.00  0.00    +0.144 C 
ATOM     12  C   UNL     1     -40.040  25.309   2.551  0.00  0.00    +0.087 C 
ATOM     13  C   UNL     1     -37.844  24.929   3.486  0.00  0.00    -0.004 C 
ATOM     14  C   UNL     1     -39.061  21.728   1.889  0.00  0.00    +0.344 C 
ATOM     15  C   UNL     1     -35.565  20.655   2.340  0.00  0.00    +0.048 C 
ATOM     16  C   UNL     1     -38.926  25.777   3.246  0.00  0.00    +0.007 C 
BRANCH  11  17
ATOM     17  O   UNL     1     -41.185  23.570   1.417  0.00  0.00    -0.505 OA
ATOM     18  H   UNL     1     -41.271  22.670   1.172  0.00  0.00    +0.292 HD
ENDBRANCH  11  17
ENDBRANCH   3  12
BRANCH   2  19
ATOM     19  CA  UNL     1     -43.161  27.333   3.315  0.00  0.00    +0.176 C 
BRANCH  19  21
ATOM     20  OXT UNL     1     -42.007  28.937   4.711  0.00  0.00    -0.248 OA
ATOM     21  C   UNL     1     -42.849  28.725   3.845  0.00  0.00    +0.332 C 
BRANCH  21  22
ATOM     22  O   UNL     1     -43.570  29.723   3.280  0.00  0.00    -0.479 OA
ATOM     23  H   UNL     1     -43.180  30.272   2.628  0.00  0.00    +0.295 HD
ENDBRANCH  21  22
ENDBRANCH  19  21
BRANCH  19  24
ATOM     24  CB  UNL     1     -44.348  26.735   4.079  0.00  0.00    +0.057 C 
BRANCH  24  25
ATOM     25  CG  UNL     1     -45.101  25.698   3.281  0.00  0.00    -0.020 C 
ATOM     26  CD1 UNL     1     -46.202  25.072   3.846  0.00  0.00    -0.004 C 
ATOM     27  CD2 UNL     1     -44.678  25.389   1.998  0.00  0.00    -0.004 C 
ATOM     28  CE1 UNL     1     -46.897  24.114   3.109  0.00  0.00    -0.000 C 
ATOM     29  CE2 UNL     1     -45.374  24.430   1.261  0.00  0.00    -0.000 C 
ATOM     30  CZ  UNL     1     -46.483  23.794   1.816  0.00  0.00    -0.000 C 
ENDBRANCH  24  25
ENDBRANCH  19  24
ENDBRANCH   2  19
TORSDOF 7
ENDMDL
MODEL 5
REMARK VINA RESULT:      -6.7      4.413      6.361
REMARK  Name = 20966
REMARK  7 active torsions:
REMARK  status: ('A' for Active; 'I' for Inactive)
REMARK    1  A    between atoms: N_2  and  CA_19
REMARK    2  A    between atoms: C_3  and  C_12
REMARK    3  A    between atoms: C_11  and  O_17
REMARK    4  A    between atoms: CA_19  and  C_21
REMARK    5  A    between atoms: CA_19  and  CB_24
REMARK    6  A    between atoms: C_21  and  O_22
REMARK    7  A    between atoms: CB_24  and  CG_25
REMARK                            x       y       z     vdW  Elec       q    Type
REMARK                         _______ _______ _______ _____ _____    ______ ____
ROOT
ATOM      1  O   UNL     1     -34.757  22.061   1.626  0.00  0.00    -0.270 OA
ATOM      2  N   UNL     1     -36.234  21.708   3.378  0.00  0.00    -0.293 N 
ATOM      3  C   ACE A   0     -35.796  21.538   2.061  0.00  0.00    +0.249 C 
ATOM      4  H   UNL     1     -37.066  21.262   3.654  0.00  0.00    +0.150 HD
ENDROOT
BRANCH   3  12
ATOM      5  O   UNL     1     -37.508  16.609  -1.175  0.00  0.00    -0.449 OA
ATOM      6  O   UNL     1     -35.403  17.049  -0.466  0.00  0.00    -0.245 OA
ATOM      7  C   UNL     1     -39.152  18.384  -1.387  0.00  0.00    +0.070 C 
ATOM      8  C   UNL     1     -38.915  16.918  -1.054  0.00  0.00    +0.174 C 
ATOM      9  C   UNL     1     -38.292  19.204  -0.474  0.00  0.00    -0.009 C 
ATOM     10  C   UNL     1     -37.043  18.708  -0.078  0.00  0.00    +0.106 C 
ATOM     11  C   UNL     1     -36.215  19.467   0.754  0.00  0.00    +0.144 C 
ATOM     12  C   UNL     1     -36.634  20.726   1.189  0.00  0.00    +0.087 C 
ATOM     13  C   UNL     1     -38.696  20.473  -0.046  0.00  0.00    -0.004 C 
ATOM     14  C   UNL     1     -36.573  17.392  -0.573  0.00  0.00    +0.344 C 
ATOM     15  C   UNL     1     -39.671  16.003  -2.005  0.00  0.00    +0.048 C 
ATOM     16  C   UNL     1     -37.871  21.229   0.787  0.00  0.00    +0.007 C 
BRANCH  11  17
ATOM     17  O   UNL     1     -35.001  19.007   1.172  0.00  0.00    -0.505 OA
ATOM     18  H   UNL     1     -34.285  19.602   1.278  0.00  0.00    +0.292 HD
ENDBRANCH  11  17
ENDBRANCH   3  12
BRANCH   2  19
ATOM     19  CA  UNL     1     -35.526  22.503   4.356  0.00  0.00    +0.176 C 
BRANCH  19  21
ATOM     20  OXT UNL     1     -35.880  22.376   6.746  0.00  0.00    -0.248 OA
ATOM     21  C   UNL     1     -35.514  21.820   5.716  0.00  0.00    +0.332 C 
BRANCH  21  22
ATOM     22  O   UNL     1     -35.075  20.539   5.705  0.00  0.00    -0.479 OA
ATOM     23  H   UNL     1     -34.441  20.266   5.071  0.00  0.00    +0.295 HD
ENDBRANCH  21  22
ENDBRANCH  19  21
BRANCH  19  24
ATOM     24  CB  UNL     1     -36.140  23.903   4.478  0.00  0.00    +0.057 C 
BRANCH  24  25
ATOM     25  CG  UNL     1     -35.108  25.004   4.461  0.00  0.00    -0.020 C 
ATOM     26  CD1 UNL     1     -34.637  25.476   3.245  0.00  0.00    -0.004 C 
ATOM     27  CD2 UNL     1     -34.647  25.523   5.661  0.00  0.00    -0.004 C 
ATOM     28  CE1 UNL     1     -33.683  26.492   3.229  0.00  0.00    -0.000 C 
ATOM     29  CE2 UNL     1     -33.692  26.540   5.644  0.00  0.00    -0.000 C 
ATOM     30  CZ  UNL     1     -33.211  27.025   4.429  0.00  0.00    -0.000 C 
ENDBRANCH  24  25
ENDBRANCH  19  24
ENDBRANCH   2  19
TORSDOF 7
ENDMDL
MODEL 6
REMARK VINA RESULT:      -6.6      3.990      7.948
REMARK  Name = 20966
REMARK  7 active torsions:
REMARK  status: ('A' for Active; 'I' for Inactive)
REMARK    1  A    between atoms: N_2  and  CA_19
REMARK    2  A    between atoms: C_3  and  C_12
REMARK    3  A    between atoms: C_11  and  O_17
REMARK    4  A    between atoms: CA_19  and  C_21
REMARK    5  A    between atoms: CA_19  and  CB_24
REMARK    6  A    between atoms: C_21  and  O_22
REMARK    7  A    between atoms: CB_24  and  CG_25
REMARK                            x       y       z     vdW  Elec       q    Type
REMARK                         _______ _______ _______ _____ _____    ______ ____
ROOT
ATOM      1  O   UNL     1     -34.935  26.708   1.383  0.00  0.00    -0.270 OA
ATOM      2  N   UNL     1     -35.983  27.091   3.416  0.00  0.00    -0.293 N 
ATOM      3  C   ACE A   0     -35.183  27.469   2.333  0.00  0.00    +0.249 C 
ATOM      4  H   UNL     1     -36.137  27.747   4.132  0.00  0.00    +0.150 HD
ENDROOT
BRANCH   3  12
ATOM      5  O   UNL     1     -31.532  32.032   4.216  0.00  0.00    -0.449 OA
ATOM      6  O   UNL     1     -32.011  30.160   5.396  0.00  0.00    -0.245 OA
ATOM      7  C   UNL     1     -32.988  32.787   2.425  0.00  0.00    +0.070 C 
ATOM      8  C   UNL     1     -31.556  32.690   2.930  0.00  0.00    +0.174 C 
ATOM      9  C   UNL     1     -33.551  31.398   2.383  0.00  0.00    -0.009 C 
ATOM     10  C   UNL     1     -33.146  30.464   3.344  0.00  0.00    +0.106 C 
ATOM     11  C   UNL     1     -33.677  29.170   3.337  0.00  0.00    +0.144 C 
ATOM     12  C   UNL     1     -34.616  28.811   2.370  0.00  0.00    +0.087 C 
ATOM     13  C   UNL     1     -34.505  31.033   1.426  0.00  0.00    -0.004 C 
ATOM     14  C   UNL     1     -32.184  30.853   4.402  0.00  0.00    +0.344 C 
ATOM     15  C   UNL     1     -30.935  34.068   3.105  0.00  0.00    +0.048 C 
ATOM     16  C   UNL     1     -35.031  29.741   1.418  0.00  0.00    +0.007 C 
BRANCH  11  17
ATOM     17  O   UNL     1     -33.292  28.231   4.250  0.00  0.00    -0.505 OA
ATOM     18  H   UNL     1     -33.413  27.321   4.065  0.00  0.00    +0.292 HD
ENDBRANCH  11  17
ENDBRANCH   3  12
BRANCH   2  19
ATOM     19  CA  UNL     1     -36.596  25.788   3.536  0.00  0.00    +0.176 C 
BRANCH  19  21
ATOM     20  OXT UNL     1     -38.554  26.563   2.345  0.00  0.00    -0.248 OA
ATOM     21  C   UNL     1     -38.085  25.851   3.227  0.00  0.00    +0.332 C 
BRANCH  21  22
ATOM     22  O   UNL     1     -38.860  25.051   3.997  0.00  0.00    -0.479 OA
ATOM     23  H   UNL     1     -38.998  25.260   4.900  0.00  0.00    +0.295 HD
ENDBRANCH  21  22
ENDBRANCH  19  21
BRANCH  19  24
ATOM     24  CB  UNL     1     -36.376  25.201   4.936  0.00  0.00    +0.057 C 
BRANCH  24  25
ATOM     25  CG  UNL     1     -35.905  23.767   4.906  0.00  0.00    -0.020 C 
ATOM     26  CD1 UNL     1     -35.940  23.065   3.710  0.00  0.00    -0.004 C 
ATOM     27  CD2 UNL     1     -35.448  23.177   6.074  0.00  0.00    -0.004 C 
ATOM     28  CE1 UNL     1     -35.505  21.740   3.684  0.00  0.00    -0.000 C 
ATOM     29  CE2 UNL     1     -35.014  21.852   6.046  0.00  0.00    -0.000 C 
ATOM     30  CZ  UNL     1     -35.042  21.134   4.851  0.00  0.00    -0.000 C 
ENDBRANCH  24  25
ENDBRANCH  19  24
ENDBRANCH   2  19
TORSDOF 7
ENDMDL
MODEL 7
REMARK VINA RESULT:      -6.6      3.703      8.782
REMARK  Name = 20966
REMARK  7 active torsions:
REMARK  status: ('A' for Active; 'I' for Inactive)
REMARK    1  A    between atoms: N_2  and  CA_19
REMARK    2  A    between atoms: C_3  and  C_12
REMARK    3  A    between atoms: C_11  and  O_17
REMARK    4  A    between atoms: CA_19  and  C_21
REMARK    5  A    between atoms: CA_19  and  CB_24
REMARK    6  A    between atoms: C_21  and  O_22
REMARK    7  A    between atoms: CB_24  and  CG_25
REMARK                            x       y       z     vdW  Elec       q    Type
REMARK                         _______ _______ _______ _____ _____    ______ ____
ROOT
ATOM      1  O   UNL     1     -33.404  25.341   2.893  0.00  0.00    -0.270 OA
ATOM      2  N   UNL     1     -35.116  26.822   3.398  0.00  0.00    -0.293 N 
ATOM      3  C   ACE A   0     -33.773  26.489   3.190  0.00  0.00    +0.249 C 
ATOM      4  H   UNL     1     -35.335  27.752   3.630  0.00  0.00    +0.150 HD
ENDROOT
BRANCH   3  12
ATOM      5  O   UNL     1     -30.079  30.367   6.192  0.00  0.00    -0.449 OA
ATOM      6  O   UNL     1     -31.844  29.272   7.092  0.00  0.00    -0.245 OA
ATOM      7  C   UNL     1     -29.913  30.713   3.794  0.00  0.00    +0.070 C 
ATOM      8  C   UNL     1     -29.152  30.466   5.087  0.00  0.00    +0.174 C 
ATOM      9  C   UNL     1     -30.904  29.601   3.629  0.00  0.00    -0.009 C 
ATOM     10  C   UNL     1     -31.500  29.037   4.764  0.00  0.00    +0.106 C 
ATOM     11  C   UNL     1     -32.444  28.015   4.631  0.00  0.00    +0.144 C 
ATOM     12  C   UNL     1     -32.796  27.557   3.361  0.00  0.00    +0.087 C 
ATOM     13  C   UNL     1     -31.276  29.145   2.359  0.00  0.00    -0.004 C 
ATOM     14  C   UNL     1     -31.164  29.550   6.114  0.00  0.00    +0.344 C 
ATOM     15  C   UNL     1     -28.191  31.605   5.393  0.00  0.00    +0.048 C 
ATOM     16  C   UNL     1     -32.215  28.123   2.227  0.00  0.00    +0.007 C 
BRANCH  11  17
ATOM     17  O   UNL     1     -33.031  27.434   5.717  0.00  0.00    -0.505 OA
ATOM     18  H   UNL     1     -32.857  27.763   6.577  0.00  0.00    +0.292 HD
ENDBRANCH  11  17
ENDBRANCH   3  12
BRANCH   2  19
ATOM     19  CA  UNL     1     -36.197  25.869   3.289  0.00  0.00    +0.176 C 
BRANCH  19  21
ATOM     20  OXT UNL     1     -37.454  27.165   1.679  0.00  0.00    -0.248 OA
ATOM     21  C   UNL     1     -37.450  26.523   2.724  0.00  0.00    +0.332 C 
BRANCH  21  22
ATOM     22  O   UNL     1     -38.571  26.336   3.460  0.00  0.00    -0.479 OA
ATOM     23  H   UNL     1     -39.414  26.466   3.072  0.00  0.00    +0.295 HD
ENDBRANCH  21  22
ENDBRANCH  19  21
BRANCH  19  24
ATOM     24  CB  UNL     1     -36.508  25.229   4.648  0.00  0.00    +0.057 C 
BRANCH  24  25
ATOM     25  CG  UNL     1     -35.999  23.813   4.763  0.00  0.00    -0.020 C 
ATOM     26  CD1 UNL     1     -36.082  22.970   3.664  0.00  0.00    -0.004 C 
ATOM     27  CD2 UNL     1     -35.460  23.379   5.963  0.00  0.00    -0.004 C 
ATOM     28  CE1 UNL     1     -35.612  21.662   3.770  0.00  0.00    -0.000 C 
ATOM     29  CE2 UNL     1     -34.990  22.069   6.068  0.00  0.00    -0.000 C 
ATOM     30  CZ  UNL     1     -35.066  21.211   4.972  0.00  0.00    -0.000 C 
ENDBRANCH  24  25
ENDBRANCH  19  24
ENDBRANCH   2  19
TORSDOF 7
ENDMDL
MODEL 8
REMARK VINA RESULT:      -6.6      3.965      7.873
REMARK  Name = 20966
REMARK  7 active torsions:
REMARK  status: ('A' for Active; 'I' for Inactive)
REMARK    1  A    between atoms: N_2  and  CA_19
REMARK    2  A    between atoms: C_3  and  C_12
REMARK    3  A    between atoms: C_11  and  O_17
REMARK    4  A    between atoms: CA_19  and  C_21
REMARK    5  A    between atoms: CA_19  and  CB_24
REMARK    6  A    between atoms: C_21  and  O_22
REMARK    7  A    between atoms: CB_24  and  CG_25
REMARK                            x       y       z     vdW  Elec       q    Type
REMARK                         _______ _______ _______ _____ _____    ______ ____
ROOT
ATOM      1  O   UNL     1     -35.648  24.747   1.617  0.00  0.00    -0.270 OA
ATOM      2  N   UNL     1     -35.535  22.952   3.080  0.00  0.00    -0.293 N 
ATOM      3  C   ACE A   0     -35.298  24.281   2.714  0.00  0.00    +0.249 C 
ATOM      4  H   UNL     1     -35.230  22.651   3.966  0.00  0.00    +0.150 HD
ENDROOT
BRANCH   3  12
ATOM      5  O   UNL     1     -31.395  28.584   4.699  0.00  0.00    -0.449 OA
ATOM      6  O   UNL     1     -31.329  27.586   2.667  0.00  0.00    -0.245 OA
ATOM      7  C   UNL     1     -32.534  27.535   6.570  0.00  0.00    +0.070 C 
ATOM      8  C   UNL     1     -32.166  28.847   5.893  0.00  0.00    +0.174 C 
ATOM      9  C   UNL     1     -33.271  26.697   5.570  0.00  0.00    -0.009 C 
ATOM     10  C   UNL     1     -32.925  26.782   4.215  0.00  0.00    +0.106 C 
ATOM     11  C   UNL     1     -33.585  25.991   3.269  0.00  0.00    +0.144 C 
ATOM     12  C   UNL     1     -34.589  25.113   3.677  0.00  0.00    +0.087 C 
ATOM     13  C   UNL     1     -34.269  25.802   5.971  0.00  0.00    -0.004 C 
ATOM     14  C   UNL     1     -31.828  27.679   3.781  0.00  0.00    +0.344 C 
ATOM     15  C   UNL     1     -31.319  29.724   6.804  0.00  0.00    +0.048 C 
ATOM     16  C   UNL     1     -34.929  25.017   5.026  0.00  0.00    +0.007 C 
BRANCH  11  17
ATOM     17  O   UNL     1     -33.283  26.061   1.940  0.00  0.00    -0.505 OA
ATOM     18  H   UNL     1     -33.854  26.516   1.353  0.00  0.00    +0.292 HD
ENDBRANCH  11  17
ENDBRANCH   3  12
BRANCH   2  19
ATOM     19  CA  UNL     1     -36.204  21.997   2.226  0.00  0.00    +0.176 C 
BRANCH  19  21
ATOM     20  OXT UNL     1     -38.322  22.931   2.928  0.00  0.00    -0.248 OA
ATOM     21  C   UNL     1     -37.699  21.962   2.507  0.00  0.00    +0.332 C 
BRANCH  21  22
ATOM     22  O   UNL     1     -38.298  20.775   2.249  0.00  0.00    -0.479 OA
ATOM     23  H   UNL     1     -38.500  20.190   2.952  0.00  0.00    +0.295 HD
ENDBRANCH  21  22
ENDBRANCH  19  21
BRANCH  19  24
ATOM     24  CB  UNL     1     -35.606  20.595   2.391  0.00  0.00    +0.057 C 
BRANCH  24  25
ATOM     25  CG  UNL     1     -34.381  20.372   1.538  0.00  0.00    -0.020 C 
ATOM     26  CD1 UNL     1     -33.971  21.367   0.664  0.00  0.00    -0.004 C 
ATOM     27  CD2 UNL     1     -33.687  19.177   1.643  0.00  0.00    -0.004 C 
ATOM     28  CE1 UNL     1     -32.840  21.161  -0.124  0.00  0.00    -0.000 C 
ATOM     29  CE2 UNL     1     -32.555  18.972   0.854  0.00  0.00    -0.000 C 
ATOM     30  CZ  UNL     1     -32.131  19.963  -0.029  0.00  0.00    -0.000 C 
ENDBRANCH  24  25
ENDBRANCH  19  24
ENDBRANCH   2  19
TORSDOF 7
ENDMDL
MODEL 9
REMARK VINA RESULT:      -6.6      1.218      1.786
REMARK  Name = 20966
REMARK  7 active torsions:
REMARK  status: ('A' for Active; 'I' for Inactive)
REMARK    1  A    between atoms: N_2  and  CA_19
REMARK    2  A    between atoms: C_3  and  C_12
REMARK    3  A    between atoms: C_11  and  O_17
REMARK    4  A    between atoms: CA_19  and  C_21
REMARK    5  A    between atoms: CA_19  and  CB_24
REMARK    6  A    between atoms: C_21  and  O_22
REMARK    7  A    between atoms: CB_24  and  CG_25
REMARK                            x       y       z     vdW  Elec       q    Type
REMARK                         _______ _______ _______ _____ _____    ______ ____
ROOT
ATOM      1  O   UNL     1     -37.087  24.956   1.555  0.00  0.00    -0.270 OA
ATOM      2  N   UNL     1     -37.715  23.031   2.683  0.00  0.00    -0.293 N 
ATOM      3  C   ACE A   0     -37.983  24.213   1.987  0.00  0.00    +0.249 C 
ATOM      4  H   UNL     1     -38.476  22.491   2.996  0.00  0.00    +0.150 HD
ENDROOT
BRANCH   3  12
ATOM      5  O   UNL     1     -43.164  27.430   2.699  0.00  0.00    -0.449 OA
ATOM      6  O   UNL     1     -41.378  27.491   4.090  0.00  0.00    -0.245 OA
ATOM      7  C   UNL     1     -43.526  25.545   1.211  0.00  0.00    +0.070 C 
ATOM      8  C   UNL     1     -43.675  27.047   1.402  0.00  0.00    +0.174 C 
ATOM      9  C   UNL     1     -42.079  25.204   1.394  0.00  0.00    -0.009 C 
ATOM     10  C   UNL     1     -41.312  25.932   2.313  0.00  0.00    +0.106 C 
ATOM     11  C   UNL     1     -39.966  25.614   2.516  0.00  0.00    +0.144 C 
ATOM     12  C   UNL     1     -39.385  24.565   1.802  0.00  0.00    +0.087 C 
ATOM     13  C   UNL     1     -41.491  24.143   0.694  0.00  0.00    -0.004 C 
ATOM     14  C   UNL     1     -41.934  27.017   3.108  0.00  0.00    +0.344 C 
ATOM     15  C   UNL     1     -45.134  27.473   1.338  0.00  0.00    +0.048 C 
ATOM     16  C   UNL     1     -40.147  23.829   0.895  0.00  0.00    +0.007 C 
BRANCH  11  17
ATOM     17  O   UNL     1     -39.187  26.313   3.391  0.00  0.00    -0.505 OA
ATOM     18  H   UNL     1     -38.811  25.882   4.133  0.00  0.00    +0.292 HD
ENDBRANCH  11  17
ENDBRANCH   3  12
BRANCH   2  19
ATOM     19  CA  UNL     1     -36.378  22.560   2.968  0.00  0.00    +0.176 C 
BRANCH  19  21
ATOM     20  OXT UNL     1     -35.223  20.435   2.913  0.00  0.00    -0.248 OA
ATOM     21  C   UNL     1     -36.260  21.063   2.722  0.00  0.00    +0.332 C 
BRANCH  21  22
ATOM     22  O   UNL     1     -37.394  20.466   2.283  0.00  0.00    -0.479 OA
ATOM     23  H   UNL     1     -37.459  19.532   2.274  0.00  0.00    +0.295 HD
ENDBRANCH  21  22
ENDBRANCH  19  21
BRANCH  19  24
ATOM     24  CB  UNL     1     -35.972  22.888   4.410  0.00  0.00    +0.057 C 
BRANCH  24  25
ATOM     25  CG  UNL     1     -35.147  24.148   4.517  0.00  0.00    -0.020 C 
ATOM     26  CD1 UNL     1     -34.346  24.528   3.450  0.00  0.00    -0.004 C 
ATOM     27  CD2 UNL     1     -35.203  24.901   5.679  0.00  0.00    -0.004 C 
ATOM     28  CE1 UNL     1     -33.584  25.692   3.549  0.00  0.00    -0.000 C 
ATOM     29  CE2 UNL     1     -34.439  26.064   5.777  0.00  0.00    -0.000 C 
ATOM     30  CZ  UNL     1     -33.630  26.460   4.713  0.00  0.00    -0.000 C 
ENDBRANCH  24  25
ENDBRANCH  19  24
ENDBRANCH   2  19
TORSDOF 7
ENDMDL
