MODEL 1
REMARK VINA RESULT:      -6.3      0.000      0.000
REMARK  Name = 5560
REMARK  3 active torsions:
REMARK  status: ('A' for Active; 'I' for Inactive)
REMARK    1  A    between atoms: C_7  and  C_18
REMARK    2  A    between atoms: C_11  and  S_19
REMARK    3  A    between atoms: S_19  and  N_22
REMARK                            x       y       z     vdW  Elec       q    Type
REMARK                         _______ _______ _______ _____ _____    ______ ____
ROOT
ATOM      1 CL   UNL     1     -35.582  23.231   6.002  0.00  0.00    -0.081 Cl
ATOM      2  S   UNL     1     -34.063  28.475   2.938  0.00  0.00    +0.063 S 
ATOM      3  O   UNL     1     -35.310  29.131   2.595  0.00  0.00    -0.153 OA
ATOM      4  O   UNL     1     -33.090  28.110   1.926  0.00  0.00    -0.153 OA
ATOM      5  N   UNL     1     -33.299  29.379   4.171  0.00  0.00    -0.160 NA
ATOM      6  N   UNL     1     -32.805  27.467   5.587  0.00  0.00    -0.318 N 
ATOM      7  C   UNL     1     -32.266  28.644   4.932  0.00  0.00    +0.178 C 
ATOM      8  C   UNL     1     -34.451  26.992   3.811  0.00  0.00    +0.136 C 
ATOM      9  C   UNL     1     -33.782  26.672   5.003  0.00  0.00    +0.065 C 
ATOM     10  C   UNL     1     -35.455  26.177   3.279  0.00  0.00    +0.042 C 
ATOM     11  C   UNL     1     -35.812  25.009   3.943  0.00  0.00    +0.134 C 
ATOM     12  C   UNL     1     -34.175  25.493   5.656  0.00  0.00    +0.028 C 
ATOM     13  C   UNL     1     -35.174  24.666   5.132  0.00  0.00    +0.078 C 
ATOM     14  H   UNL     1     -34.016  29.689   4.827  0.00  0.00    +0.151 HD
ATOM     15  H   UNL     1     -32.467  27.224   6.479  0.00  0.00    +0.148 HD
ENDROOT
BRANCH   7  18
ATOM     16 CL   UNL     1     -31.412  31.193   5.275  0.00  0.00    -0.094 Cl
ATOM     17 CL   UNL     1     -30.138  28.925   6.586  0.00  0.00    -0.094 Cl
ATOM     18  C   UNL     1     -31.672  29.581   5.977  0.00  0.00    +0.193 C 
ENDBRANCH   7  18
BRANCH  11  19
ATOM     19  S   UNL     1     -37.072  24.013   3.242  0.00  0.00    +0.058 S 
ATOM     20  O   UNL     1     -38.317  24.419   3.887  0.00  0.00    -0.153 OA
ATOM     21  O   UNL     1     -36.909  24.149   1.798  0.00  0.00    -0.153 OA
BRANCH  19  22
ATOM     22  N   UNL     1     -36.780  22.371   3.663  0.00  0.00    -0.203 NA
ATOM     23  H   UNL     1     -37.608  21.983   4.115  0.00  0.00    +0.144 HD
ATOM     24  H   UNL     1     -35.988  22.321   4.304  0.00  0.00    +0.144 HD
ENDBRANCH  19  22
ENDBRANCH  11  19
TORSDOF 3
ENDMDL
MODEL 2
REMARK VINA RESULT:      -6.1      4.906      7.189
REMARK  Name = 5560
REMARK  3 active torsions:
REMARK  status: ('A' for Active; 'I' for Inactive)
REMARK    1  A    between atoms: C_7  and  C_18
REMARK    2  A    between atoms: C_11  and  S_19
REMARK    3  A    between atoms: S_19  and  N_22
REMARK                            x       y       z     vdW  Elec       q    Type
REMARK                         _______ _______ _______ _____ _____    ______ ____
ROOT
ATOM      1 CL   UNL     1     -33.632  18.053   0.749  0.00  0.00    -0.081 Cl
ATOM      2  S   UNL     1     -38.038  22.302   2.064  0.00  0.00    +0.063 S 
ATOM      3  O   UNL     1     -39.280  21.573   2.233  0.00  0.00    -0.153 OA
ATOM      4  O   UNL     1     -37.906  23.368   1.090  0.00  0.00    -0.153 OA
ATOM      5  N   UNL     1     -37.527  22.858   3.598  0.00  0.00    -0.160 NA
ATOM      6  N   UNL     1     -35.225  22.113   3.357  0.00  0.00    -0.318 N 
ATOM      7  C   UNL     1     -36.096  23.227   3.680  0.00  0.00    +0.178 C 
ATOM      8  C   UNL     1     -36.767  21.134   1.698  0.00  0.00    +0.136 C 
ATOM      9  C   UNL     1     -35.537  21.186   2.372  0.00  0.00    +0.065 C 
ATOM     10  C   UNL     1     -37.049  20.158   0.737  0.00  0.00    +0.042 C 
ATOM     11  C   UNL     1     -36.088  19.202   0.430  0.00  0.00    +0.134 C 
ATOM     12  C   UNL     1     -34.593  20.199   2.048  0.00  0.00    +0.028 C 
ATOM     13  C   UNL     1     -34.860  19.220   1.085  0.00  0.00    +0.078 C 
ATOM     14  H   UNL     1     -37.702  22.117   4.277  0.00  0.00    +0.151 HD
ATOM     15  H   UNL     1     -34.383  22.009   3.855  0.00  0.00    +0.148 HD
ENDROOT
BRANCH   7  18
ATOM     16 CL   UNL     1     -34.374  24.772   5.091  0.00  0.00    -0.094 Cl
ATOM     17 CL   UNL     1     -35.530  22.327   6.171  0.00  0.00    -0.094 Cl
ATOM     18  C   UNL     1     -35.800  23.713   5.094  0.00  0.00    +0.193 C 
ENDBRANCH   7  18
BRANCH  11  19
ATOM     19  S   UNL     1     -36.478  17.999  -0.783  0.00  0.00    +0.058 S 
ATOM     20  O   UNL     1     -37.882  18.208  -1.125  0.00  0.00    -0.153 OA
ATOM     21  O   UNL     1     -35.441  18.130  -1.801  0.00  0.00    -0.153 OA
BRANCH  19  22
ATOM     22  N   UNL     1     -36.343  16.436  -0.078  0.00  0.00    -0.203 NA
ATOM     23  H   UNL     1     -35.428  16.339   0.363  0.00  0.00    +0.144 HD
ATOM     24  H   UNL     1     -36.448  15.726  -0.803  0.00  0.00    +0.144 HD
ENDBRANCH  19  22
ENDBRANCH  11  19
TORSDOF 3
ENDMDL
MODEL 3
REMARK VINA RESULT:      -6.1      3.492      4.566
REMARK  Name = 5560
REMARK  3 active torsions:
REMARK  status: ('A' for Active; 'I' for Inactive)
REMARK    1  A    between atoms: C_7  and  C_18
REMARK    2  A    between atoms: C_11  and  S_19
REMARK    3  A    between atoms: S_19  and  N_22
REMARK                            x       y       z     vdW  Elec       q    Type
REMARK                         _______ _______ _______ _____ _____    ______ ____
ROOT
ATOM      1 CL   UNL     1     -33.980  22.180  -0.656  0.00  0.00    -0.081 Cl
ATOM      2  S   UNL     1     -35.674  24.194   5.025  0.00  0.00    +0.063 S 
ATOM      3  O   UNL     1     -35.393  23.113   5.949  0.00  0.00    -0.153 OA
ATOM      4  O   UNL     1     -37.002  24.763   4.897  0.00  0.00    -0.153 OA
ATOM      5  N   UNL     1     -34.538  25.443   5.295  0.00  0.00    -0.160 NA
ATOM      6  N   UNL     1     -33.984  25.761   2.949  0.00  0.00    -0.318 N 
ATOM      7  C   UNL     1     -34.397  26.407   4.181  0.00  0.00    +0.178 C 
ATOM      8  C   UNL     1     -35.202  23.665   3.409  0.00  0.00    +0.136 C 
ATOM      9  C   UNL     1     -34.435  24.501   2.583  0.00  0.00    +0.065 C 
ATOM     10  C   UNL     1     -35.604  22.387   3.009  0.00  0.00    +0.042 C 
ATOM     11  C   UNL     1     -35.237  21.916   1.753  0.00  0.00    +0.134 C 
ATOM     12  C   UNL     1     -34.070  23.991   1.326  0.00  0.00    +0.028 C 
ATOM     13  C   UNL     1     -34.470  22.716   0.911  0.00  0.00    +0.078 C 
ATOM     14  H   UNL     1     -33.628  25.012   5.458  0.00  0.00    +0.151 HD
ATOM     15  H   UNL     1     -33.359  26.233   2.353  0.00  0.00    +0.148 HD
ENDROOT
BRANCH   7  18
ATOM     16 CL   UNL     1     -31.992  27.421   3.452  0.00  0.00    -0.094 Cl
ATOM     17 CL   UNL     1     -32.806  27.170   6.237  0.00  0.00    -0.094 Cl
ATOM     18  C   UNL     1     -33.367  27.458   4.576  0.00  0.00    +0.193 C 
ENDBRANCH   7  18
BRANCH  11  19
ATOM     19  S   UNL     1     -35.764  20.311   1.287  0.00  0.00    +0.058 S 
ATOM     20  O   UNL     1     -36.526  20.476   0.053  0.00  0.00    -0.153 OA
ATOM     21  O   UNL     1     -34.557  19.491   1.307  0.00  0.00    -0.153 OA
BRANCH  19  22
ATOM     22  N   UNL     1     -36.841  19.710   2.486  0.00  0.00    -0.203 NA
ATOM     23  H   UNL     1     -36.518  18.797   2.807  0.00  0.00    +0.144 HD
ATOM     24  H   UNL     1     -37.776  19.620   2.088  0.00  0.00    +0.144 HD
ENDBRANCH  19  22
ENDBRANCH  11  19
TORSDOF 3
ENDMDL
MODEL 4
REMARK VINA RESULT:      -6.1      4.187      6.206
REMARK  Name = 5560
REMARK  3 active torsions:
REMARK  status: ('A' for Active; 'I' for Inactive)
REMARK    1  A    between atoms: C_7  and  C_18
REMARK    2  A    between atoms: C_11  and  S_19
REMARK    3  A    between atoms: S_19  and  N_22
REMARK                            x       y       z     vdW  Elec       q    Type
REMARK                         _______ _______ _______ _____ _____    ______ ____
ROOT
ATOM      1 CL   UNL     1     -38.269  19.938   0.111  0.00  0.00    -0.081 Cl
ATOM      2  S   UNL     1     -38.866  25.365   3.176  0.00  0.00    +0.063 S 
ATOM      3  O   UNL     1     -40.226  25.412   3.675  0.00  0.00    -0.153 OA
ATOM      4  O   UNL     1     -38.335  26.402   2.312  0.00  0.00    -0.153 OA
ATOM      5  N   UNL     1     -37.812  25.125   4.500  0.00  0.00    -0.160 NA
ATOM      6  N   UNL     1     -36.526  23.348   3.452  0.00  0.00    -0.318 N 
ATOM      7  C   UNL     1     -36.467  24.623   4.142  0.00  0.00    +0.178 C 
ATOM      8  C   UNL     1     -38.657  23.842   2.309  0.00  0.00    +0.136 C 
ATOM      9  C   UNL     1     -37.530  23.039   2.544  0.00  0.00    +0.065 C 
ATOM     10  C   UNL     1     -39.661  23.472   1.410  0.00  0.00    +0.042 C 
ATOM     11  C   UNL     1     -39.552  22.270   0.720  0.00  0.00    +0.134 C 
ATOM     12  C   UNL     1     -37.457  21.826   1.842  0.00  0.00    +0.028 C 
ATOM     13  C   UNL     1     -38.452  21.445   0.935  0.00  0.00    +0.078 C 
ATOM     14  H   UNL     1     -38.246  24.449   5.130  0.00  0.00    +0.151 HD
ATOM     15  H   UNL     1     -35.830  22.677   3.636  0.00  0.00    +0.148 HD
ENDROOT
BRANCH   7  18
ATOM     16 CL   UNL     1     -34.054  25.232   5.215  0.00  0.00    -0.094 Cl
ATOM     17 CL   UNL     1     -35.460  22.756   5.827  0.00  0.00    -0.094 Cl
ATOM     18  C   UNL     1     -35.648  24.474   5.418  0.00  0.00    +0.193 C 
ENDBRANCH   7  18
BRANCH  11  19
ATOM     19  S   UNL     1     -40.830  21.843  -0.401  0.00  0.00    +0.058 S 
ATOM     20  O   UNL     1     -40.222  21.843  -1.728  0.00  0.00    -0.153 OA
ATOM     21  O   UNL     1     -41.424  20.625   0.140  0.00  0.00    -0.153 OA
BRANCH  19  22
ATOM     22  N   UNL     1     -42.025  23.079  -0.378  0.00  0.00    -0.203 NA
ATOM     23  H   UNL     1     -41.572  23.990  -0.301  0.00  0.00    +0.144 HD
ATOM     24  H   UNL     1     -42.643  22.939   0.422  0.00  0.00    +0.144 HD
ENDBRANCH  19  22
ENDBRANCH  11  19
TORSDOF 3
ENDMDL
MODEL 5
REMARK VINA RESULT:      -6.1      3.779      4.936
REMARK  Name = 5560
REMARK  3 active torsions:
REMARK  status: ('A' for Active; 'I' for Inactive)
REMARK    1  A    between atoms: C_7  and  C_18
REMARK    2  A    between atoms: C_11  and  S_19
REMARK    3  A    between atoms: S_19  and  N_22
REMARK                            x       y       z     vdW  Elec       q    Type
REMARK                         _______ _______ _______ _____ _____    ______ ____
ROOT
ATOM      1 CL   UNL     1     -39.758  25.846   0.663  0.00  0.00    -0.081 Cl
ATOM      2  S   UNL     1     -35.656  22.908   4.370  0.00  0.00    +0.063 S 
ATOM      3  O   UNL     1     -35.188  21.750   3.634  0.00  0.00    -0.153 OA
ATOM      4  O   UNL     1     -36.275  22.783   5.675  0.00  0.00    -0.153 OA
ATOM      5  N   UNL     1     -34.386  24.050   4.443  0.00  0.00    -0.160 NA
ATOM      6  N   UNL     1     -35.749  25.953   3.784  0.00  0.00    -0.318 N 
ATOM      7  C   UNL     1     -34.810  25.432   4.760  0.00  0.00    +0.178 C 
ATOM      8  C   UNL     1     -36.812  23.768   3.352  0.00  0.00    +0.136 C 
ATOM      9  C   UNL     1     -36.723  25.160   3.193  0.00  0.00    +0.065 C 
ATOM     10  C   UNL     1     -37.791  23.006   2.707  0.00  0.00    +0.042 C 
ATOM     11  C   UNL     1     -38.711  23.636   1.876  0.00  0.00    +0.134 C 
ATOM     12  C   UNL     1     -37.658  25.763   2.337  0.00  0.00    +0.028 C 
ATOM     13  C   UNL     1     -38.646  25.013   1.689  0.00  0.00    +0.078 C 
ATOM     14  H   UNL     1     -33.919  24.062   3.536  0.00  0.00    +0.151 HD
ATOM     15  H   UNL     1     -35.692  26.902   3.531  0.00  0.00    +0.148 HD
ENDROOT
BRANCH   7  18
ATOM     16 CL   UNL     1     -33.221  26.801   6.478  0.00  0.00    -0.094 Cl
ATOM     17 CL   UNL     1     -33.822  27.763   3.796  0.00  0.00    -0.094 Cl
ATOM     18  C   UNL     1     -33.574  26.322   4.803  0.00  0.00    +0.193 C 
ENDBRANCH   7  18
BRANCH  11  19
ATOM     19  S   UNL     1     -39.924  22.646   1.088  0.00  0.00    +0.058 S 
ATOM     20  O   UNL     1     -41.194  23.345   1.263  0.00  0.00    -0.153 OA
ATOM     21  O   UNL     1     -39.400  22.389  -0.249  0.00  0.00    -0.153 OA
BRANCH  19  22
ATOM     22  N   UNL     1     -40.039  21.144   1.918  0.00  0.00    -0.203 NA
ATOM     23  H   UNL     1     -39.577  20.417   1.371  0.00  0.00    +0.144 HD
ATOM     24  H   UNL     1     -41.022  20.901   2.044  0.00  0.00    +0.144 HD
ENDBRANCH  19  22
ENDBRANCH  11  19
TORSDOF 3
ENDMDL
MODEL 6
REMARK VINA RESULT:      -6.0      5.050      7.712
REMARK  Name = 5560
REMARK  3 active torsions:
REMARK  status: ('A' for Active; 'I' for Inactive)
REMARK    1  A    between atoms: C_7  and  C_18
REMARK    2  A    between atoms: C_11  and  S_19
REMARK    3  A    between atoms: S_19  and  N_22
REMARK                            x       y       z     vdW  Elec       q    Type
REMARK                         _______ _______ _______ _____ _____    ______ ____
ROOT
ATOM      1 CL   UNL     1     -36.240  25.867   5.069  0.00  0.00    -0.081 Cl
ATOM      2  S   UNL     1     -39.757  22.497   1.136  0.00  0.00    +0.063 S 
ATOM      3  O   UNL     1     -40.121  21.284   1.841  0.00  0.00    -0.153 OA
ATOM      4  O   UNL     1     -39.059  22.460  -0.135  0.00  0.00    -0.153 OA
ATOM      5  N   UNL     1     -41.149  23.479   0.998  0.00  0.00    -0.160 NA
ATOM      6  N   UNL     1     -40.062  25.524   1.737  0.00  0.00    -0.318 N 
ATOM      7  C   UNL     1     -40.878  24.905   0.710  0.00  0.00    +0.178 C 
ATOM      8  C   UNL     1     -38.768  23.479   2.218  0.00  0.00    +0.136 C 
ATOM      9  C   UNL     1     -39.032  24.848   2.377  0.00  0.00    +0.065 C 
ATOM     10  C   UNL     1     -37.741  22.833   2.912  0.00  0.00    +0.042 C 
ATOM     11  C   UNL     1     -36.948  23.559   3.794  0.00  0.00    +0.134 C 
ATOM     12  C   UNL     1     -38.223  25.550   3.284  0.00  0.00    +0.028 C 
ATOM     13  C   UNL     1     -37.188  24.917   3.982  0.00  0.00    +0.078 C 
ATOM     14  H   UNL     1     -41.662  23.426   1.879  0.00  0.00    +0.151 HD
ATOM     15  H   UNL     1     -40.246  26.457   1.991  0.00  0.00    +0.148 HD
ENDROOT
BRANCH   7  18
ATOM     16 CL   UNL     1     -42.041  27.060  -0.453  0.00  0.00    -0.094 Cl
ATOM     17 CL   UNL     1     -42.760  26.142   2.216  0.00  0.00    -0.094 Cl
ATOM     18  C   UNL     1     -42.208  25.641   0.604  0.00  0.00    +0.193 C 
ENDBRANCH   7  18
BRANCH  11  19
ATOM     19  S   UNL     1     -35.669  22.714   4.642  0.00  0.00    +0.058 S 
ATOM     20  O   UNL     1     -34.436  23.434   4.338  0.00  0.00    -0.153 OA
ATOM     21  O   UNL     1     -36.135  22.595   6.020  0.00  0.00    -0.153 OA
BRANCH  19  22
ATOM     22  N   UNL     1     -35.520  21.131   3.988  0.00  0.00    -0.203 NA
ATOM     23  H   UNL     1     -36.170  21.022   3.209  0.00  0.00    +0.144 HD
ATOM     24  H   UNL     1     -35.737  20.443   4.710  0.00  0.00    +0.144 HD
ENDBRANCH  19  22
ENDBRANCH  11  19
TORSDOF 3
ENDMDL
MODEL 7
REMARK VINA RESULT:      -6.0      4.006      5.597
REMARK  Name = 5560
REMARK  3 active torsions:
REMARK  status: ('A' for Active; 'I' for Inactive)
REMARK    1  A    between atoms: C_7  and  C_18
REMARK    2  A    between atoms: C_11  and  S_19
REMARK    3  A    between atoms: S_19  and  N_22
REMARK                            x       y       z     vdW  Elec       q    Type
REMARK                         _______ _______ _______ _____ _____    ______ ____
ROOT
ATOM      1 CL   UNL     1     -41.332  24.019   1.075  0.00  0.00    -0.081 Cl
ATOM      2  S   UNL     1     -35.658  22.708   3.375  0.00  0.00    +0.063 S 
ATOM      3  O   UNL     1     -34.839  22.302   2.250  0.00  0.00    -0.153 OA
ATOM      4  O   UNL     1     -35.854  21.849   4.526  0.00  0.00    -0.153 OA
ATOM      5  N   UNL     1     -35.137  24.252   3.892  0.00  0.00    -0.160 NA
ATOM      6  N   UNL     1     -37.364  25.218   4.014  0.00  0.00    -0.318 N 
ATOM      7  C   UNL     1     -36.115  24.994   4.718  0.00  0.00    +0.178 C 
ATOM      8  C   UNL     1     -37.268  23.094   2.763  0.00  0.00    +0.136 C 
ATOM      9  C   UNL     1     -37.914  24.276   3.157  0.00  0.00    +0.065 C 
ATOM     10  C   UNL     1     -37.848  22.190   1.867  0.00  0.00    +0.042 C 
ATOM     11  C   UNL     1     -39.106  22.461   1.340  0.00  0.00    +0.134 C 
ATOM     12  C   UNL     1     -39.177  24.526   2.597  0.00  0.00    +0.028 C 
ATOM     13  C   UNL     1     -39.771  23.629   1.703  0.00  0.00    +0.078 C 
ATOM     14  H   UNL     1     -34.933  24.811   3.063  0.00  0.00    +0.151 HD
ATOM     15  H   UNL     1     -37.838  26.070   4.149  0.00  0.00    +0.148 HD
ENDROOT
BRANCH   7  18
ATOM     16 CL   UNL     1     -35.041  27.244   3.655  0.00  0.00    -0.094 Cl
ATOM     17 CL   UNL     1     -34.084  26.077   6.146  0.00  0.00    -0.094 Cl
ATOM     18  C   UNL     1     -35.503  26.334   5.109  0.00  0.00    +0.193 C 
ENDBRANCH   7  18
BRANCH  11  19
ATOM     19  S   UNL     1     -39.800  21.303   0.224  0.00  0.00    +0.058 S 
ATOM     20  O   UNL     1     -41.062  20.872   0.818  0.00  0.00    -0.153 OA
ATOM     21  O   UNL     1     -39.784  21.966  -1.076  0.00  0.00    -0.153 OA
BRANCH  19  22
ATOM     22  N   UNL     1     -38.770  19.928   0.138  0.00  0.00    -0.203 NA
ATOM     23  H   UNL     1     -39.186  19.158   0.663  0.00  0.00    +0.144 HD
ATOM     24  H   UNL     1     -37.860  20.160   0.538  0.00  0.00    +0.144 HD
ENDBRANCH  19  22
ENDBRANCH  11  19
TORSDOF 3
ENDMDL
MODEL 8
REMARK VINA RESULT:      -5.9      3.003      6.712
REMARK  Name = 5560
REMARK  3 active torsions:
REMARK  status: ('A' for Active; 'I' for Inactive)
REMARK    1  A    between atoms: C_7  and  C_18
REMARK    2  A    between atoms: C_11  and  S_19
REMARK    3  A    between atoms: S_19  and  N_22
REMARK                            x       y       z     vdW  Elec       q    Type
REMARK                         _______ _______ _______ _____ _____    ______ ____
ROOT
ATOM      1 CL   UNL     1     -33.618  29.673   2.889  0.00  0.00    -0.081 Cl
ATOM      2  S   UNL     1     -35.849  24.037   4.457  0.00  0.00    +0.063 S 
ATOM      3  O   UNL     1     -35.940  24.015   5.904  0.00  0.00    -0.153 OA
ATOM      4  O   UNL     1     -35.073  23.054   3.727  0.00  0.00    -0.153 OA
ATOM      5  N   UNL     1     -37.432  24.109   3.817  0.00  0.00    -0.160 NA
ATOM      6  N   UNL     1     -36.965  25.904   2.246  0.00  0.00    -0.318 N 
ATOM      7  C   UNL     1     -37.516  24.572   2.414  0.00  0.00    +0.178 C 
ATOM      8  C   UNL     1     -35.228  25.617   3.975  0.00  0.00    +0.136 C 
ATOM      9  C   UNL     1     -35.847  26.340   2.943  0.00  0.00    +0.065 C 
ATOM     10  C   UNL     1     -34.124  26.113   4.674  0.00  0.00    +0.042 C 
ATOM     11  C   UNL     1     -33.613  27.364   4.347  0.00  0.00    +0.134 C 
ATOM     12  C   UNL     1     -35.315  27.604   2.646  0.00  0.00    +0.028 C 
ATOM     13  C   UNL     1     -34.207  28.111   3.334  0.00  0.00    +0.078 C 
ATOM     14  H   UNL     1     -37.978  24.748   4.395  0.00  0.00    +0.151 HD
ATOM     15  H   UNL     1     -37.401  26.521   1.615  0.00  0.00    +0.148 HD
ENDROOT
BRANCH   7  18
ATOM     16 CL   UNL     1     -39.906  25.724   2.970  0.00  0.00    -0.094 Cl
ATOM     17 CL   UNL     1     -39.661  22.937   2.159  0.00  0.00    -0.094 Cl
ATOM     18  C   UNL     1     -38.979  24.569   1.988  0.00  0.00    +0.193 C 
ENDBRANCH   7  18
BRANCH  11  19
ATOM     19  S   UNL     1     -32.226  27.950   5.243  0.00  0.00    +0.058 S 
ATOM     20  O   UNL     1     -31.057  27.665   4.416  0.00  0.00    -0.153 OA
ATOM     21  O   UNL     1     -32.556  29.324   5.607  0.00  0.00    -0.153 OA
BRANCH  19  22
ATOM     22  N   UNL     1     -32.073  27.033   6.691  0.00  0.00    -0.203 NA
ATOM     23  H   UNL     1     -32.866  26.398   6.776  0.00  0.00    +0.144 HD
ATOM     24  H   UNL     1     -32.055  27.665   7.492  0.00  0.00    +0.144 HD
ENDBRANCH  19  22
ENDBRANCH  11  19
TORSDOF 3
ENDMDL
MODEL 9
REMARK VINA RESULT:      -5.9      4.858      7.203
REMARK  Name = 5560
REMARK  3 active torsions:
REMARK  status: ('A' for Active; 'I' for Inactive)
REMARK    1  A    between atoms: C_7  and  C_18
REMARK    2  A    between atoms: C_11  and  S_19
REMARK    3  A    between atoms: S_19  and  N_22
REMARK                            x       y       z     vdW  Elec       q    Type
REMARK                         _______ _______ _______ _____ _____    ______ ____
ROOT
ATOM      1 CL   UNL     1     -34.691  17.981   0.150  0.00  0.00    -0.081 Cl
ATOM      2  S   UNL     1     -38.141  22.739   2.307  0.00  0.00    +0.063 S 
ATOM      3  O   UNL     1     -39.436  22.188   2.655  0.00  0.00    -0.153 OA
ATOM      4  O   UNL     1     -38.005  23.828   1.359  0.00  0.00    -0.153 OA
ATOM      5  N   UNL     1     -37.315  23.129   3.752  0.00  0.00    -0.160 NA
ATOM      6  N   UNL     1     -35.220  22.076   3.112  0.00  0.00    -0.318 N 
ATOM      7  C   UNL     1     -35.851  23.284   3.609  0.00  0.00    +0.178 C 
ATOM      8  C   UNL     1     -37.135  21.422   1.700  0.00  0.00    +0.136 C 
ATOM      9  C   UNL     1     -35.820  21.260   2.163  0.00  0.00    +0.065 C 
ATOM     10  C   UNL     1     -37.710  20.553   0.768  0.00  0.00    +0.042 C 
ATOM     11  C   UNL     1     -36.965  19.487   0.277  0.00  0.00    +0.134 C 
ATOM     12  C   UNL     1     -35.099  20.167   1.657  0.00  0.00    +0.028 C 
ATOM     13  C   UNL     1     -35.660  19.292   0.721  0.00  0.00    +0.078 C 
ATOM     14  H   UNL     1     -37.491  22.385   4.428  0.00  0.00    +0.151 HD
ATOM     15  H   UNL     1     -34.335  21.825   3.461  0.00  0.00    +0.148 HD
ENDROOT
BRANCH   7  18
ATOM     16 CL   UNL     1     -35.568  22.332   6.131  0.00  0.00    -0.094 Cl
ATOM     17 CL   UNL     1     -35.975  25.159   5.561  0.00  0.00    -0.094 Cl
ATOM     18  C   UNL     1     -35.265  23.642   4.970  0.00  0.00    +0.193 C 
ENDBRANCH   7  18
BRANCH  11  19
ATOM     19  S   UNL     1     -37.719  18.422  -0.892  0.00  0.00    +0.058 S 
ATOM     20  O   UNL     1     -37.047  18.673  -2.164  0.00  0.00    -0.153 OA
ATOM     21  O   UNL     1     -37.679  17.095  -0.285  0.00  0.00    -0.153 OA
BRANCH  19  22
ATOM     22  N   UNL     1     -39.367  18.878  -1.077  0.00  0.00    -0.203 NA
ATOM     23  H   UNL     1     -39.968  18.138  -0.712  0.00  0.00    +0.144 HD
ATOM     24  H   UNL     1     -39.570  19.024  -2.066  0.00  0.00    +0.144 HD
ENDBRANCH  19  22
ENDBRANCH  11  19
TORSDOF 3
ENDMDL
