MODEL 1
REMARK VINA RESULT:      -6.6      0.000      0.000
REMARK  Name = 53356000
REMARK  5 active torsions:
REMARK  status: ('A' for Active; 'I' for Inactive)
REMARK    1  A    between atoms: C_6  and  C_25
REMARK    2  A    between atoms: C_7  and  C_29
REMARK    3  A    between atoms: C_20  and  O_32
REMARK    4  A    between atoms: C_25  and  O_26
REMARK    5  A    between atoms: C_29  and  O_30
REMARK                            x       y       z     vdW  Elec       q    Type
REMARK                         _______ _______ _______ _____ _____    ______ ____
ROOT
ATOM      1  O   UNL     1     -38.905  18.024  -0.839  0.00  0.00    -0.270 OA
ATOM      2  O   UNL     1     -36.231  25.938   1.165  0.00  0.00    -0.226 OA
ATOM      3  N   UNL     1     -36.248  24.061   2.548  0.00  0.00    -0.227 N 
ATOM      4  N   UNL     1     -38.150  20.119  -0.035  0.00  0.00    -0.276 N 
ATOM      5  C   UNL     1     -36.840  22.967   1.646  0.00  0.00    +0.091 C 
ATOM      6  C   UNL     1     -36.039  21.658   2.111  0.00  0.00    +0.127 C 
ATOM      7  C   UNL     1     -38.377  22.818   1.928  0.00  0.00    +0.119 C 
ATOM      8  C   UNL     1     -38.404  21.523  -0.358  0.00  0.00    +0.080 C 
ATOM      9  C   UNL     1     -36.654  23.320   0.151  0.00  0.00    +0.022 C 
ATOM     10  C   UNL     1     -39.189  22.250   0.751  0.00  0.00    +0.035 C 
ATOM     11  C   UNL     1     -37.145  22.263  -0.834  0.00  0.00    +0.024 C 
ATOM     12  C   UNL     1     -36.772  20.292   2.088  0.00  0.00    +0.038 C 
ATOM     13  C   UNL     1     -35.691  22.053   3.545  0.00  0.00    +0.003 C 
ATOM     14  C   UNL     1     -37.018  19.638   0.735  0.00  0.00    +0.095 C 
ATOM     15  C   UNL     1     -35.775  23.435   3.729  0.00  0.00    +0.053 C 
ATOM     16  C   UNL     1     -39.362  21.331  -1.516  0.00  0.00    -0.004 C 
ATOM     17  C   UNL     1     -38.897  19.245  -0.830  0.00  0.00    +0.249 C 
ATOM     18  C   UNL     1     -39.681  20.061  -1.764  0.00  0.00    +0.055 C 
ATOM     19  C   UNL     1     -35.240  21.230   4.577  0.00  0.00    -0.002 C 
ATOM     20  C   UNL     1     -36.252  25.437   2.287  0.00  0.00    +0.409 C 
ATOM     21  C   UNL     1     -35.454  24.003   4.957  0.00  0.00    +0.015 C 
ATOM     22  C   UNL     1     -34.908  21.798   5.806  0.00  0.00    -0.000 C 
ATOM     23  C   UNL     1     -35.019  23.176   5.997  0.00  0.00    +0.001 C 
ENDROOT
BRANCH   6  25
ATOM     24  O   UNL     1     -34.115  22.451   0.859  0.00  0.00    -0.250 OA
ATOM     25  C   UNL     1     -34.701  21.522   1.401  0.00  0.00    +0.322 C 
BRANCH  25  26
ATOM     26  O   UNL     1     -34.278  20.228   1.469  0.00  0.00    -0.444 OA
ATOM     27  C   UNL     1     -33.121  19.917   0.686  0.00  0.00    +0.256 C 
ENDBRANCH  25  26
ENDBRANCH   6  25
BRANCH   7  29
ATOM     28  O   UNL     1     -39.200  24.467   3.491  0.00  0.00    -0.250 OA
ATOM     29  C   UNL     1     -39.033  24.114   2.331  0.00  0.00    +0.318 C 
BRANCH  29  30
ATOM     30  O   UNL     1     -39.398  24.806   1.214  0.00  0.00    -0.444 OA
ATOM     31  C   UNL     1     -39.809  26.160   1.436  0.00  0.00    +0.256 C 
ENDBRANCH  29  30
ENDBRANCH   7  29
BRANCH  20  32
ATOM     32  O   UNL     1     -36.227  26.210   3.418  0.00  0.00    -0.430 OA
ATOM     33  C   UNL     1     -35.240  27.247   3.464  0.00  0.00    +0.257 C 
ENDBRANCH  20  32
TORSDOF 5
ENDMDL
MODEL 2
REMARK VINA RESULT:      -6.0      2.808      7.021
REMARK  Name = 53356000
REMARK  5 active torsions:
REMARK  status: ('A' for Active; 'I' for Inactive)
REMARK    1  A    between atoms: C_6  and  C_25
REMARK    2  A    between atoms: C_7  and  C_29
REMARK    3  A    between atoms: C_20  and  O_32
REMARK    4  A    between atoms: C_25  and  O_26
REMARK    5  A    between atoms: C_29  and  O_30
REMARK                            x       y       z     vdW  Elec       q    Type
REMARK                         _______ _______ _______ _____ _____    ______ ____
ROOT
ATOM      1  O   UNL     1     -32.091  28.220   6.721  0.00  0.00    -0.270 OA
ATOM      2  O   UNL     1     -36.432  25.595  -0.212  0.00  0.00    -0.226 OA
ATOM      3  N   UNL     1     -35.548  24.266   1.487  0.00  0.00    -0.227 N 
ATOM      4  N   UNL     1     -33.221  27.249   4.881  0.00  0.00    -0.276 N 
ATOM      5  C   UNL     1     -34.885  25.289   2.423  0.00  0.00    +0.091 C 
ATOM      6  C   UNL     1     -35.138  24.653   3.873  0.00  0.00    +0.127 C 
ATOM      7  C   UNL     1     -33.350  25.382   2.108  0.00  0.00    +0.119 C 
ATOM      8  C   UNL     1     -33.471  27.615   3.488  0.00  0.00    +0.080 C 
ATOM      9  C   UNL     1     -35.504  26.695   2.236  0.00  0.00    +0.022 C 
ATOM     10  C   UNL     1     -32.700  26.722   2.495  0.00  0.00    +0.035 C 
ATOM     11  C   UNL     1     -34.966  27.773   3.170  0.00  0.00    +0.024 C 
ATOM     12  C   UNL     1     -34.063  24.857   4.971  0.00  0.00    +0.038 C 
ATOM     13  C   UNL     1     -35.248  23.175   3.501  0.00  0.00    +0.003 C 
ATOM     14  C   UNL     1     -33.954  26.233   5.614  0.00  0.00    +0.095 C 
ATOM     15  C   UNL     1     -35.532  23.010   2.144  0.00  0.00    +0.053 C 
ATOM     16  C   UNL     1     -32.791  28.970   3.472  0.00  0.00    -0.004 C 
ATOM     17  C   UNL     1     -32.454  28.203   5.555  0.00  0.00    +0.249 C 
ATOM     18  C   UNL     1     -32.180  29.293   4.612  0.00  0.00    +0.055 C 
ATOM     19  C   UNL     1     -35.188  22.070   4.349  0.00  0.00    -0.002 C 
ATOM     20  C   UNL     1     -36.007  24.513   0.187  0.00  0.00    +0.409 C 
ATOM     21  C   UNL     1     -35.715  21.737   1.612  0.00  0.00    +0.015 C 
ATOM     22  C   UNL     1     -35.380  20.793   3.821  0.00  0.00    -0.000 C 
ATOM     23  C   UNL     1     -35.637  20.628   2.459  0.00  0.00    +0.001 C 
ENDROOT
BRANCH   6  25
ATOM     24  O   UNL     1     -36.685  25.885   5.282  0.00  0.00    -0.250 OA
ATOM     25  C   UNL     1     -36.503  25.024   4.431  0.00  0.00    +0.322 C 
BRANCH  25  26
ATOM     26  O   UNL     1     -37.462  24.256   3.840  0.00  0.00    -0.444 OA
ATOM     27  C   UNL     1     -38.616  24.963   3.374  0.00  0.00    +0.256 C 
ENDBRANCH  25  26
ENDBRANCH   6  25
BRANCH   7  29
ATOM     28  O   UNL     1     -32.705  24.054   0.195  0.00  0.00    -0.250 OA
ATOM     29  C   UNL     1     -33.028  25.141   0.654  0.00  0.00    +0.318 C 
BRANCH  29  30
ATOM     30  O   UNL     1     -33.157  26.308  -0.040  0.00  0.00    -0.444 OA
ATOM     31  C   UNL     1     -32.908  26.216  -1.447  0.00  0.00    +0.256 C 
ENDBRANCH  29  30
ENDBRANCH   7  29
BRANCH  20  32
ATOM     32  O   UNL     1     -35.997  23.406  -0.618  0.00  0.00    -0.430 OA
ATOM     33  C   UNL     1     -35.523  23.592  -1.957  0.00  0.00    +0.257 C 
ENDBRANCH  20  32
TORSDOF 5
ENDMDL
MODEL 3
REMARK VINA RESULT:      -5.9      2.953      6.290
REMARK  Name = 53356000
REMARK  5 active torsions:
REMARK  status: ('A' for Active; 'I' for Inactive)
REMARK    1  A    between atoms: C_6  and  C_25
REMARK    2  A    between atoms: C_7  and  C_29
REMARK    3  A    between atoms: C_20  and  O_32
REMARK    4  A    between atoms: C_25  and  O_26
REMARK    5  A    between atoms: C_29  and  O_30
REMARK                            x       y       z     vdW  Elec       q    Type
REMARK                         _______ _______ _______ _____ _____    ______ ____
ROOT
ATOM      1  O   UNL     1     -35.372  20.636   4.277  0.00  0.00    -0.270 OA
ATOM      2  O   UNL     1     -35.255  29.164   3.245  0.00  0.00    -0.226 OA
ATOM      3  N   UNL     1     -34.355  27.556   1.816  0.00  0.00    -0.227 N 
ATOM      4  N   UNL     1     -35.176  22.944   3.788  0.00  0.00    -0.276 N 
ATOM      5  C   UNL     1     -34.673  26.234   2.532  0.00  0.00    +0.091 C 
ATOM      6  C   UNL     1     -34.966  25.236   1.311  0.00  0.00    +0.127 C 
ATOM      7  C   UNL     1     -33.425  25.763   3.359  0.00  0.00    +0.119 C 
ATOM      8  C   UNL     1     -35.148  24.184   4.562  0.00  0.00    +0.080 C 
ATOM      9  C   UNL     1     -35.864  26.402   3.505  0.00  0.00    +0.022 C 
ATOM     10  C   UNL     1     -33.760  24.854   4.555  0.00  0.00    +0.035 C 
ATOM     11  C   UNL     1     -36.309  25.129   4.217  0.00  0.00    +0.024 C 
ATOM     12  C   UNL     1     -34.566  23.745   1.460  0.00  0.00    +0.038 C 
ATOM     13  C   UNL     1     -34.138  25.905   0.215  0.00  0.00    +0.003 C 
ATOM     14  C   UNL     1     -35.421  22.864   2.360  0.00  0.00    +0.095 C 
ATOM     15  C   UNL     1     -33.860  27.237   0.526  0.00  0.00    +0.053 C 
ATOM     16  C   UNL     1     -35.345  23.605   5.948  0.00  0.00    -0.004 C 
ATOM     17  C   UNL     1     -35.295  21.812   4.598  0.00  0.00    +0.249 C 
ATOM     18  C   UNL     1     -35.386  22.273   5.988  0.00  0.00    +0.055 C 
ATOM     19  C   UNL     1     -33.748  25.371  -1.013  0.00  0.00    -0.002 C 
ATOM     20  C   UNL     1     -34.456  28.839   2.369  0.00  0.00    +0.409 C 
ATOM     21  C   UNL     1     -33.153  28.036  -0.366  0.00  0.00    +0.015 C 
ATOM     22  C   UNL     1     -33.047  26.172  -1.913  0.00  0.00    -0.000 C 
ATOM     23  C   UNL     1     -32.747  27.496  -1.590  0.00  0.00    +0.001 C 
ENDROOT
BRANCH   6  25
ATOM     24  O   UNL     1     -37.135  26.289   1.024  0.00  0.00    -0.250 OA
ATOM     25  C   UNL     1     -36.406  25.324   0.831  0.00  0.00    +0.322 C 
BRANCH  25  26
ATOM     26  O   UNL     1     -36.736  24.180   0.167  0.00  0.00    -0.444 OA
ATOM     27  C   UNL     1     -38.137  23.966  -0.030  0.00  0.00    +0.256 C 
ENDBRANCH  25  26
ENDBRANCH   6  25
BRANCH   7  29
ATOM     28  O   UNL     1     -31.603  27.349   3.343  0.00  0.00    -0.250 OA
ATOM     29  C   UNL     1     -32.603  26.908   3.894  0.00  0.00    +0.318 C 
BRANCH  29  30
ATOM     30  O   UNL     1     -33.148  27.355   5.061  0.00  0.00    -0.444 OA
ATOM     31  C   UNL     1     -32.295  28.179   5.863  0.00  0.00    +0.256 C 
ENDBRANCH  29  30
ENDBRANCH   7  29
BRANCH  20  32
ATOM     32  O   UNL     1     -33.604  29.749   1.803  0.00  0.00    -0.430 OA
ATOM     33  C   UNL     1     -32.885  30.600   2.703  0.00  0.00    +0.257 C 
ENDBRANCH  20  32
TORSDOF 5
ENDMDL
MODEL 4
REMARK VINA RESULT:      -5.8      2.476      5.970
REMARK  Name = 53356000
REMARK  5 active torsions:
REMARK  status: ('A' for Active; 'I' for Inactive)
REMARK    1  A    between atoms: C_6  and  C_25
REMARK    2  A    between atoms: C_7  and  C_29
REMARK    3  A    between atoms: C_20  and  O_32
REMARK    4  A    between atoms: C_25  and  O_26
REMARK    5  A    between atoms: C_29  and  O_30
REMARK                            x       y       z     vdW  Elec       q    Type
REMARK                         _______ _______ _______ _____ _____    ______ ____
ROOT
ATOM      1  O   UNL     1     -31.653  27.973   2.559  0.00  0.00    -0.270 OA
ATOM      2  O   UNL     1     -39.524  24.708   3.645  0.00  0.00    -0.226 OA
ATOM      3  N   UNL     1     -37.684  23.660   2.670  0.00  0.00    -0.227 N 
ATOM      4  N   UNL     1     -33.742  26.869   2.708  0.00  0.00    -0.276 N 
ATOM      5  C   UNL     1     -36.587  24.734   2.749  0.00  0.00    +0.091 C 
ATOM      6  C   UNL     1     -35.265  23.866   3.013  0.00  0.00    +0.127 C 
ATOM      7  C   UNL     1     -36.494  25.504   1.384  0.00  0.00    +0.119 C 
ATOM      8  C   UNL     1     -35.144  27.277   2.776  0.00  0.00    +0.080 C 
ATOM      9  C   UNL     1     -36.897  25.762   3.864  0.00  0.00    +0.022 C 
ATOM     10  C   UNL     1     -35.924  26.929   1.493  0.00  0.00    +0.035 C 
ATOM     11  C   UNL     1     -35.832  26.833   4.077  0.00  0.00    +0.024 C 
ATOM     12  C   UNL     1     -33.923  24.356   2.410  0.00  0.00    +0.038 C 
ATOM     13  C   UNL     1     -35.684  22.542   2.376  0.00  0.00    +0.003 C 
ATOM     14  C   UNL     1     -33.244  25.552   3.062  0.00  0.00    +0.095 C 
ATOM     15  C   UNL     1     -37.072  22.453   2.250  0.00  0.00    +0.053 C 
ATOM     16  C   UNL     1     -34.956  28.781   2.776  0.00  0.00    -0.004 C 
ATOM     17  C   UNL     1     -32.873  27.959   2.608  0.00  0.00    +0.249 C 
ATOM     18  C   UNL     1     -33.690  29.177   2.640  0.00  0.00    +0.055 C 
ATOM     19  C   UNL     1     -34.873  21.463   2.027  0.00  0.00    -0.002 C 
ATOM     20  C   UNL     1     -39.053  23.861   2.889  0.00  0.00    +0.409 C 
ATOM     21  C   UNL     1     -37.659  21.303   1.732  0.00  0.00    +0.015 C 
ATOM     22  C   UNL     1     -35.460  20.305   1.517  0.00  0.00    -0.000 C 
ATOM     23  C   UNL     1     -36.845  20.228   1.365  0.00  0.00    +0.001 C 
ENDROOT
BRANCH   6  25
ATOM     24  O   UNL     1     -34.222  24.085   5.195  0.00  0.00    -0.250 OA
ATOM     25  C   UNL     1     -35.069  23.553   4.488  0.00  0.00    +0.322 C 
BRANCH  25  26
ATOM     26  O   UNL     1     -35.970  22.607   4.877  0.00  0.00    -0.444 OA
ATOM     27  C   UNL     1     -35.618  21.868   6.051  0.00  0.00    +0.256 C 
ENDBRANCH  25  26
ENDBRANCH   6  25
BRANCH   7  29
ATOM     28  O   UNL     1     -38.681  26.438   0.953  0.00  0.00    -0.250 OA
ATOM     29  C   UNL     1     -37.821  25.613   0.675  0.00  0.00    +0.318 C 
BRANCH  29  30
ATOM     30  O   UNL     1     -37.895  24.664  -0.301  0.00  0.00    -0.444 OA
ATOM     31  C   UNL     1     -36.659  24.354  -0.953  0.00  0.00    +0.256 C 
ENDBRANCH  29  30
ENDBRANCH   7  29
BRANCH  20  32
ATOM     32  O   UNL     1     -39.852  22.977   2.215  0.00  0.00    -0.430 OA
ATOM     33  C   UNL     1     -40.747  23.534   1.246  0.00  0.00    +0.257 C 
ENDBRANCH  20  32
TORSDOF 5
ENDMDL
MODEL 5
REMARK VINA RESULT:      -5.7      2.349      5.559
REMARK  Name = 53356000
REMARK  5 active torsions:
REMARK  status: ('A' for Active; 'I' for Inactive)
REMARK    1  A    between atoms: C_6  and  C_25
REMARK    2  A    between atoms: C_7  and  C_29
REMARK    3  A    between atoms: C_20  and  O_32
REMARK    4  A    between atoms: C_25  and  O_26
REMARK    5  A    between atoms: C_29  and  O_30
REMARK                            x       y       z     vdW  Elec       q    Type
REMARK                         _______ _______ _______ _____ _____    ______ ____
ROOT
ATOM      1  O   UNL     1     -38.822  28.805  -1.665  0.00  0.00    -0.270 OA
ATOM      2  O   UNL     1     -37.625  20.891   1.455  0.00  0.00    -0.226 OA
ATOM      3  N   UNL     1     -36.875  22.899   2.373  0.00  0.00    -0.227 N 
ATOM      4  N   UNL     1     -38.327  26.735  -0.629  0.00  0.00    -0.276 N 
ATOM      5  C   UNL     1     -37.379  23.951   1.373  0.00  0.00    +0.091 C 
ATOM      6  C   UNL     1     -37.745  25.190   2.322  0.00  0.00    +0.127 C 
ATOM      7  C   UNL     1     -36.230  24.327   0.371  0.00  0.00    +0.119 C 
ATOM      8  C   UNL     1     -38.177  25.348  -1.068  0.00  0.00    +0.080 C 
ATOM      9  C   UNL     1     -38.577  23.410   0.555  0.00  0.00    +0.022 C 
ATOM     10  C   UNL     1     -36.718  24.858  -0.989  0.00  0.00    +0.035 C 
ATOM     11  C   UNL     1     -39.200  24.403  -0.421  0.00  0.00    +0.024 C 
ATOM     12  C   UNL     1     -37.536  26.628   1.779  0.00  0.00    +0.038 C 
ATOM     13  C   UNL     1     -36.801  24.918   3.492  0.00  0.00    +0.003 C 
ATOM     14  C   UNL     1     -38.525  27.150   0.748  0.00  0.00    +0.095 C 
ATOM     15  C   UNL     1     -36.375  23.589   3.506  0.00  0.00    +0.053 C 
ATOM     16  C   UNL     1     -38.496  25.529  -2.539  0.00  0.00    -0.004 C 
ATOM     17  C   UNL     1     -38.614  27.602  -1.687  0.00  0.00    +0.249 C 
ATOM     18  C   UNL     1     -38.701  26.794  -2.907  0.00  0.00    +0.055 C 
ATOM     19  C   UNL     1     -36.433  25.788   4.518  0.00  0.00    -0.002 C 
ATOM     20  C   UNL     1     -36.840  21.514   2.166  0.00  0.00    +0.409 C 
ATOM     21  C   UNL     1     -35.542  23.126   4.520  0.00  0.00    +0.015 C 
ATOM     22  C   UNL     1     -35.606  25.325   5.541  0.00  0.00    -0.000 C 
ATOM     23  C   UNL     1     -35.159  24.003   5.539  0.00  0.00    +0.001 C 
ENDROOT
BRANCH   6  25
ATOM     24  O   UNL     1     -39.660  24.013   3.242  0.00  0.00    -0.250 OA
ATOM     25  C   UNL     1     -39.144  25.072   2.906  0.00  0.00    +0.322 C 
BRANCH  25  26
ATOM     26  O   UNL     1     -39.710  26.310   2.988  0.00  0.00    -0.444 OA
ATOM     27  C   UNL     1     -41.102  26.329   3.321  0.00  0.00    +0.256 C 
ENDBRANCH  25  26
ENDBRANCH   6  25
BRANCH   7  29
ATOM     28  O   UNL     1     -35.538  22.276  -0.702  0.00  0.00    -0.250 OA
ATOM     29  C   UNL     1     -35.294  23.179   0.086  0.00  0.00    +0.318 C 
BRANCH  29  30
ATOM     30  O   UNL     1     -34.163  23.318   0.834  0.00  0.00    -0.444 OA
ATOM     31  C   UNL     1     -33.756  24.666   1.091  0.00  0.00    +0.256 C 
ENDBRANCH  29  30
ENDBRANCH   7  29
BRANCH  20  32
ATOM     32  O   UNL     1     -35.862  20.877   2.883  0.00  0.00    -0.430 OA
ATOM     33  C   UNL     1     -34.886  20.149   2.129  0.00  0.00    +0.257 C 
ENDBRANCH  20  32
TORSDOF 5
ENDMDL
MODEL 6
REMARK VINA RESULT:      -5.6      1.240      1.355
REMARK  Name = 53356000
REMARK  5 active torsions:
REMARK  status: ('A' for Active; 'I' for Inactive)
REMARK    1  A    between atoms: C_6  and  C_25
REMARK    2  A    between atoms: C_7  and  C_29
REMARK    3  A    between atoms: C_20  and  O_32
REMARK    4  A    between atoms: C_25  and  O_26
REMARK    5  A    between atoms: C_29  and  O_30
REMARK                            x       y       z     vdW  Elec       q    Type
REMARK                         _______ _______ _______ _____ _____    ______ ____
ROOT
ATOM      1  O   UNL     1     -37.498  16.853  -0.889  0.00  0.00    -0.270 OA
ATOM      2  O   UNL     1     -37.397  25.325   0.529  0.00  0.00    -0.226 OA
ATOM      3  N   UNL     1     -36.897  23.633   2.053  0.00  0.00    -0.227 N 
ATOM      4  N   UNL     1     -37.435  19.129  -0.241  0.00  0.00    -0.276 N 
ATOM      5  C   UNL     1     -37.102  22.350   1.231  0.00  0.00    +0.091 C 
ATOM      6  C   UNL     1     -35.960  21.381   1.805  0.00  0.00    +0.127 C 
ATOM      7  C   UNL     1     -38.531  21.764   1.506  0.00  0.00    +0.119 C 
ATOM      8  C   UNL     1     -38.088  20.364  -0.674  0.00  0.00    +0.080 C 
ATOM      9  C   UNL     1     -36.979  22.637  -0.285  0.00  0.00    +0.022 C 
ATOM     10  C   UNL     1     -39.094  20.896   0.366  0.00  0.00    +0.035 C 
ATOM     11  C   UNL     1     -37.095  21.416  -1.191  0.00  0.00    +0.024 C 
ATOM     12  C   UNL     1     -36.248  19.859   1.879  0.00  0.00    +0.038 C 
ATOM     13  C   UNL     1     -35.797  21.962   3.208  0.00  0.00    +0.003 C 
ATOM     14  C   UNL     1     -36.239  19.068   0.578  0.00  0.00    +0.095 C 
ATOM     15  C   UNL     1     -36.300  23.263   3.284  0.00  0.00    +0.053 C 
ATOM     16  C   UNL     1     -38.904  19.811  -1.825  0.00  0.00    -0.004 C 
ATOM     17  C   UNL     1     -37.858  18.017  -0.974  0.00  0.00    +0.249 C 
ATOM     18  C   UNL     1     -38.817  18.490  -1.978  0.00  0.00    +0.055 C 
ATOM     19  C   UNL     1     -35.156  21.389   4.306  0.00  0.00    -0.002 C 
ATOM     20  C   UNL     1     -37.306  24.922   1.686  0.00  0.00    +0.409 C 
ATOM     21  C   UNL     1     -36.206  23.986   4.468  0.00  0.00    +0.015 C 
ATOM     22  C   UNL     1     -35.053  22.114   5.492  0.00  0.00    -0.000 C 
ATOM     23  C   UNL     1     -35.579  23.404   5.574  0.00  0.00    +0.001 C 
ENDROOT
BRANCH   6  25
ATOM     24  O   UNL     1     -34.166  22.711   0.853  0.00  0.00    -0.250 OA
ATOM     25  C   UNL     1     -34.620  21.607   1.123  0.00  0.00    +0.322 C 
BRANCH  25  26
ATOM     26  O   UNL     1     -34.027  20.404   0.873  0.00  0.00    -0.444 OA
ATOM     27  C   UNL     1     -32.706  20.471   0.329  0.00  0.00    +0.256 C 
ENDBRANCH  25  26
ENDBRANCH   6  25
BRANCH   7  29
ATOM     28  O   UNL     1     -39.850  23.207   2.925  0.00  0.00    -0.250 OA
ATOM     29  C   UNL     1     -39.561  22.826   1.799  0.00  0.00    +0.318 C 
BRANCH  29  30
ATOM     30  O   UNL     1     -40.097  23.276   0.629  0.00  0.00    -0.444 OA
ATOM     31  C   UNL     1     -41.100  24.289   0.762  0.00  0.00    +0.256 C 
ENDBRANCH  29  30
ENDBRANCH   7  29
BRANCH  20  32
ATOM     32  O   UNL     1     -37.554  25.743   2.754  0.00  0.00    -0.430 OA
ATOM     33  C   UNL     1     -38.873  26.294   2.845  0.00  0.00    +0.257 C 
ENDBRANCH  20  32
TORSDOF 5
ENDMDL
MODEL 7
REMARK VINA RESULT:      -5.6      2.554      5.118
REMARK  Name = 53356000
REMARK  5 active torsions:
REMARK  status: ('A' for Active; 'I' for Inactive)
REMARK    1  A    between atoms: C_6  and  C_25
REMARK    2  A    between atoms: C_7  and  C_29
REMARK    3  A    between atoms: C_20  and  O_32
REMARK    4  A    between atoms: C_25  and  O_26
REMARK    5  A    between atoms: C_29  and  O_30
REMARK                            x       y       z     vdW  Elec       q    Type
REMARK                         _______ _______ _______ _____ _____    ______ ____
ROOT
ATOM      1  O   UNL     1     -36.411  28.202  -2.465  0.00  0.00    -0.270 OA
ATOM      2  O   UNL     1     -35.942  24.773   5.398  0.00  0.00    -0.226 OA
ATOM      3  N   UNL     1     -35.715  23.665   3.358  0.00  0.00    -0.227 N 
ATOM      4  N   UNL     1     -36.278  27.020  -0.418  0.00  0.00    -0.276 N 
ATOM      5  C   UNL     1     -35.908  24.788   2.327  0.00  0.00    +0.091 C 
ATOM      6  C   UNL     1     -34.897  24.365   1.156  0.00  0.00    +0.127 C 
ATOM      7  C   UNL     1     -37.392  24.794   1.817  0.00  0.00    +0.119 C 
ATOM      8  C   UNL     1     -36.804  27.198   0.935  0.00  0.00    +0.080 C 
ATOM      9  C   UNL     1     -35.605  26.172   2.950  0.00  0.00    +0.022 C 
ATOM     10  C   UNL     1     -37.881  26.155   1.292  0.00  0.00    +0.035 C 
ATOM     11  C   UNL     1     -35.697  27.353   1.989  0.00  0.00    +0.024 C 
ATOM     12  C   UNL     1     -35.285  24.689  -0.311  0.00  0.00    +0.038 C 
ATOM     13  C   UNL     1     -34.851  22.854   1.376  0.00  0.00    +0.003 C 
ATOM     14  C   UNL     1     -35.183  26.136  -0.771  0.00  0.00    +0.095 C 
ATOM     15  C   UNL     1     -35.278  22.512   2.660  0.00  0.00    +0.053 C 
ATOM     16  C   UNL     1     -37.523  28.517   0.740  0.00  0.00    -0.004 C 
ATOM     17  C   UNL     1     -36.687  28.035  -1.287  0.00  0.00    +0.249 C 
ATOM     18  C   UNL     1     -37.502  28.977  -0.512  0.00  0.00    +0.055 C 
ATOM     19  C   UNL     1     -34.369  21.875   0.508  0.00  0.00    -0.002 C 
ATOM     20  C   UNL     1     -36.002  23.745   4.727  0.00  0.00    +0.409 C 
ATOM     21  C   UNL     1     -35.268  21.184   3.075  0.00  0.00    +0.015 C 
ATOM     22  C   UNL     1     -34.350  20.544   0.924  0.00  0.00    -0.000 C 
ATOM     23  C   UNL     1     -34.802  20.200   2.198  0.00  0.00    +0.001 C 
ENDROOT
BRANCH   6  25
ATOM     24  O   UNL     1     -33.110  25.344   2.476  0.00  0.00    -0.250 OA
ATOM     25  C   UNL     1     -33.480  24.848   1.420  0.00  0.00    +0.322 C 
BRANCH  25  26
ATOM     26  O   UNL     1     -32.714  24.641   0.311  0.00  0.00    -0.444 OA
ATOM     27  C   UNL     1     -31.674  25.600   0.094  0.00  0.00    +0.256 C 
ENDBRANCH  25  26
ENDBRANCH   6  25
BRANCH   7  29
ATOM     28  O   UNL     1     -38.808  25.066   3.756  0.00  0.00    -0.250 OA
ATOM     29  C   UNL     1     -38.380  24.345   2.865  0.00  0.00    +0.318 C 
BRANCH  29  30
ATOM     30  O   UNL     1     -38.705  23.038   2.654  0.00  0.00    -0.444 OA
ATOM     31  C   UNL     1     -38.714  22.618   1.285  0.00  0.00    +0.256 C 
ENDBRANCH  29  30
ENDBRANCH   7  29
BRANCH  20  32
ATOM     32  O   UNL     1     -36.313  22.536   5.293  0.00  0.00    -0.430 OA
ATOM     33  C   UNL     1     -35.504  22.121   6.400  0.00  0.00    +0.257 C 
ENDBRANCH  20  32
TORSDOF 5
ENDMDL
MODEL 8
REMARK VINA RESULT:      -5.6      2.116      6.041
REMARK  Name = 53356000
REMARK  5 active torsions:
REMARK  status: ('A' for Active; 'I' for Inactive)
REMARK    1  A    between atoms: C_6  and  C_25
REMARK    2  A    between atoms: C_7  and  C_29
REMARK    3  A    between atoms: C_20  and  O_32
REMARK    4  A    between atoms: C_25  and  O_26
REMARK    5  A    between atoms: C_29  and  O_30
REMARK                            x       y       z     vdW  Elec       q    Type
REMARK                         _______ _______ _______ _____ _____    ______ ____
ROOT
ATOM      1  O   UNL     1     -32.814  26.780   4.594  0.00  0.00    -0.270 OA
ATOM      2  O   UNL     1     -39.132  21.451   2.250  0.00  0.00    -0.226 OA
ATOM      3  N   UNL     1     -38.068  23.048   0.926  0.00  0.00    -0.227 N 
ATOM      4  N   UNL     1     -34.568  25.449   3.721  0.00  0.00    -0.276 N 
ATOM      5  C   UNL     1     -37.054  23.683   1.891  0.00  0.00    +0.091 C 
ATOM      6  C   UNL     1     -35.804  23.989   0.934  0.00  0.00    +0.127 C 
ATOM      7  C   UNL     1     -37.646  25.009   2.487  0.00  0.00    +0.119 C 
ATOM      8  C   UNL     1     -35.731  24.752   4.268  0.00  0.00    +0.080 C 
ATOM      9  C   UNL     1     -36.729  22.727   3.063  0.00  0.00    +0.022 C 
ATOM     10  C   UNL     1     -37.062  25.409   3.854  0.00  0.00    +0.035 C 
ATOM     11  C   UNL     1     -35.676  23.233   4.044  0.00  0.00    +0.024 C 
ATOM     12  C   UNL     1     -34.940  25.245   1.221  0.00  0.00    +0.038 C 
ATOM     13  C   UNL     1     -36.523  24.130  -0.407  0.00  0.00    +0.003 C 
ATOM     14  C   UNL     1     -33.994  25.201   2.412  0.00  0.00    +0.095 C 
ATOM     15  C   UNL     1     -37.785  23.534  -0.375  0.00  0.00    +0.053 C 
ATOM     16  C   UNL     1     -35.529  25.067   5.737  0.00  0.00    -0.004 C 
ATOM     17  C   UNL     1     -33.841  26.127   4.704  0.00  0.00    +0.249 C 
ATOM     18  C   UNL     1     -34.497  25.872   5.991  0.00  0.00    +0.055 C 
ATOM     19  C   UNL     1     -36.029  24.674  -1.592  0.00  0.00    -0.002 C 
ATOM     20  C   UNL     1     -39.131  22.207   1.282  0.00  0.00    +0.409 C 
ATOM     21  C   UNL     1     -38.584  23.515  -1.514  0.00  0.00    +0.015 C 
ATOM     22  C   UNL     1     -36.824  24.648  -2.738  0.00  0.00    -0.000 C 
ATOM     23  C   UNL     1     -38.096  24.076  -2.697  0.00  0.00    +0.001 C 
ENDROOT
BRANCH   6  25
ATOM     24  O   UNL     1     -35.249  21.626   0.975  0.00  0.00    -0.250 OA
ATOM     25  C   UNL     1     -34.896  22.781   0.773  0.00  0.00    +0.322 C 
BRANCH  25  26
ATOM     26  O   UNL     1     -33.658  23.190   0.375  0.00  0.00    -0.444 OA
ATOM     27  C   UNL     1     -32.905  22.233  -0.376  0.00  0.00    +0.256 C 
ENDBRANCH  25  26
ENDBRANCH   6  25
BRANCH   7  29
ATOM     28  O   UNL     1     -39.723  24.449   3.588  0.00  0.00    -0.250 OA
ATOM     29  C   UNL     1     -39.145  24.970   2.644  0.00  0.00    +0.318 C 
BRANCH  29  30
ATOM     30  O   UNL     1     -39.730  25.598   1.584  0.00  0.00    -0.444 OA
ATOM     31  C   UNL     1     -38.977  26.673   1.013  0.00  0.00    +0.256 C 
ENDBRANCH  29  30
ENDBRANCH   7  29
BRANCH  20  32
ATOM     32  O   UNL     1     -40.184  22.256   0.408  0.00  0.00    -0.430 OA
ATOM     33  C   UNL     1     -40.669  21.000  -0.080  0.00  0.00    +0.257 C 
ENDBRANCH  20  32
TORSDOF 5
ENDMDL
MODEL 9
REMARK VINA RESULT:      -5.6      2.457      6.665
REMARK  Name = 53356000
REMARK  5 active torsions:
REMARK  status: ('A' for Active; 'I' for Inactive)
REMARK    1  A    between atoms: C_6  and  C_25
REMARK    2  A    between atoms: C_7  and  C_29
REMARK    3  A    between atoms: C_20  and  O_32
REMARK    4  A    between atoms: C_25  and  O_26
REMARK    5  A    between atoms: C_29  and  O_30
REMARK                            x       y       z     vdW  Elec       q    Type
REMARK                         _______ _______ _______ _____ _____    ______ ____
ROOT
ATOM      1  O   UNL     1     -35.964  24.048   5.623  0.00  0.00    -0.270 OA
ATOM      2  O   UNL     1     -39.304  23.135  -2.239  0.00  0.00    -0.226 OA
ATOM      3  N   UNL     1     -40.414  23.813  -0.304  0.00  0.00    -0.227 N 
ATOM      4  N   UNL     1     -37.123  23.835   3.569  0.00  0.00    -0.276 N 
ATOM      5  C   UNL     1     -39.311  23.770   0.765  0.00  0.00    +0.091 C 
ATOM      6  C   UNL     1     -39.689  25.010   1.709  0.00  0.00    +0.127 C 
ATOM      7  C   UNL     1     -39.387  22.416   1.556  0.00  0.00    +0.119 C 
ATOM      8  C   UNL     1     -36.962  23.046   2.348  0.00  0.00    +0.080 C 
ATOM      9  C   UNL     1     -37.908  23.876   0.120  0.00  0.00    +0.022 C 
ATOM     10  C   UNL     1     -38.057  21.972   2.190  0.00  0.00    +0.035 C 
ATOM     11  C   UNL     1     -36.741  23.915   1.101  0.00  0.00    +0.024 C 
ATOM     12  C   UNL     1     -39.398  24.903   3.228  0.00  0.00    +0.038 C 
ATOM     13  C   UNL     1     -41.194  25.088   1.457  0.00  0.00    +0.003 C 
ATOM     14  C   UNL     1     -37.951  25.020   3.686  0.00  0.00    +0.095 C 
ATOM     15  C   UNL     1     -41.548  24.435   0.275  0.00  0.00    +0.053 C 
ATOM     16  C   UNL     1     -35.683  22.314   2.703  0.00  0.00    -0.004 C 
ATOM     17  C   UNL     1     -36.136  23.554   4.519  0.00  0.00    +0.249 C 
ATOM     18  C   UNL     1     -35.233  22.558   3.934  0.00  0.00    +0.055 C 
ATOM     19  C   UNL     1     -42.153  25.779   2.197  0.00  0.00    -0.002 C 
ATOM     20  C   UNL     1     -40.340  23.259  -1.589  0.00  0.00    +0.409 C 
ATOM     21  C   UNL     1     -42.871  24.429  -0.157  0.00  0.00    +0.015 C 
ATOM     22  C   UNL     1     -43.478  25.782   1.762  0.00  0.00    -0.000 C 
ATOM     23  C   UNL     1     -43.836  25.107   0.594  0.00  0.00    +0.001 C 
ENDROOT
BRANCH   6  25
ATOM     24  O   UNL     1     -38.239  26.958   1.730  0.00  0.00    -0.250 OA
ATOM     25  C   UNL     1     -39.131  26.323   1.182  0.00  0.00    +0.322 C 
BRANCH  25  26
ATOM     26  O   UNL     1     -39.774  26.662   0.028  0.00  0.00    -0.444 OA
ATOM     27  C   UNL     1     -38.949  27.242  -0.988  0.00  0.00    +0.256 C 
ENDBRANCH  25  26
ENDBRANCH   6  25
BRANCH   7  29
ATOM     28  O   UNL     1     -41.048  20.915   0.646  0.00  0.00    -0.250 OA
ATOM     29  C   UNL     1     -39.878  21.266   0.713  0.00  0.00    +0.318 C 
BRANCH  29  30
ATOM     30  O   UNL     1     -38.825  20.699   0.058  0.00  0.00    -0.444 OA
ATOM     31  C   UNL     1     -39.167  19.694  -0.902  0.00  0.00    +0.256 C 
ENDBRANCH  29  30
ENDBRANCH   7  29
BRANCH  20  32
ATOM     32  O   UNL     1     -41.558  22.904  -2.104  0.00  0.00    -0.430 OA
ATOM     33  C   UNL     1     -41.607  21.679  -2.844  0.00  0.00    +0.257 C 
ENDBRANCH  20  32
TORSDOF 5
ENDMDL
