MODEL 1
REMARK VINA RESULT:      -5.2      0.000      0.000
REMARK  Name = 193135
REMARK  7 active torsions:
REMARK  status: ('A' for Active; 'I' for Inactive)
REMARK    1  A    between atoms: C_2  and  O_7
REMARK    2  A    between atoms: C_3  and  O_9
REMARK    3  A    between atoms: C_4  and  O_11
REMARK    4  A    between atoms: C_5  and  C_17
REMARK    5  A    between atoms: C_6  and  N_13
REMARK    6  A    between atoms: N_13  and  N_16
REMARK    7  A    between atoms: C_17  and  O_18
REMARK                            x       y       z     vdW  Elec       q    Type
REMARK                         _______ _______ _______ _____ _____    ______ ____
ROOT
ATOM      1  O   UNL     1     -34.930  24.316   5.490  0.00  0.00    -0.335 OA
ATOM      2  C   UNL     1     -37.052  24.051   3.580  0.00  0.00    +0.170 C 
ATOM      3  C   UNL     1     -36.257  22.847   4.087  0.00  0.00    +0.169 C 
ATOM      4  C   UNL     1     -36.251  25.350   3.713  0.00  0.00    +0.184 C 
ATOM      5  C   UNL     1     -35.727  23.125   5.498  0.00  0.00    +0.175 C 
ATOM      6  C   UNL     1     -35.671  25.485   5.130  0.00  0.00    +0.222 C 
ENDROOT
BRANCH   2   7
ATOM      7  O   UNL     1     -37.417  23.861   2.215  0.00  0.00    -0.379 OA
ATOM      8  H   UNL     1     -38.021  23.105   2.144  0.00  0.00    +0.211 HD
ENDBRANCH   2   7
BRANCH   3   9
ATOM      9  O   UNL     1     -35.169  22.577   3.201  0.00  0.00    -0.379 OA
ATOM     10  H   UNL     1     -34.461  22.125   3.686  0.00  0.00    +0.211 HD
ENDBRANCH   3   9
BRANCH   4  11
ATOM     11  O   UNL     1     -37.110  26.454   3.430  0.00  0.00    -0.378 OA
ATOM     12  H   UNL     1     -36.576  27.225   3.180  0.00  0.00    +0.211 HD
ENDBRANCH   4  11
BRANCH   6  13
ATOM     13  N   UNL     1     -34.817  26.671   5.199  0.00  0.00    -0.148 NA
ATOM     14  C   UNL     1     -33.703  26.423   6.126  0.00  0.00    +0.114 C 
BRANCH  13  16
ATOM     15  O   UNL     1     -34.650  28.289   3.856  0.00  0.00    -0.082 OA
ATOM     16  N   UNL     1     -34.438  27.080   4.005  0.00  0.00    +0.034 NA
ENDBRANCH  13  16
ENDBRANCH   6  13
BRANCH   5  17
ATOM     17  C   UNL     1     -34.849  21.993   6.023  0.00  0.00    +0.169 C 
BRANCH  17  18
ATOM     18  O   UNL     1     -35.416  20.759   5.620  0.00  0.00    -0.379 OA
ATOM     19  H   UNL     1     -36.348  20.894   5.386  0.00  0.00    +0.211 HD
ENDBRANCH  17  18
ENDBRANCH   5  17
TORSDOF 7
ENDMDL
MODEL 2
REMARK VINA RESULT:      -5.1      1.775      2.205
REMARK  Name = 193135
REMARK  7 active torsions:
REMARK  status: ('A' for Active; 'I' for Inactive)
REMARK    1  A    between atoms: C_2  and  O_7
REMARK    2  A    between atoms: C_3  and  O_9
REMARK    3  A    between atoms: C_4  and  O_11
REMARK    4  A    between atoms: C_5  and  C_17
REMARK    5  A    between atoms: C_6  and  N_13
REMARK    6  A    between atoms: N_13  and  N_16
REMARK    7  A    between atoms: C_17  and  O_18
REMARK                            x       y       z     vdW  Elec       q    Type
REMARK                         _______ _______ _______ _____ _____    ______ ____
ROOT
ATOM      1  O   UNL     1     -33.906  24.342   4.730  0.00  0.00    -0.335 OA
ATOM      2  C   UNL     1     -36.341  25.857   4.715  0.00  0.00    +0.170 C 
ATOM      3  C   UNL     1     -36.323  24.346   4.952  0.00  0.00    +0.169 C 
ATOM      4  C   UNL     1     -35.105  26.318   3.937  0.00  0.00    +0.184 C 
ATOM      5  C   UNL     1     -34.986  23.929   5.577  0.00  0.00    +0.175 C 
ATOM      6  C   UNL     1     -33.824  25.762   4.577  0.00  0.00    +0.222 C 
ENDROOT
BRANCH   2   7
ATOM      7  O   UNL     1     -37.515  26.228   3.997  0.00  0.00    -0.379 OA
ATOM      8  H   UNL     1     -37.957  25.431   3.666  0.00  0.00    +0.211 HD
ENDBRANCH   2   7
BRANCH   3   9
ATOM      9  O   UNL     1     -36.519  23.659   3.715  0.00  0.00    -0.379 OA
ATOM     10  H   UNL     1     -36.864  22.769   3.889  0.00  0.00    +0.211 HD
ENDBRANCH   3   9
BRANCH   4  11
ATOM     11  O   UNL     1     -35.068  27.746   3.933  0.00  0.00    -0.378 OA
ATOM     12  H   UNL     1     -34.490  28.053   3.217  0.00  0.00    +0.211 HD
ENDBRANCH   4  11
BRANCH   6  13
ATOM     13  N   UNL     1     -32.669  26.119   3.754  0.00  0.00    -0.148 NA
ATOM     14  C   UNL     1     -32.955  25.813   2.344  0.00  0.00    +0.114 C 
BRANCH  13  16
ATOM     15  O   UNL     1     -32.169  27.601   5.170  0.00  0.00    -0.082 OA
ATOM     16  N   UNL     1     -32.277  27.360   3.962  0.00  0.00    +0.034 NA
ENDBRANCH  13  16
ENDBRANCH   6  13
BRANCH   5  17
ATOM     17  C   UNL     1     -34.874  22.419   5.754  0.00  0.00    +0.169 C 
BRANCH  17  18
ATOM     18  O   UNL     1     -36.112  21.928   6.237  0.00  0.00    -0.379 OA
ATOM     19  H   UNL     1     -36.286  21.056   5.848  0.00  0.00    +0.211 HD
ENDBRANCH  17  18
ENDBRANCH   5  17
TORSDOF 7
ENDMDL
MODEL 3
REMARK VINA RESULT:      -4.9      1.753      2.102
REMARK  Name = 193135
REMARK  7 active torsions:
REMARK  status: ('A' for Active; 'I' for Inactive)
REMARK    1  A    between atoms: C_2  and  O_7
REMARK    2  A    between atoms: C_3  and  O_9
REMARK    3  A    between atoms: C_4  and  O_11
REMARK    4  A    between atoms: C_5  and  C_17
REMARK    5  A    between atoms: C_6  and  N_13
REMARK    6  A    between atoms: N_13  and  N_16
REMARK    7  A    between atoms: C_17  and  O_18
REMARK                            x       y       z     vdW  Elec       q    Type
REMARK                         _______ _______ _______ _____ _____    ______ ____
ROOT
ATOM      1  O   UNL     1     -34.781  23.569   3.961  0.00  0.00    -0.335 OA
ATOM      2  C   UNL     1     -37.348  24.832   4.165  0.00  0.00    +0.170 C 
ATOM      3  C   UNL     1     -37.132  23.552   3.357  0.00  0.00    +0.169 C 
ATOM      4  C   UNL     1     -36.048  25.629   4.314  0.00  0.00    +0.184 C 
ATOM      5  C   UNL     1     -35.960  22.754   3.941  0.00  0.00    +0.175 C 
ATOM      6  C   UNL     1     -34.908  24.720   4.801  0.00  0.00    +0.222 C 
ENDROOT
BRANCH   2   7
ATOM      7  O   UNL     1     -38.332  25.650   3.538  0.00  0.00    -0.379 OA
ATOM      8  H   UNL     1     -39.090  25.103   3.280  0.00  0.00    +0.211 HD
ENDBRANCH   2   7
BRANCH   3   9
ATOM      9  O   UNL     1     -36.867  23.880   1.992  0.00  0.00    -0.379 OA
ATOM     10  H   UNL     1     -36.645  23.073   1.501  0.00  0.00    +0.211 HD
ENDBRANCH   3   9
BRANCH   4  11
ATOM     11  O   UNL     1     -36.259  26.688   5.247  0.00  0.00    -0.378 OA
ATOM     12  H   UNL     1     -36.225  27.540   4.784  0.00  0.00    +0.211 HD
ENDBRANCH   4  11
BRANCH   6  13
ATOM     13  N   UNL     1     -33.655  25.474   4.825  0.00  0.00    -0.148 NA
ATOM     14  C   UNL     1     -33.479  26.177   3.546  0.00  0.00    +0.114 C 
BRANCH  13  16
ATOM     15  O   UNL     1     -33.263  27.412   5.561  0.00  0.00    -0.082 OA
ATOM     16  N   UNL     1     -33.568  26.257   5.881  0.00  0.00    +0.034 NA
ENDBRANCH  13  16
ENDBRANCH   6  13
BRANCH   5  17
ATOM     17  C   UNL     1     -35.639  21.509   3.121  0.00  0.00    +0.169 C 
BRANCH  17  18
ATOM     18  O   UNL     1     -36.856  20.926   2.690  0.00  0.00    -0.379 OA
ATOM     19  H   UNL     1     -37.554  21.124   3.335  0.00  0.00    +0.211 HD
ENDBRANCH  17  18
ENDBRANCH   5  17
TORSDOF 7
ENDMDL
MODEL 4
REMARK VINA RESULT:      -4.9      2.332      4.309
REMARK  Name = 193135
REMARK  7 active torsions:
REMARK  status: ('A' for Active; 'I' for Inactive)
REMARK    1  A    between atoms: C_2  and  O_7
REMARK    2  A    between atoms: C_3  and  O_9
REMARK    3  A    between atoms: C_4  and  O_11
REMARK    4  A    between atoms: C_5  and  C_17
REMARK    5  A    between atoms: C_6  and  N_13
REMARK    6  A    between atoms: N_13  and  N_16
REMARK    7  A    between atoms: C_17  and  O_18
REMARK                            x       y       z     vdW  Elec       q    Type
REMARK                         _______ _______ _______ _____ _____    ______ ____
ROOT
ATOM      1  O   UNL     1     -36.537  24.626   3.562  0.00  0.00    -0.335 OA
ATOM      2  C   UNL     1     -37.406  22.198   2.308  0.00  0.00    +0.170 C 
ATOM      3  C   UNL     1     -38.139  23.526   2.109  0.00  0.00    +0.169 C 
ATOM      4  C   UNL     1     -36.616  22.184   3.620  0.00  0.00    +0.184 C 
ATOM      5  C   UNL     1     -37.161  24.695   2.274  0.00  0.00    +0.175 C 
ATOM      6  C   UNL     1     -35.748  23.447   3.743  0.00  0.00    +0.222 C 
ENDROOT
BRANCH   2   7
ATOM      7  O   UNL     1     -38.336  21.118   2.307  0.00  0.00    -0.379 OA
ATOM      8  H   UNL     1     -38.518  20.847   3.221  0.00  0.00    +0.211 HD
ENDBRANCH   2   7
BRANCH   3   9
ATOM      9  O   UNL     1     -39.201  23.640   3.058  0.00  0.00    -0.379 OA
ATOM     10  H   UNL     1     -40.028  23.328   2.657  0.00  0.00    +0.211 HD
ENDBRANCH   3   9
BRANCH   4  11
ATOM     11  O   UNL     1     -35.790  21.020   3.650  0.00  0.00    -0.378 OA
ATOM     12  H   UNL     1     -35.900  20.523   2.823  0.00  0.00    +0.211 HD
ENDBRANCH   4  11
BRANCH   6  13
ATOM     13  N   UNL     1     -35.093  23.466   5.050  0.00  0.00    -0.148 NA
ATOM     14  C   UNL     1     -34.752  24.851   5.410  0.00  0.00    +0.114 C 
BRANCH  13  16
ATOM     15  O   UNL     1     -35.113  21.988   6.555  0.00  0.00    -0.082 OA
ATOM     16  N   UNL     1     -35.797  22.834   5.967  0.00  0.00    +0.034 NA
ENDBRANCH  13  16
ENDBRANCH   6  13
BRANCH   5  17
ATOM     17  C   UNL     1     -37.852  26.050   2.174  0.00  0.00    +0.169 C 
BRANCH  17  18
ATOM     18  O   UNL     1     -38.382  26.381   3.446  0.00  0.00    -0.379 OA
ATOM     19  H   UNL     1     -37.791  27.012   3.886  0.00  0.00    +0.211 HD
ENDBRANCH  17  18
ENDBRANCH   5  17
TORSDOF 7
ENDMDL
MODEL 5
REMARK VINA RESULT:      -4.9      2.370      4.220
REMARK  Name = 193135
REMARK  7 active torsions:
REMARK  status: ('A' for Active; 'I' for Inactive)
REMARK    1  A    between atoms: C_2  and  O_7
REMARK    2  A    between atoms: C_3  and  O_9
REMARK    3  A    between atoms: C_4  and  O_11
REMARK    4  A    between atoms: C_5  and  C_17
REMARK    5  A    between atoms: C_6  and  N_13
REMARK    6  A    between atoms: N_13  and  N_16
REMARK    7  A    between atoms: C_17  and  O_18
REMARK                            x       y       z     vdW  Elec       q    Type
REMARK                         _______ _______ _______ _____ _____    ______ ____
ROOT
ATOM      1  O   UNL     1     -34.455  24.403   4.799  0.00  0.00    -0.335 OA
ATOM      2  C   UNL     1     -37.037  24.982   3.693  0.00  0.00    +0.170 C 
ATOM      3  C   UNL     1     -36.116  26.079   4.231  0.00  0.00    +0.169 C 
ATOM      4  C   UNL     1     -36.722  23.624   4.328  0.00  0.00    +0.184 C 
ATOM      5  C   UNL     1     -34.652  25.643   4.106  0.00  0.00    +0.175 C 
ATOM      6  C   UNL     1     -35.217  23.325   4.250  0.00  0.00    +0.222 C 
ENDROOT
BRANCH   2   7
ATOM      7  O   UNL     1     -38.399  25.316   3.946  0.00  0.00    -0.379 OA
ATOM      8  H   UNL     1     -38.851  24.555   4.342  0.00  0.00    +0.211 HD
ENDBRANCH   2   7
BRANCH   3   9
ATOM      9  O   UNL     1     -36.430  26.349   5.598  0.00  0.00    -0.379 OA
ATOM     10  H   UNL     1     -35.629  26.259   6.138  0.00  0.00    +0.211 HD
ENDBRANCH   3   9
BRANCH   4  11
ATOM     11  O   UNL     1     -37.457  22.612   3.640  0.00  0.00    -0.378 OA
ATOM     12  H   UNL     1     -37.996  23.019   2.942  0.00  0.00    +0.211 HD
ENDBRANCH   4  11
BRANCH   6  13
ATOM     13  N   UNL     1     -34.926  22.081   4.961  0.00  0.00    -0.148 NA
ATOM     14  C   UNL     1     -35.484  22.149   6.320  0.00  0.00    +0.114 C 
BRANCH  13  16
ATOM     15  O   UNL     1     -35.053  21.144   3.076  0.00  0.00    -0.082 OA
ATOM     16  N   UNL     1     -35.307  21.019   4.280  0.00  0.00    +0.034 NA
ENDBRANCH  13  16
ENDBRANCH   6  13
BRANCH   5  17
ATOM     17  C   UNL     1     -33.689  26.659   4.708  0.00  0.00    +0.169 C 
BRANCH  17  18
ATOM     18  O   UNL     1     -33.784  26.591   6.120  0.00  0.00    -0.379 OA
ATOM     19  H   UNL     1     -34.719  26.543   6.377  0.00  0.00    +0.211 HD
ENDBRANCH  17  18
ENDBRANCH   5  17
TORSDOF 7
ENDMDL
MODEL 6
REMARK VINA RESULT:      -4.8      2.775      4.196
REMARK  Name = 193135
REMARK  7 active torsions:
REMARK  status: ('A' for Active; 'I' for Inactive)
REMARK    1  A    between atoms: C_2  and  O_7
REMARK    2  A    between atoms: C_3  and  O_9
REMARK    3  A    between atoms: C_4  and  O_11
REMARK    4  A    between atoms: C_5  and  C_17
REMARK    5  A    between atoms: C_6  and  N_13
REMARK    6  A    between atoms: N_13  and  N_16
REMARK    7  A    between atoms: C_17  and  O_18
REMARK                            x       y       z     vdW  Elec       q    Type
REMARK                         _______ _______ _______ _____ _____    ______ ____
ROOT
ATOM      1  O   UNL     1     -37.223  22.461   2.648  0.00  0.00    -0.335 OA
ATOM      2  C   UNL     1     -35.776  24.230   4.380  0.00  0.00    +0.170 C 
ATOM      3  C   UNL     1     -35.406  22.753   4.229  0.00  0.00    +0.169 C 
ATOM      4  C   UNL     1     -37.245  24.480   4.024  0.00  0.00    +0.184 C 
ATOM      5  C   UNL     1     -35.819  22.248   2.842  0.00  0.00    +0.175 C 
ATOM      6  C   UNL     1     -37.590  23.843   2.669  0.00  0.00    +0.222 C 
ENDROOT
BRANCH   2   7
ATOM      7  O   UNL     1     -35.534  24.664   5.716  0.00  0.00    -0.379 OA
ATOM      8  H   UNL     1     -36.220  24.306   6.301  0.00  0.00    +0.211 HD
ENDBRANCH   2   7
BRANCH   3   9
ATOM      9  O   UNL     1     -36.056  21.985   5.243  0.00  0.00    -0.379 OA
ATOM     10  H   UNL     1     -35.601  22.115   6.090  0.00  0.00    +0.211 HD
ENDBRANCH   3   9
BRANCH   4  11
ATOM     11  O   UNL     1     -37.475  25.888   3.975  0.00  0.00    -0.378 OA
ATOM     12  H   UNL     1     -37.004  26.267   3.215  0.00  0.00    +0.211 HD
ENDBRANCH   4  11
BRANCH   6  13
ATOM     13  N   UNL     1     -39.020  23.995   2.405  0.00  0.00    -0.148 NA
ATOM     14  C   UNL     1     -39.541  22.767   1.786  0.00  0.00    +0.114 C 
BRANCH  13  16
ATOM     15  O   UNL     1     -40.404  25.352   3.239  0.00  0.00    -0.082 OA
ATOM     16  N   UNL     1     -39.684  24.375   3.478  0.00  0.00    +0.034 NA
ENDBRANCH  13  16
ENDBRANCH   6  13
BRANCH   5  17
ATOM     17  C   UNL     1     -35.556  20.756   2.665  0.00  0.00    +0.169 C 
BRANCH  17  18
ATOM     18  O   UNL     1     -36.780  20.061   2.818  0.00  0.00    -0.379 OA
ATOM     19  H   UNL     1     -36.767  19.260   2.269  0.00  0.00    +0.211 HD
ENDBRANCH  17  18
ENDBRANCH   5  17
TORSDOF 7
ENDMDL
MODEL 7
REMARK VINA RESULT:      -4.7      2.585      4.004
REMARK  Name = 193135
REMARK  7 active torsions:
REMARK  status: ('A' for Active; 'I' for Inactive)
REMARK    1  A    between atoms: C_2  and  O_7
REMARK    2  A    between atoms: C_3  and  O_9
REMARK    3  A    between atoms: C_4  and  O_11
REMARK    4  A    between atoms: C_5  and  C_17
REMARK    5  A    between atoms: C_6  and  N_13
REMARK    6  A    between atoms: N_13  and  N_16
REMARK    7  A    between atoms: C_17  and  O_18
REMARK                            x       y       z     vdW  Elec       q    Type
REMARK                         _______ _______ _______ _____ _____    ______ ____
ROOT
ATOM      1  O   UNL     1     -37.178  23.464   3.683  0.00  0.00    -0.335 OA
ATOM      2  C   UNL     1     -35.885  26.023   3.611  0.00  0.00    +0.170 C 
ATOM      3  C   UNL     1     -35.357  24.866   4.461  0.00  0.00    +0.169 C 
ATOM      4  C   UNL     1     -37.383  25.873   3.327  0.00  0.00    +0.184 C 
ATOM      5  C   UNL     1     -35.754  23.527   3.831  0.00  0.00    +0.175 C 
ATOM      6  C   UNL     1     -37.696  24.463   2.801  0.00  0.00    +0.222 C 
ENDROOT
BRANCH   2   7
ATOM      7  O   UNL     1     -35.652  27.265   4.269  0.00  0.00    -0.379 OA
ATOM      8  H   UNL     1     -36.456  27.806   4.233  0.00  0.00    +0.211 HD
ENDBRANCH   2   7
BRANCH   3   9
ATOM      9  O   UNL     1     -35.885  24.958   5.785  0.00  0.00    -0.379 OA
ATOM     10  H   UNL     1     -35.156  24.971   6.425  0.00  0.00    +0.211 HD
ENDBRANCH   3   9
BRANCH   4  11
ATOM     11  O   UNL     1     -37.771  26.851   2.363  0.00  0.00    -0.378 OA
ATOM     12  H   UNL     1     -37.926  27.700   2.807  0.00  0.00    +0.211 HD
ENDBRANCH   4  11
BRANCH   6  13
ATOM     13  N   UNL     1     -39.142  24.308   2.648  0.00  0.00    -0.148 NA
ATOM     14  C   UNL     1     -39.457  22.904   2.340  0.00  0.00    +0.114 C 
BRANCH  13  16
ATOM     15  O   UNL     1     -40.610  25.661   3.328  0.00  0.00    -0.082 OA
ATOM     16  N   UNL     1     -39.805  24.790   3.679  0.00  0.00    +0.034 NA
ENDBRANCH  13  16
ENDBRANCH   6  13
BRANCH   5  17
ATOM     17  C   UNL     1     -35.331  22.335   4.682  0.00  0.00    +0.169 C 
BRANCH  17  18
ATOM     18  O   UNL     1     -36.218  22.229   5.782  0.00  0.00    -0.379 OA
ATOM     19  H   UNL     1     -36.478  21.301   5.898  0.00  0.00    +0.211 HD
ENDBRANCH  17  18
ENDBRANCH   5  17
TORSDOF 7
ENDMDL
MODEL 8
REMARK VINA RESULT:      -4.5      1.828      3.716
REMARK  Name = 193135
REMARK  7 active torsions:
REMARK  status: ('A' for Active; 'I' for Inactive)
REMARK    1  A    between atoms: C_2  and  O_7
REMARK    2  A    between atoms: C_3  and  O_9
REMARK    3  A    between atoms: C_4  and  O_11
REMARK    4  A    between atoms: C_5  and  C_17
REMARK    5  A    between atoms: C_6  and  N_13
REMARK    6  A    between atoms: N_13  and  N_16
REMARK    7  A    between atoms: C_17  and  O_18
REMARK                            x       y       z     vdW  Elec       q    Type
REMARK                         _______ _______ _______ _____ _____    ______ ____
ROOT
ATOM      1  O   UNL     1     -35.978  26.138   2.813  0.00  0.00    -0.335 OA
ATOM      2  C   UNL     1     -35.965  23.544   4.037  0.00  0.00    +0.170 C 
ATOM      3  C   UNL     1     -37.195  24.100   3.317  0.00  0.00    +0.169 C 
ATOM      4  C   UNL     1     -35.047  24.668   4.529  0.00  0.00    +0.184 C 
ATOM      5  C   UNL     1     -36.764  25.091   2.230  0.00  0.00    +0.175 C 
ATOM      6  C   UNL     1     -34.761  25.668   3.398  0.00  0.00    +0.222 C 
ENDROOT
BRANCH   2   7
ATOM      7  O   UNL     1     -36.363  22.743   5.146  0.00  0.00    -0.379 OA
ATOM      8  H   UNL     1     -36.711  23.313   5.849  0.00  0.00    +0.211 HD
ENDBRANCH   2   7
BRANCH   3   9
ATOM      9  O   UNL     1     -38.054  24.748   4.257  0.00  0.00    -0.379 OA
ATOM     10  H   UNL     1     -38.121  25.691   4.038  0.00  0.00    +0.211 HD
ENDBRANCH   3   9
BRANCH   4  11
ATOM     11  O   UNL     1     -33.825  24.096   4.996  0.00  0.00    -0.378 OA
ATOM     12  H   UNL     1     -33.512  24.590   5.771  0.00  0.00    +0.211 HD
ENDBRANCH   4  11
BRANCH   6  13
ATOM     13  N   UNL     1     -33.980  26.789   3.919  0.00  0.00    -0.148 NA
ATOM     14  C   UNL     1     -34.280  28.002   3.144  0.00  0.00    +0.114 C 
BRANCH  13  16
ATOM     15  O   UNL     1     -33.040  27.073   5.787  0.00  0.00    -0.082 OA
ATOM     16  N   UNL     1     -34.131  26.935   5.220  0.00  0.00    +0.034 NA
ENDBRANCH  13  16
ENDBRANCH   6  13
BRANCH   5  17
ATOM     17  C   UNL     1     -37.954  25.745   1.536  0.00  0.00    +0.169 C 
BRANCH  17  18
ATOM     18  O   UNL     1     -38.308  26.914   2.255  0.00  0.00    -0.379 OA
ATOM     19  H   UNL     1     -39.255  26.888   2.466  0.00  0.00    +0.211 HD
ENDBRANCH  17  18
ENDBRANCH   5  17
TORSDOF 7
ENDMDL
MODEL 9
REMARK VINA RESULT:      -4.5      4.853      7.354
REMARK  Name = 193135
REMARK  7 active torsions:
REMARK  status: ('A' for Active; 'I' for Inactive)
REMARK    1  A    between atoms: C_2  and  O_7
REMARK    2  A    between atoms: C_3  and  O_9
REMARK    3  A    between atoms: C_4  and  O_11
REMARK    4  A    between atoms: C_5  and  C_17
REMARK    5  A    between atoms: C_6  and  N_13
REMARK    6  A    between atoms: N_13  and  N_16
REMARK    7  A    between atoms: C_17  and  O_18
REMARK                            x       y       z     vdW  Elec       q    Type
REMARK                         _______ _______ _______ _____ _____    ______ ____
ROOT
ATOM      1  O   UNL     1     -30.454  27.713   4.307  0.00  0.00    -0.335 OA
ATOM      2  C   UNL     1     -29.230  28.948   6.588  0.00  0.00    +0.170 C 
ATOM      3  C   UNL     1     -28.429  28.119   5.582  0.00  0.00    +0.169 C 
ATOM      4  C   UNL     1     -30.710  28.555   6.587  0.00  0.00    +0.184 C 
ATOM      5  C   UNL     1     -29.100  28.173   4.205  0.00  0.00    +0.175 C 
ATOM      6  C   UNL     1     -31.264  28.534   5.153  0.00  0.00    +0.222 C 
ENDROOT
BRANCH   2   7
ATOM      7  O   UNL     1     -28.699  28.778   7.900  0.00  0.00    -0.379 OA
ATOM      8  H   UNL     1     -27.795  28.431   7.840  0.00  0.00    +0.211 HD
ENDBRANCH   2   7
BRANCH   3   9
ATOM      9  O   UNL     1     -28.343  26.765   6.031  0.00  0.00    -0.379 OA
ATOM     10  H   UNL     1     -27.791  26.722   6.828  0.00  0.00    +0.211 HD
ENDBRANCH   3   9
BRANCH   4  11
ATOM     11  O   UNL     1     -31.438  29.496   7.377  0.00  0.00    -0.378 OA
ATOM     12  H   UNL     1     -31.854  30.154   6.796  0.00  0.00    +0.211 HD
ENDBRANCH   4  11
BRANCH   6  13
ATOM     13  N   UNL     1     -32.643  28.046   5.167  0.00  0.00    -0.148 NA
ATOM     14  C   UNL     1     -33.020  27.597   3.819  0.00  0.00    +0.114 C 
BRANCH  13  16
ATOM     15  O   UNL     1     -33.958  26.624   6.002  0.00  0.00    -0.082 OA
ATOM     16  N   UNL     1     -32.840  27.143   6.106  0.00  0.00    +0.034 NA
ENDBRANCH  13  16
ENDBRANCH   6  13
BRANCH   5  17
ATOM     17  C   UNL     1     -28.395  27.291   3.180  0.00  0.00    +0.169 C 
BRANCH  17  18
ATOM     18  O   UNL     1     -28.811  25.952   3.375  0.00  0.00    -0.379 OA
ATOM     19  H   UNL     1     -29.746  25.865   3.128  0.00  0.00    +0.211 HD
ENDBRANCH  17  18
ENDBRANCH   5  17
TORSDOF 7
ENDMDL
