MODEL 1
REMARK VINA RESULT:      -6.0      0.000      0.000
REMARK  Name = 60168275
REMARK  10 active torsions:
REMARK  status: ('A' for Active; 'I' for Inactive)
REMARK    1  A    between atoms: O_1  and  C_3
REMARK    2  A    between atoms: O_1  and  C_15
REMARK    3  A    between atoms: C_3  and  C_4
REMARK    4  A    between atoms: C_4  and  C_5
REMARK    5  A    between atoms: C_8  and  O_11
REMARK    6  A    between atoms: C_10  and  O_13
REMARK    7  A    between atoms: C_15  and  C_16
REMARK    8  A    between atoms: C_16  and  C_17
REMARK    9  A    between atoms: C_20  and  O_23
REMARK   10  A    between atoms: C_22  and  O_25
REMARK                            x       y       z     vdW  Elec       q    Type
REMARK                         _______ _______ _______ _____ _____    ______ ____
ROOT
ATOM      1  O   UNL     1     -34.889  27.385   4.098  0.00  0.00    -0.448 OA
ENDROOT
BRANCH   1   3
ATOM      2  O   UNL     1     -32.894  26.321   4.554  0.00  0.00    -0.250 OA
ATOM      3  C   UNL     1     -34.106  26.429   4.681  0.00  0.00    +0.321 C 
BRANCH   3   4
ATOM      4  C   UNL     1     -34.975  25.512   5.520  0.00  0.00    +0.136 C 
BRANCH   4   5
ATOM      5  C   UNL     1     -35.141  24.151   4.935  0.00  0.00    -0.008 C 
ATOM      6  C   UNL     1     -35.208  23.036   5.769  0.00  0.00    +0.036 C 
ATOM      7  C   UNL     1     -35.231  23.994   3.551  0.00  0.00    -0.000 C 
ATOM      8  C   UNL     1     -35.363  21.762   5.221  0.00  0.00    +0.167 C 
ATOM      9  C   UNL     1     -35.387  22.720   3.003  0.00  0.00    +0.039 C 
ATOM     10  C   UNL     1     -35.453  21.605   3.837  0.00  0.00    +0.167 C 
BRANCH   8  11
ATOM     11  O   UNL     1     -35.429  20.681   6.046  0.00  0.00    -0.503 OA
ATOM     12  H   UNL     1     -36.242  20.448   6.448  0.00  0.00    +0.292 HD
ENDBRANCH   8  11
BRANCH  10  13
ATOM     13  O   UNL     1     -35.605  20.366   3.291  0.00  0.00    -0.503 OA
ATOM     14  H   UNL     1     -36.133  20.254   2.525  0.00  0.00    +0.292 HD
ENDBRANCH  10  13
ENDBRANCH   4   5
ENDBRANCH   3   4
ENDBRANCH   1   3
BRANCH   1  15
ATOM     15  C   UNL     1     -34.821  27.450   2.670  0.00  0.00    +0.213 C 
BRANCH  15  16
ATOM     16  C   UNL     1     -36.202  27.756   2.101  0.00  0.00    +0.074 C 
BRANCH  16  17
ATOM     17  C   UNL     1     -37.067  26.523   1.997  0.00  0.00    -0.015 C 
ATOM     18  C   UNL     1     -37.972  26.218   3.013  0.00  0.00    +0.036 C 
ATOM     19  C   UNL     1     -36.960  25.688   0.884  0.00  0.00    -0.001 C 
ATOM     20  C   UNL     1     -38.772  25.079   2.917  0.00  0.00    +0.167 C 
ATOM     21  C   UNL     1     -37.760  24.549   0.789  0.00  0.00    +0.039 C 
ATOM     22  C   UNL     1     -38.665  24.244   1.805  0.00  0.00    +0.167 C 
BRANCH  20  23
ATOM     23  O   UNL     1     -39.654  24.795   3.915  0.00  0.00    -0.503 OA
ATOM     24  H   UNL     1     -40.343  24.176   3.770  0.00  0.00    +0.292 HD
ENDBRANCH  20  23
BRANCH  22  25
ATOM     25  O   UNL     1     -39.441  23.130   1.700  0.00  0.00    -0.503 OA
ATOM     26  H   UNL     1     -39.108  22.299   1.979  0.00  0.00    +0.292 HD
ENDBRANCH  22  25
ENDBRANCH  16  17
ENDBRANCH  15  16
ENDBRANCH   1  15
TORSDOF 10
ENDMDL
MODEL 2
REMARK VINA RESULT:      -5.9      2.885      6.090
REMARK  Name = 60168275
REMARK  10 active torsions:
REMARK  status: ('A' for Active; 'I' for Inactive)
REMARK    1  A    between atoms: O_1  and  C_3
REMARK    2  A    between atoms: O_1  and  C_15
REMARK    3  A    between atoms: C_3  and  C_4
REMARK    4  A    between atoms: C_4  and  C_5
REMARK    5  A    between atoms: C_8  and  O_11
REMARK    6  A    between atoms: C_10  and  O_13
REMARK    7  A    between atoms: C_15  and  C_16
REMARK    8  A    between atoms: C_16  and  C_17
REMARK    9  A    between atoms: C_20  and  O_23
REMARK   10  A    between atoms: C_22  and  O_25
REMARK                            x       y       z     vdW  Elec       q    Type
REMARK                         _______ _______ _______ _____ _____    ______ ____
ROOT
ATOM      1  O   UNL     1     -34.579  27.426   4.490  0.00  0.00    -0.448 OA
ENDROOT
BRANCH   1   3
ATOM      2  O   UNL     1     -33.271  26.100   5.850  0.00  0.00    -0.250 OA
ATOM      3  C   UNL     1     -34.348  26.385   5.345  0.00  0.00    +0.321 C 
BRANCH   3   4
ATOM      4  C   UNL     1     -35.642  25.628   5.575  0.00  0.00    +0.136 C 
BRANCH   4   5
ATOM      5  C   UNL     1     -35.654  24.271   4.957  0.00  0.00    -0.008 C 
ATOM      6  C   UNL     1     -35.427  23.143   5.744  0.00  0.00    +0.036 C 
ATOM      7  C   UNL     1     -35.894  24.130   3.589  0.00  0.00    -0.000 C 
ATOM      8  C   UNL     1     -35.439  21.874   5.166  0.00  0.00    +0.167 C 
ATOM      9  C   UNL     1     -35.906  22.861   3.011  0.00  0.00    +0.039 C 
ATOM     10  C   UNL     1     -35.679  21.733   3.798  0.00  0.00    +0.167 C 
BRANCH   8  11
ATOM     11  O   UNL     1     -35.218  20.780   5.946  0.00  0.00    -0.503 OA
ATOM     12  H   UNL     1     -35.031  20.885   6.858  0.00  0.00    +0.292 HD
ENDBRANCH   8  11
BRANCH  10  13
ATOM     13  O   UNL     1     -35.694  20.499   3.222  0.00  0.00    -0.503 OA
ATOM     14  H   UNL     1     -35.683  19.731   3.759  0.00  0.00    +0.292 HD
ENDBRANCH  10  13
ENDBRANCH   4   5
ENDBRANCH   3   4
ENDBRANCH   1   3
BRANCH   1  15
ATOM     15  C   UNL     1     -33.626  27.580   3.434  0.00  0.00    +0.213 C 
BRANCH  15  16
ATOM     16  C   UNL     1     -32.981  28.959   3.520  0.00  0.00    +0.074 C 
BRANCH  16  17
ATOM     17  C   UNL     1     -31.981  29.057   4.646  0.00  0.00    -0.015 C 
ATOM     18  C   UNL     1     -30.827  28.274   4.624  0.00  0.00    +0.036 C 
ATOM     19  C   UNL     1     -32.211  29.931   5.709  0.00  0.00    -0.001 C 
ATOM     20  C   UNL     1     -29.902  28.365   5.665  0.00  0.00    +0.167 C 
ATOM     21  C   UNL     1     -31.286  30.021   6.749  0.00  0.00    +0.039 C 
ATOM     22  C   UNL     1     -30.132  29.238   6.728  0.00  0.00    +0.167 C 
BRANCH  20  23
ATOM     23  O   UNL     1     -28.778  27.596   5.630  0.00  0.00    -0.503 OA
ATOM     24  H   UNL     1     -28.728  26.865   5.046  0.00  0.00    +0.292 HD
ENDBRANCH  20  23
BRANCH  22  25
ATOM     25  O   UNL     1     -29.236  29.336   7.749  0.00  0.00    -0.503 OA
ATOM     26  H   UNL     1     -29.520  29.622   8.595  0.00  0.00    +0.292 HD
ENDBRANCH  22  25
ENDBRANCH  16  17
ENDBRANCH  15  16
ENDBRANCH   1  15
TORSDOF 10
ENDMDL
MODEL 3
REMARK VINA RESULT:      -5.9      1.592      5.695
REMARK  Name = 60168275
REMARK  10 active torsions:
REMARK  status: ('A' for Active; 'I' for Inactive)
REMARK    1  A    between atoms: O_1  and  C_3
REMARK    2  A    between atoms: O_1  and  C_15
REMARK    3  A    between atoms: C_3  and  C_4
REMARK    4  A    between atoms: C_4  and  C_5
REMARK    5  A    between atoms: C_8  and  O_11
REMARK    6  A    between atoms: C_10  and  O_13
REMARK    7  A    between atoms: C_15  and  C_16
REMARK    8  A    between atoms: C_16  and  C_17
REMARK    9  A    between atoms: C_20  and  O_23
REMARK   10  A    between atoms: C_22  and  O_25
REMARK                            x       y       z     vdW  Elec       q    Type
REMARK                         _______ _______ _______ _____ _____    ______ ____
ROOT
ATOM      1  O   UNL     1     -35.237  22.058   3.469  0.00  0.00    -0.448 OA
ENDROOT
BRANCH   1   3
ATOM      2  O   UNL     1     -36.438  20.416   2.381  0.00  0.00    -0.250 OA
ATOM      3  C   UNL     1     -36.016  21.562   2.462  0.00  0.00    +0.321 C 
BRANCH   3   4
ATOM      4  C   UNL     1     -36.282  22.657   1.447  0.00  0.00    +0.136 C 
BRANCH   4   5
ATOM      5  C   UNL     1     -37.197  23.722   1.948  0.00  0.00    -0.008 C 
ATOM      6  C   UNL     1     -36.881  25.065   1.744  0.00  0.00    +0.036 C 
ATOM      7  C   UNL     1     -38.369  23.375   2.619  0.00  0.00    -0.000 C 
ATOM      8  C   UNL     1     -37.738  26.062   2.213  0.00  0.00    +0.167 C 
ATOM      9  C   UNL     1     -39.226  24.372   3.088  0.00  0.00    +0.039 C 
ATOM     10  C   UNL     1     -38.911  25.715   2.885  0.00  0.00    +0.167 C 
BRANCH   8  11
ATOM     11  O   UNL     1     -37.420  27.370   2.006  0.00  0.00    -0.503 OA
ATOM     12  H   UNL     1     -38.050  28.040   2.188  0.00  0.00    +0.292 HD
ENDBRANCH   8  11
BRANCH  10  13
ATOM     13  O   UNL     1     -39.755  26.679   3.347  0.00  0.00    -0.503 OA
ATOM     14  H   UNL     1     -40.493  26.941   2.833  0.00  0.00    +0.292 HD
ENDBRANCH  10  13
ENDBRANCH   4   5
ENDBRANCH   3   4
ENDBRANCH   1   3
BRANCH   1  15
ATOM     15  C   UNL     1     -35.517  21.543   4.775  0.00  0.00    +0.213 C 
BRANCH  15  16
ATOM     16  C   UNL     1     -35.000  22.512   5.833  0.00  0.00    +0.074 C 
BRANCH  16  17
ATOM     17  C   UNL     1     -34.999  23.942   5.350  0.00  0.00    -0.015 C 
ATOM     18  C   UNL     1     -33.904  24.439   4.643  0.00  0.00    +0.036 C 
ATOM     19  C   UNL     1     -36.094  24.767   5.610  0.00  0.00    -0.001 C 
ATOM     20  C   UNL     1     -33.904  25.760   4.196  0.00  0.00    +0.167 C 
ATOM     21  C   UNL     1     -36.093  26.088   5.163  0.00  0.00    +0.039 C 
ATOM     22  C   UNL     1     -34.998  26.585   4.456  0.00  0.00    +0.167 C 
BRANCH  20  23
ATOM     23  O   UNL     1     -32.829  26.232   3.504  0.00  0.00    -0.503 OA
ATOM     24  H   UNL     1     -32.002  25.796   3.568  0.00  0.00    +0.292 HD
ENDBRANCH  20  23
BRANCH  22  25
ATOM     25  O   UNL     1     -35.009  27.877   4.025  0.00  0.00    -0.503 OA
ATOM     26  H   UNL     1     -35.780  28.232   3.628  0.00  0.00    +0.292 HD
ENDBRANCH  22  25
ENDBRANCH  16  17
ENDBRANCH  15  16
ENDBRANCH   1  15
TORSDOF 10
ENDMDL
MODEL 4
REMARK VINA RESULT:      -5.9      1.789      4.923
REMARK  Name = 60168275
REMARK  10 active torsions:
REMARK  status: ('A' for Active; 'I' for Inactive)
REMARK    1  A    between atoms: O_1  and  C_3
REMARK    2  A    between atoms: O_1  and  C_15
REMARK    3  A    between atoms: C_3  and  C_4
REMARK    4  A    between atoms: C_4  and  C_5
REMARK    5  A    between atoms: C_8  and  O_11
REMARK    6  A    between atoms: C_10  and  O_13
REMARK    7  A    between atoms: C_15  and  C_16
REMARK    8  A    between atoms: C_16  and  C_17
REMARK    9  A    between atoms: C_20  and  O_23
REMARK   10  A    between atoms: C_22  and  O_25
REMARK                            x       y       z     vdW  Elec       q    Type
REMARK                         _______ _______ _______ _____ _____    ______ ____
ROOT
ATOM      1  O   UNL     1     -37.162  26.545   2.075  0.00  0.00    -0.448 OA
ENDROOT
BRANCH   1   3
ATOM      2  O   UNL     1     -39.278  26.381   2.980  0.00  0.00    -0.250 OA
ATOM      3  C   UNL     1     -38.480  26.182   2.074  0.00  0.00    +0.321 C 
BRANCH   3   4
ATOM      4  C   UNL     1     -38.808  25.487   0.767  0.00  0.00    +0.136 C 
BRANCH   4   5
ATOM      5  C   UNL     1     -38.590  24.012   0.806  0.00  0.00    -0.008 C 
ATOM      6  C   UNL     1     -39.453  23.199   1.539  0.00  0.00    +0.036 C 
ATOM      7  C   UNL     1     -37.523  23.446   0.108  0.00  0.00    -0.000 C 
ATOM      8  C   UNL     1     -39.249  21.820   1.576  0.00  0.00    +0.167 C 
ATOM      9  C   UNL     1     -37.319  22.067   0.144  0.00  0.00    +0.039 C 
ATOM     10  C   UNL     1     -38.182  21.253   0.878  0.00  0.00    +0.167 C 
BRANCH   8  11
ATOM     11  O   UNL     1     -40.101  21.035   2.294  0.00  0.00    -0.503 OA
ATOM     12  H   UNL     1     -40.155  20.117   2.116  0.00  0.00    +0.292 HD
ENDBRANCH   8  11
BRANCH  10  13
ATOM     13  O   UNL     1     -37.973  19.907   0.906  0.00  0.00    -0.503 OA
ATOM     14  H   UNL     1     -37.413  19.507   0.271  0.00  0.00    +0.292 HD
ENDBRANCH  10  13
ENDBRANCH   4   5
ENDBRANCH   3   4
ENDBRANCH   1   3
BRANCH   1  15
ATOM     15  C   UNL     1     -36.435  26.218   3.264  0.00  0.00    +0.213 C 
BRANCH  15  16
ATOM     16  C   UNL     1     -35.274  25.292   2.919  0.00  0.00    +0.074 C 
BRANCH  16  17
ATOM     17  C   UNL     1     -35.298  24.016   3.725  0.00  0.00    -0.015 C 
ATOM     18  C   UNL     1     -35.545  22.797   3.094  0.00  0.00    +0.036 C 
ATOM     19  C   UNL     1     -35.073  24.055   5.101  0.00  0.00    -0.001 C 
ATOM     20  C   UNL     1     -35.567  21.617   3.838  0.00  0.00    +0.167 C 
ATOM     21  C   UNL     1     -35.096  22.876   5.845  0.00  0.00    +0.039 C 
ATOM     22  C   UNL     1     -35.343  21.657   5.214  0.00  0.00    +0.167 C 
BRANCH  20  23
ATOM     23  O   UNL     1     -35.807  20.433   3.209  0.00  0.00    -0.503 OA
ATOM     24  H   UNL     1     -35.574  19.626   3.624  0.00  0.00    +0.292 HD
ENDBRANCH  20  23
BRANCH  22  25
ATOM     25  O   UNL     1     -35.362  20.511   5.951  0.00  0.00    -0.503 OA
ATOM     26  H   UNL     1     -34.665  19.890   5.869  0.00  0.00    +0.292 HD
ENDBRANCH  22  25
ENDBRANCH  16  17
ENDBRANCH  15  16
ENDBRANCH   1  15
TORSDOF 10
ENDMDL
MODEL 5
REMARK VINA RESULT:      -5.9      1.981      4.712
REMARK  Name = 60168275
REMARK  10 active torsions:
REMARK  status: ('A' for Active; 'I' for Inactive)
REMARK    1  A    between atoms: O_1  and  C_3
REMARK    2  A    between atoms: O_1  and  C_15
REMARK    3  A    between atoms: C_3  and  C_4
REMARK    4  A    between atoms: C_4  and  C_5
REMARK    5  A    between atoms: C_8  and  O_11
REMARK    6  A    between atoms: C_10  and  O_13
REMARK    7  A    between atoms: C_15  and  C_16
REMARK    8  A    between atoms: C_16  and  C_17
REMARK    9  A    between atoms: C_20  and  O_23
REMARK   10  A    between atoms: C_22  and  O_25
REMARK                            x       y       z     vdW  Elec       q    Type
REMARK                         _______ _______ _______ _____ _____    ______ ____
ROOT
ATOM      1  O   UNL     1     -34.777  21.652   1.583  0.00  0.00    -0.448 OA
ENDROOT
BRANCH   1   3
ATOM      2  O   UNL     1     -36.686  20.457   2.082  0.00  0.00    -0.250 OA
ATOM      3  C   UNL     1     -35.692  21.082   2.424  0.00  0.00    +0.321 C 
BRANCH   3   4
ATOM      4  C   UNL     1     -35.283  21.343   3.861  0.00  0.00    +0.136 C 
BRANCH   4   5
ATOM      5  C   UNL     1     -35.613  22.719   4.331  0.00  0.00    -0.008 C 
ATOM      6  C   UNL     1     -36.815  23.317   3.954  0.00  0.00    +0.036 C 
ATOM      7  C   UNL     1     -34.718  23.409   5.150  0.00  0.00    -0.000 C 
ATOM      8  C   UNL     1     -37.123  24.604   4.394  0.00  0.00    +0.167 C 
ATOM      9  C   UNL     1     -35.026  24.696   5.590  0.00  0.00    +0.039 C 
ATOM     10  C   UNL     1     -36.228  25.294   5.213  0.00  0.00    +0.167 C 
BRANCH   8  11
ATOM     11  O   UNL     1     -38.302  25.176   4.021  0.00  0.00    -0.503 OA
ATOM     12  H   UNL     1     -38.887  25.510   4.672  0.00  0.00    +0.292 HD
ENDBRANCH   8  11
BRANCH  10  13
ATOM     13  O   UNL     1     -36.518  26.551   5.650  0.00  0.00    -0.503 OA
ATOM     14  H   UNL     1     -37.298  26.980   5.357  0.00  0.00    +0.292 HD
ENDBRANCH  10  13
ENDBRANCH   4   5
ENDBRANCH   3   4
ENDBRANCH   1   3
BRANCH   1  15
ATOM     15  C   UNL     1     -35.273  22.718   0.767  0.00  0.00    +0.213 C 
BRANCH  15  16
ATOM     16  C   UNL     1     -34.180  23.763   0.566  0.00  0.00    +0.074 C 
BRANCH  16  17
ATOM     17  C   UNL     1     -34.441  25.025   1.351  0.00  0.00    -0.015 C 
ATOM     18  C   UNL     1     -35.694  25.636   1.292  0.00  0.00    +0.036 C 
ATOM     19  C   UNL     1     -33.431  25.581   2.136  0.00  0.00    -0.001 C 
ATOM     20  C   UNL     1     -35.936  26.803   2.019  0.00  0.00    +0.167 C 
ATOM     21  C   UNL     1     -33.673  26.747   2.862  0.00  0.00    +0.039 C 
ATOM     22  C   UNL     1     -34.925  27.358   2.803  0.00  0.00    +0.167 C 
BRANCH  20  23
ATOM     23  O   UNL     1     -37.164  27.388   1.955  0.00  0.00    -0.503 OA
ATOM     24  H   UNL     1     -37.917  26.875   1.735  0.00  0.00    +0.292 HD
ENDBRANCH  20  23
BRANCH  22  25
ATOM     25  O   UNL     1     -35.150  28.496   3.517  0.00  0.00    -0.503 OA
ATOM     26  H   UNL     1     -35.998  28.895   3.509  0.00  0.00    +0.292 HD
ENDBRANCH  22  25
ENDBRANCH  16  17
ENDBRANCH  15  16
ENDBRANCH   1  15
TORSDOF 10
ENDMDL
MODEL 6
REMARK VINA RESULT:      -5.8      2.493      5.908
REMARK  Name = 60168275
REMARK  10 active torsions:
REMARK  status: ('A' for Active; 'I' for Inactive)
REMARK    1  A    between atoms: O_1  and  C_3
REMARK    2  A    between atoms: O_1  and  C_15
REMARK    3  A    between atoms: C_3  and  C_4
REMARK    4  A    between atoms: C_4  and  C_5
REMARK    5  A    between atoms: C_8  and  O_11
REMARK    6  A    between atoms: C_10  and  O_13
REMARK    7  A    between atoms: C_15  and  C_16
REMARK    8  A    between atoms: C_16  and  C_17
REMARK    9  A    between atoms: C_20  and  O_23
REMARK   10  A    between atoms: C_22  and  O_25
REMARK                            x       y       z     vdW  Elec       q    Type
REMARK                         _______ _______ _______ _____ _____    ______ ____
ROOT
ATOM      1  O   UNL     1     -35.141  27.538   2.018  0.00  0.00    -0.448 OA
ENDROOT
BRANCH   1   3
ATOM      2  O   UNL     1     -35.324  29.695   2.816  0.00  0.00    -0.250 OA
ATOM      3  C   UNL     1     -34.657  28.712   2.523  0.00  0.00    +0.321 C 
BRANCH   3   4
ATOM      4  C   UNL     1     -33.150  28.613   2.667  0.00  0.00    +0.136 C 
BRANCH   4   5
ATOM      5  C   UNL     1     -32.669  28.852   4.057  0.00  0.00    -0.008 C 
ATOM      6  C   UNL     1     -32.546  27.785   4.946  0.00  0.00    +0.036 C 
ATOM      7  C   UNL     1     -32.340  30.144   4.469  0.00  0.00    -0.000 C 
ATOM      8  C   UNL     1     -32.095  28.008   6.247  0.00  0.00    +0.167 C 
ATOM      9  C   UNL     1     -31.890  30.368   5.770  0.00  0.00    +0.039 C 
ATOM     10  C   UNL     1     -31.766  29.300   6.659  0.00  0.00    +0.167 C 
BRANCH   8  11
ATOM     11  O   UNL     1     -31.977  26.957   7.105  0.00  0.00    -0.503 OA
ATOM     12  H   UNL     1     -32.125  26.084   6.800  0.00  0.00    +0.292 HD
ENDBRANCH   8  11
BRANCH  10  13
ATOM     13  O   UNL     1     -31.325  29.531   7.927  0.00  0.00    -0.503 OA
ATOM     14  H   UNL     1     -31.888  29.945   8.551  0.00  0.00    +0.292 HD
ENDBRANCH  10  13
ENDBRANCH   4   5
ENDBRANCH   3   4
ENDBRANCH   1   3
BRANCH   1  15
ATOM     15  C   UNL     1     -35.355  26.497   2.976  0.00  0.00    +0.213 C 
BRANCH  15  16
ATOM     16  C   UNL     1     -34.579  25.251   2.564  0.00  0.00    +0.074 C 
BRANCH  16  17
ATOM     17  C   UNL     1     -34.847  24.079   3.477  0.00  0.00    -0.015 C 
ATOM     18  C   UNL     1     -35.288  22.868   2.945  0.00  0.00    +0.036 C 
ATOM     19  C   UNL     1     -34.653  24.208   4.853  0.00  0.00    -0.001 C 
ATOM     20  C   UNL     1     -35.535  21.784   3.789  0.00  0.00    +0.167 C 
ATOM     21  C   UNL     1     -34.901  23.125   5.696  0.00  0.00    +0.039 C 
ATOM     22  C   UNL     1     -35.342  21.913   5.164  0.00  0.00    +0.167 C 
BRANCH  20  23
ATOM     23  O   UNL     1     -35.963  20.605   3.256  0.00  0.00    -0.503 OA
ATOM     24  H   UNL     1     -35.408  20.125   2.673  0.00  0.00    +0.292 HD
ENDBRANCH  20  23
BRANCH  22  25
ATOM     25  O   UNL     1     -35.580  20.862   5.997  0.00  0.00    -0.503 OA
ATOM     26  H   UNL     1     -35.236  20.014   5.793  0.00  0.00    +0.292 HD
ENDBRANCH  22  25
ENDBRANCH  16  17
ENDBRANCH  15  16
ENDBRANCH   1  15
TORSDOF 10
ENDMDL
MODEL 7
REMARK VINA RESULT:      -5.8      1.930      4.771
REMARK  Name = 60168275
REMARK  10 active torsions:
REMARK  status: ('A' for Active; 'I' for Inactive)
REMARK    1  A    between atoms: O_1  and  C_3
REMARK    2  A    between atoms: O_1  and  C_15
REMARK    3  A    between atoms: C_3  and  C_4
REMARK    4  A    between atoms: C_4  and  C_5
REMARK    5  A    between atoms: C_8  and  O_11
REMARK    6  A    between atoms: C_10  and  O_13
REMARK    7  A    between atoms: C_15  and  C_16
REMARK    8  A    between atoms: C_16  and  C_17
REMARK    9  A    between atoms: C_20  and  O_23
REMARK   10  A    between atoms: C_22  and  O_25
REMARK                            x       y       z     vdW  Elec       q    Type
REMARK                         _______ _______ _______ _____ _____    ______ ____
ROOT
ATOM      1  O   UNL     1     -33.281  26.153   4.848  0.00  0.00    -0.448 OA
ENDROOT
BRANCH   1   3
ATOM      2  O   UNL     1     -32.818  28.379   5.237  0.00  0.00    -0.250 OA
ATOM      3  C   UNL     1     -32.913  27.418   4.486  0.00  0.00    +0.321 C 
BRANCH   3   4
ATOM      4  C   UNL     1     -32.638  27.452   2.995  0.00  0.00    +0.136 C 
BRANCH   4   5
ATOM      5  C   UNL     1     -33.803  27.031   2.165  0.00  0.00    -0.008 C 
ATOM      6  C   UNL     1     -35.038  27.657   2.327  0.00  0.00    +0.036 C 
ATOM      7  C   UNL     1     -33.656  26.010   1.225  0.00  0.00    -0.000 C 
ATOM      8  C   UNL     1     -36.128  27.262   1.551  0.00  0.00    +0.167 C 
ATOM      9  C   UNL     1     -34.746  25.616   0.448  0.00  0.00    +0.039 C 
ATOM     10  C   UNL     1     -35.981  26.242   0.611  0.00  0.00    +0.167 C 
BRANCH   8  11
ATOM     11  O   UNL     1     -37.329  27.883   1.717  0.00  0.00    -0.503 OA
ATOM     12  H   UNL     1     -37.401  28.807   1.582  0.00  0.00    +0.292 HD
ENDBRANCH   8  11
BRANCH  10  13
ATOM     13  O   UNL     1     -37.038  25.848  -0.154  0.00  0.00    -0.503 OA
ATOM     14  H   UNL     1     -37.527  26.482  -0.639  0.00  0.00    +0.292 HD
ENDBRANCH  10  13
ENDBRANCH   4   5
ENDBRANCH   3   4
ENDBRANCH   1   3
BRANCH   1  15
ATOM     15  C   UNL     1     -34.132  26.064   5.996  0.00  0.00    +0.213 C 
BRANCH  15  16
ATOM     16  C   UNL     1     -35.541  25.673   5.563  0.00  0.00    +0.074 C 
BRANCH  16  17
ATOM     17  C   UNL     1     -35.593  24.294   4.951  0.00  0.00    -0.015 C 
ATOM     18  C   UNL     1     -35.372  23.170   5.746  0.00  0.00    +0.036 C 
ATOM     19  C   UNL     1     -35.861  24.144   3.590  0.00  0.00    -0.001 C 
ATOM     20  C   UNL     1     -35.421  21.895   5.181  0.00  0.00    +0.167 C 
ATOM     21  C   UNL     1     -35.909  22.870   3.025  0.00  0.00    +0.039 C 
ATOM     22  C   UNL     1     -35.688  21.745   3.821  0.00  0.00    +0.167 C 
BRANCH  20  23
ATOM     23  O   UNL     1     -35.206  20.805   5.970  0.00  0.00    -0.503 OA
ATOM     24  H   UNL     1     -34.393  20.342   5.918  0.00  0.00    +0.292 HD
ENDBRANCH  20  23
BRANCH  22  25
ATOM     25  O   UNL     1     -35.738  20.506   3.258  0.00  0.00    -0.503 OA
ATOM     26  H   UNL     1     -36.510  20.227   2.805  0.00  0.00    +0.292 HD
ENDBRANCH  22  25
ENDBRANCH  16  17
ENDBRANCH  15  16
ENDBRANCH   1  15
TORSDOF 10
ENDMDL
MODEL 8
REMARK VINA RESULT:      -5.8      2.496      5.547
REMARK  Name = 60168275
REMARK  10 active torsions:
REMARK  status: ('A' for Active; 'I' for Inactive)
REMARK    1  A    between atoms: O_1  and  C_3
REMARK    2  A    between atoms: O_1  and  C_15
REMARK    3  A    between atoms: C_3  and  C_4
REMARK    4  A    between atoms: C_4  and  C_5
REMARK    5  A    between atoms: C_8  and  O_11
REMARK    6  A    between atoms: C_10  and  O_13
REMARK    7  A    between atoms: C_15  and  C_16
REMARK    8  A    between atoms: C_16  and  C_17
REMARK    9  A    between atoms: C_20  and  O_23
REMARK   10  A    between atoms: C_22  and  O_25
REMARK                            x       y       z     vdW  Elec       q    Type
REMARK                         _______ _______ _______ _____ _____    ______ ____
ROOT
ATOM      1  O   UNL     1     -34.798  27.173   1.952  0.00  0.00    -0.448 OA
ENDROOT
BRANCH   1   3
ATOM      2  O   UNL     1     -33.516  25.336   2.500  0.00  0.00    -0.250 OA
ATOM      3  C   UNL     1     -34.554  25.979   2.570  0.00  0.00    +0.321 C 
BRANCH   3   4
ATOM      4  C   UNL     1     -35.778  25.565   3.364  0.00  0.00    +0.136 C 
BRANCH   4   5
ATOM      5  C   UNL     1     -35.633  24.241   4.034  0.00  0.00    -0.008 C 
ATOM      6  C   UNL     1     -35.876  23.068   3.320  0.00  0.00    +0.036 C 
ATOM      7  C   UNL     1     -35.253  24.176   5.374  0.00  0.00    -0.000 C 
ATOM      8  C   UNL     1     -35.740  21.829   3.947  0.00  0.00    +0.167 C 
ATOM      9  C   UNL     1     -35.117  22.937   6.001  0.00  0.00    +0.039 C 
ATOM     10  C   UNL     1     -35.359  21.764   5.288  0.00  0.00    +0.167 C 
BRANCH   8  11
ATOM     11  O   UNL     1     -35.978  20.690   3.238  0.00  0.00    -0.503 OA
ATOM     12  H   UNL     1     -36.651  20.676   2.588  0.00  0.00    +0.292 HD
ENDBRANCH   8  11
BRANCH  10  13
ATOM     13  O   UNL     1     -35.223  20.560   5.910  0.00  0.00    -0.503 OA
ATOM     14  H   UNL     1     -35.289  20.505   6.843  0.00  0.00    +0.292 HD
ENDBRANCH  10  13
ENDBRANCH   4   5
ENDBRANCH   3   4
ENDBRANCH   1   3
BRANCH   1  15
ATOM     15  C   UNL     1     -34.777  28.323   2.804  0.00  0.00    +0.213 C 
BRANCH  15  16
ATOM     16  C   UNL     1     -33.397  28.970   2.761  0.00  0.00    +0.074 C 
BRANCH  16  17
ATOM     17  C   UNL     1     -32.784  29.110   4.133  0.00  0.00    -0.015 C 
ATOM     18  C   UNL     1     -32.582  27.979   4.925  0.00  0.00    +0.036 C 
ATOM     19  C   UNL     1     -32.420  30.369   4.610  0.00  0.00    -0.001 C 
ATOM     20  C   UNL     1     -32.015  28.108   6.193  0.00  0.00    +0.167 C 
ATOM     21  C   UNL     1     -31.854  30.498   5.878  0.00  0.00    +0.039 C 
ATOM     22  C   UNL     1     -31.651  29.367   6.670  0.00  0.00    +0.167 C 
BRANCH  20  23
ATOM     23  O   UNL     1     -31.820  26.995   6.955  0.00  0.00    -0.503 OA
ATOM     24  H   UNL     1     -31.055  26.922   7.490  0.00  0.00    +0.292 HD
ENDBRANCH  20  23
BRANCH  22  25
ATOM     25  O   UNL     1     -31.097  29.505   7.907  0.00  0.00    -0.503 OA
ATOM     26  H   UNL     1     -30.688  30.312   8.149  0.00  0.00    +0.292 HD
ENDBRANCH  22  25
ENDBRANCH  16  17
ENDBRANCH  15  16
ENDBRANCH   1  15
TORSDOF 10
ENDMDL
MODEL 9
REMARK VINA RESULT:      -5.8      2.414      5.875
REMARK  Name = 60168275
REMARK  10 active torsions:
REMARK  status: ('A' for Active; 'I' for Inactive)
REMARK    1  A    between atoms: O_1  and  C_3
REMARK    2  A    between atoms: O_1  and  C_15
REMARK    3  A    between atoms: C_3  and  C_4
REMARK    4  A    between atoms: C_4  and  C_5
REMARK    5  A    between atoms: C_8  and  O_11
REMARK    6  A    between atoms: C_10  and  O_13
REMARK    7  A    between atoms: C_15  and  C_16
REMARK    8  A    between atoms: C_16  and  C_17
REMARK    9  A    between atoms: C_20  and  O_23
REMARK   10  A    between atoms: C_22  and  O_25
REMARK                            x       y       z     vdW  Elec       q    Type
REMARK                         _______ _______ _______ _____ _____    ______ ____
ROOT
ATOM      1  O   UNL     1     -32.949  26.415   5.185  0.00  0.00    -0.448 OA
ENDROOT
BRANCH   1   3
ATOM      2  O   UNL     1     -32.403  28.473   6.073  0.00  0.00    -0.250 OA
ATOM      3  C   UNL     1     -32.593  27.733   5.117  0.00  0.00    +0.321 C 
BRANCH   3   4
ATOM      4  C   UNL     1     -32.466  28.144   3.663  0.00  0.00    +0.136 C 
BRANCH   4   5
ATOM      5  C   UNL     1     -33.617  28.955   3.173  0.00  0.00    -0.008 C 
ATOM      6  C   UNL     1     -34.718  28.326   2.593  0.00  0.00    +0.036 C 
ATOM      7  C   UNL     1     -33.593  30.345   3.296  0.00  0.00    -0.000 C 
ATOM      8  C   UNL     1     -35.794  29.085   2.134  0.00  0.00    +0.167 C 
ATOM      9  C   UNL     1     -34.670  31.104   2.837  0.00  0.00    +0.039 C 
ATOM     10  C   UNL     1     -35.770  30.475   2.257  0.00  0.00    +0.167 C 
BRANCH   8  11
ATOM     11  O   UNL     1     -36.865  28.459   1.571  0.00  0.00    -0.503 OA
ATOM     12  H   UNL     1     -37.148  27.628   1.900  0.00  0.00    +0.292 HD
ENDBRANCH   8  11
BRANCH  10  13
ATOM     13  O   UNL     1     -36.816  31.227   1.813  0.00  0.00    -0.503 OA
ATOM     14  H   UNL     1     -37.216  31.033   0.989  0.00  0.00    +0.292 HD
ENDBRANCH  10  13
ENDBRANCH   4   5
ENDBRANCH   3   4
ENDBRANCH   1   3
BRANCH   1  15
ATOM     15  C   UNL     1     -33.975  26.102   6.134  0.00  0.00    +0.213 C 
BRANCH  15  16
ATOM     16  C   UNL     1     -35.291  25.850   5.406  0.00  0.00    +0.074 C 
BRANCH  16  17
ATOM     17  C   UNL     1     -35.380  24.450   4.850  0.00  0.00    -0.015 C 
ATOM     18  C   UNL     1     -35.352  23.354   5.712  0.00  0.00    +0.036 C 
ATOM     19  C   UNL     1     -35.493  24.251   3.474  0.00  0.00    -0.001 C 
ATOM     20  C   UNL     1     -35.436  22.060   5.199  0.00  0.00    +0.167 C 
ATOM     21  C   UNL     1     -35.576  22.957   2.961  0.00  0.00    +0.039 C 
ATOM     22  C   UNL     1     -35.547  21.861   3.823  0.00  0.00    +0.167 C 
BRANCH  20  23
ATOM     23  O   UNL     1     -35.410  20.998   6.053  0.00  0.00    -0.503 OA
ATOM     24  H   UNL     1     -36.103  20.876   6.671  0.00  0.00    +0.292 HD
ENDBRANCH  20  23
BRANCH  22  25
ATOM     25  O   UNL     1     -35.630  20.602   3.310  0.00  0.00    -0.503 OA
ATOM     26  H   UNL     1     -35.354  20.435   2.431  0.00  0.00    +0.292 HD
ENDBRANCH  22  25
ENDBRANCH  16  17
ENDBRANCH  15  16
ENDBRANCH   1  15
TORSDOF 10
ENDMDL
