MODEL 1
REMARK VINA RESULT:      -6.3      0.000      0.000
REMARK  Name = 20399
REMARK  6 active torsions:
REMARK  status: ('A' for Active; 'I' for Inactive)
REMARK    1  A    between atoms: C_3  and  C_12
REMARK    2  A    between atoms: C_4  and  O_24
REMARK    3  A    between atoms: C_10  and  O_26
REMARK    4  A    between atoms: C_15  and  O_18
REMARK    5  A    between atoms: C_16  and  O_20
REMARK    6  A    between atoms: C_17  and  O_22
REMARK                            x       y       z     vdW  Elec       q    Type
REMARK                         _______ _______ _______ _____ _____    ______ ____
ROOT
ATOM      1  O   UNL     1     -37.320  23.381   2.319  0.00  0.00    -0.472 OA
ATOM      2  O   UNL     1     -35.060  20.671   4.414  0.00  0.00    -0.289 OA
ATOM      3  C   UNL     1     -37.644  21.981   2.321  0.00  0.00    +0.222 C 
ATOM      4  C   UNL     1     -36.386  21.121   2.449  0.00  0.00    +0.217 C 
ATOM      5  C   UNL     1     -35.680  21.482   3.737  0.00  0.00    +0.207 C 
ATOM      6  C   UNL     1     -35.750  22.904   4.125  0.00  0.00    +0.071 C 
ATOM      7  C   UNL     1     -36.552  23.774   3.383  0.00  0.00    +0.145 C 
ATOM      8  C   UNL     1     -34.999  23.382   5.203  0.00  0.00    +0.009 C 
ATOM      9  C   UNL     1     -36.577  25.133   3.700  0.00  0.00    +0.074 C 
ATOM     10  C   UNL     1     -35.825  25.613   4.773  0.00  0.00    +0.137 C 
ATOM     11  C   UNL     1     -35.041  24.738   5.525  0.00  0.00    +0.037 C 
ENDROOT
BRANCH   3  12
ATOM     12  C   UNL     1     -38.395  21.692   1.035  0.00  0.00    +0.026 C 
ATOM     13  C   UNL     1     -37.741  21.797  -0.190  0.00  0.00    +0.039 C 
ATOM     14  C   UNL     1     -39.738  21.323   1.083  0.00  0.00    +0.039 C 
ATOM     15  C   UNL     1     -40.430  21.059  -0.100  0.00  0.00    +0.170 C 
ATOM     16  C   UNL     1     -38.432  21.532  -1.372  0.00  0.00    +0.170 C 
ATOM     17  C   UNL     1     -39.776  21.163  -1.327  0.00  0.00    +0.202 C 
BRANCH  15  18
ATOM     18  O   UNL     1     -41.741  20.697  -0.041  0.00  0.00    -0.503 OA
ATOM     19  H   UNL     1     -42.106  20.383   0.764  0.00  0.00    +0.292 HD
ENDBRANCH  15  18
BRANCH  16  20
ATOM     20  O   UNL     1     -37.781  21.635  -2.566  0.00  0.00    -0.503 OA
ATOM     21  H   UNL     1     -37.801  22.443  -3.041  0.00  0.00    +0.292 HD
ENDBRANCH  16  20
BRANCH  17  22
ATOM     22  O   UNL     1     -40.450  20.901  -2.483  0.00  0.00    -0.501 OA
ATOM     23  H   UNL     1     -40.292  20.102  -2.947  0.00  0.00    +0.292 HD
ENDBRANCH  17  22
ENDBRANCH   3  12
BRANCH   4  24
ATOM     24  O   UNL     1     -36.736  19.749   2.505  0.00  0.00    -0.374 OA
ATOM     25  H   UNL     1     -35.959  19.227   2.763  0.00  0.00    +0.211 HD
ENDBRANCH   4  24
BRANCH  10  26
ATOM     26  O   UNL     1     -35.858  26.937   5.087  0.00  0.00    -0.505 OA
ATOM     27  H   UNL     1     -36.170  27.212   5.927  0.00  0.00    +0.292 HD
ENDBRANCH  10  26
TORSDOF 6
ENDMDL
MODEL 2
REMARK VINA RESULT:      -6.3      2.943      7.907
REMARK  Name = 20399
REMARK  6 active torsions:
REMARK  status: ('A' for Active; 'I' for Inactive)
REMARK    1  A    between atoms: C_3  and  C_12
REMARK    2  A    between atoms: C_4  and  O_24
REMARK    3  A    between atoms: C_10  and  O_26
REMARK    4  A    between atoms: C_15  and  O_18
REMARK    5  A    between atoms: C_16  and  O_20
REMARK    6  A    between atoms: C_17  and  O_22
REMARK                            x       y       z     vdW  Elec       q    Type
REMARK                         _______ _______ _______ _____ _____    ______ ____
ROOT
ATOM      1  O   UNL     1     -34.842  23.829   3.333  0.00  0.00    -0.472 OA
ATOM      2  O   UNL     1     -38.899  24.442   3.404  0.00  0.00    -0.289 OA
ATOM      3  C   UNL     1     -35.439  24.769   4.242  0.00  0.00    +0.222 C 
ATOM      4  C   UNL     1     -36.696  25.399   3.640  0.00  0.00    +0.217 C 
ATOM      5  C   UNL     1     -37.685  24.300   3.320  0.00  0.00    +0.207 C 
ATOM      6  C   UNL     1     -37.096  23.029   2.856  0.00  0.00    +0.071 C 
ATOM      7  C   UNL     1     -35.708  22.874   2.873  0.00  0.00    +0.145 C 
ATOM      8  C   UNL     1     -37.916  22.002   2.376  0.00  0.00    +0.009 C 
ATOM      9  C   UNL     1     -35.137  21.701   2.377  0.00  0.00    +0.074 C 
ATOM     10  C   UNL     1     -35.952  20.678   1.894  0.00  0.00    +0.137 C 
ATOM     11  C   UNL     1     -37.339  20.827   1.897  0.00  0.00    +0.037 C 
ENDROOT
BRANCH   3  12
ATOM     12  C   UNL     1     -34.387  25.812   4.566  0.00  0.00    +0.026 C 
ATOM     13  C   UNL     1     -34.005  26.025   5.889  0.00  0.00    +0.039 C 
ATOM     14  C   UNL     1     -33.805  26.554   3.540  0.00  0.00    +0.039 C 
ATOM     15  C   UNL     1     -32.838  27.514   3.838  0.00  0.00    +0.170 C 
ATOM     16  C   UNL     1     -33.037  26.985   6.187  0.00  0.00    +0.170 C 
ATOM     17  C   UNL     1     -32.454  27.729   5.162  0.00  0.00    +0.202 C 
BRANCH  15  18
ATOM     18  O   UNL     1     -32.275  28.232   2.827  0.00  0.00    -0.503 OA
ATOM     19  H   UNL     1     -31.390  28.532   2.901  0.00  0.00    +0.292 HD
ENDBRANCH  15  18
BRANCH  16  20
ATOM     20  O   UNL     1     -32.670  27.184   7.484  0.00  0.00    -0.503 OA
ATOM     21  H   UNL     1     -32.750  26.488   8.106  0.00  0.00    +0.292 HD
ENDBRANCH  16  20
BRANCH  17  22
ATOM     22  O   UNL     1     -31.506  28.665   5.454  0.00  0.00    -0.501 OA
ATOM     23  H   UNL     1     -31.415  29.424   4.911  0.00  0.00    +0.292 HD
ENDBRANCH  17  22
ENDBRANCH   3  12
BRANCH   4  24
ATOM     24  O   UNL     1     -37.298  26.278   4.574  0.00  0.00    -0.374 OA
ATOM     25  H   UNL     1     -37.719  25.762   5.280  0.00  0.00    +0.211 HD
ENDBRANCH   4  24
BRANCH  10  26
ATOM     26  O   UNL     1     -35.393  19.530   1.419  0.00  0.00    -0.505 OA
ATOM     27  H   UNL     1     -35.496  19.298   0.517  0.00  0.00    +0.292 HD
ENDBRANCH  10  26
TORSDOF 6
ENDMDL
MODEL 3
REMARK VINA RESULT:      -6.0      2.590      3.790
REMARK  Name = 20399
REMARK  6 active torsions:
REMARK  status: ('A' for Active; 'I' for Inactive)
REMARK    1  A    between atoms: C_3  and  C_12
REMARK    2  A    between atoms: C_4  and  O_24
REMARK    3  A    between atoms: C_10  and  O_26
REMARK    4  A    between atoms: C_15  and  O_18
REMARK    5  A    between atoms: C_16  and  O_20
REMARK    6  A    between atoms: C_17  and  O_22
REMARK                            x       y       z     vdW  Elec       q    Type
REMARK                         _______ _______ _______ _____ _____    ______ ____
ROOT
ATOM      1  O   UNL     1     -35.374  23.145   2.756  0.00  0.00    -0.472 OA
ATOM      2  O   UNL     1     -35.228  22.502   6.807  0.00  0.00    -0.289 OA
ATOM      3  C   UNL     1     -35.824  21.907   3.333  0.00  0.00    +0.222 C 
ATOM      4  C   UNL     1     -35.029  21.562   4.593  0.00  0.00    +0.217 C 
ATOM      5  C   UNL     1     -35.198  22.682   5.595  0.00  0.00    +0.207 C 
ATOM      6  C   UNL     1     -35.289  24.040   5.024  0.00  0.00    +0.071 C 
ATOM      7  C   UNL     1     -35.355  24.193   3.637  0.00  0.00    +0.145 C 
ATOM      8  C   UNL     1     -35.279  25.162   5.859  0.00  0.00    +0.009 C 
ATOM      9  C   UNL     1     -35.377  25.474   3.083  0.00  0.00    +0.074 C 
ATOM     10  C   UNL     1     -35.364  26.594   3.913  0.00  0.00    +0.137 C 
ATOM     11  C   UNL     1     -35.319  26.438   5.299  0.00  0.00    +0.037 C 
ENDROOT
BRANCH   3  12
ATOM     12  C   UNL     1     -35.682  20.837   2.267  0.00  0.00    +0.026 C 
ATOM     13  C   UNL     1     -36.818  20.314   1.653  0.00  0.00    +0.039 C 
ATOM     14  C   UNL     1     -34.416  20.381   1.905  0.00  0.00    +0.039 C 
ATOM     15  C   UNL     1     -34.286  19.396   0.927  0.00  0.00    +0.170 C 
ATOM     16  C   UNL     1     -36.687  19.330   0.674  0.00  0.00    +0.170 C 
ATOM     17  C   UNL     1     -35.421  18.870   0.310  0.00  0.00    +0.202 C 
BRANCH  15  18
ATOM     18  O   UNL     1     -33.044  18.959   0.579  0.00  0.00    -0.503 OA
ATOM     19  H   UNL     1     -32.693  19.164  -0.265  0.00  0.00    +0.292 HD
ENDBRANCH  15  18
BRANCH  16  20
ATOM     20  O   UNL     1     -37.805  18.825   0.078  0.00  0.00    -0.503 OA
ATOM     21  H   UNL     1     -37.989  19.027  -0.819  0.00  0.00    +0.292 HD
ENDBRANCH  16  20
BRANCH  17  22
ATOM     22  O   UNL     1     -35.294  17.910  -0.649  0.00  0.00    -0.501 OA
ATOM     23  H   UNL     1     -35.156  18.157  -1.543  0.00  0.00    +0.292 HD
ENDBRANCH  17  22
ENDBRANCH   3  12
BRANCH   4  24
ATOM     24  O   UNL     1     -35.527  20.370   5.173  0.00  0.00    -0.374 OA
ATOM     25  H   UNL     1     -36.479  20.462   5.336  0.00  0.00    +0.211 HD
ENDBRANCH   4  24
BRANCH  10  26
ATOM     26  O   UNL     1     -35.395  27.843   3.371  0.00  0.00    -0.505 OA
ATOM     27  H   UNL     1     -35.735  27.969   2.506  0.00  0.00    +0.292 HD
ENDBRANCH  10  26
TORSDOF 6
ENDMDL
MODEL 4
REMARK VINA RESULT:      -5.9      3.792      6.329
REMARK  Name = 20399
REMARK  6 active torsions:
REMARK  status: ('A' for Active; 'I' for Inactive)
REMARK    1  A    between atoms: C_3  and  C_12
REMARK    2  A    between atoms: C_4  and  O_24
REMARK    3  A    between atoms: C_10  and  O_26
REMARK    4  A    between atoms: C_15  and  O_18
REMARK    5  A    between atoms: C_16  and  O_20
REMARK    6  A    between atoms: C_17  and  O_22
REMARK                            x       y       z     vdW  Elec       q    Type
REMARK                         _______ _______ _______ _____ _____    ______ ____
ROOT
ATOM      1  O   UNL     1     -35.639  26.684   2.561  0.00  0.00    -0.472 OA
ATOM      2  O   UNL     1     -32.734  28.791   4.552  0.00  0.00    -0.289 OA
ATOM      3  C   UNL     1     -35.091  26.211   3.803  0.00  0.00    +0.222 C 
ATOM      4  C   UNL     1     -33.629  26.629   3.959  0.00  0.00    +0.217 C 
ATOM      5  C   UNL     1     -33.548  28.139   3.909  0.00  0.00    +0.207 C 
ATOM      6  C   UNL     1     -34.502  28.798   2.995  0.00  0.00    +0.071 C 
ATOM      7  C   UNL     1     -35.481  28.029   2.362  0.00  0.00    +0.145 C 
ATOM      8  C   UNL     1     -34.409  30.170   2.744  0.00  0.00    +0.009 C 
ATOM      9  C   UNL     1     -36.347  28.629   1.447  0.00  0.00    +0.074 C 
ATOM     10  C   UNL     1     -36.253  29.997   1.191  0.00  0.00    +0.137 C 
ATOM     11  C   UNL     1     -35.288  30.767   1.841  0.00  0.00    +0.037 C 
ENDROOT
BRANCH   3  12
ATOM     12  C   UNL     1     -35.250  24.702   3.818  0.00  0.00    +0.026 C 
ATOM     13  C   UNL     1     -35.053  23.971   2.649  0.00  0.00    +0.039 C 
ATOM     14  C   UNL     1     -35.592  24.051   5.002  0.00  0.00    +0.039 C 
ATOM     15  C   UNL     1     -35.739  22.665   5.016  0.00  0.00    +0.170 C 
ATOM     16  C   UNL     1     -35.199  22.584   2.663  0.00  0.00    +0.170 C 
ATOM     17  C   UNL     1     -35.542  21.931   3.847  0.00  0.00    +0.202 C 
BRANCH  15  18
ATOM     18  O   UNL     1     -36.071  22.039   6.180  0.00  0.00    -0.503 OA
ATOM     19  H   UNL     1     -36.835  21.499   6.220  0.00  0.00    +0.292 HD
ENDBRANCH  15  18
BRANCH  16  20
ATOM     20  O   UNL     1     -35.003  21.878   1.514  0.00  0.00    -0.503 OA
ATOM     21  H   UNL     1     -35.727  21.458   1.093  0.00  0.00    +0.292 HD
ENDBRANCH  16  20
BRANCH  17  22
ATOM     22  O   UNL     1     -35.682  20.574   3.860  0.00  0.00    -0.501 OA
ATOM     23  H   UNL     1     -35.432  20.071   3.110  0.00  0.00    +0.292 HD
ENDBRANCH  17  22
ENDBRANCH   3  12
BRANCH   4  24
ATOM     24  O   UNL     1     -33.129  26.201   5.214  0.00  0.00    -0.374 OA
ATOM     25  H   UNL     1     -33.489  26.765   5.916  0.00  0.00    +0.211 HD
ENDBRANCH   4  24
BRANCH  10  26
ATOM     26  O   UNL     1     -37.106  30.583   0.305  0.00  0.00    -0.505 OA
ATOM     27  H   UNL     1     -37.041  30.384  -0.608  0.00  0.00    +0.292 HD
ENDBRANCH  10  26
TORSDOF 6
ENDMDL
MODEL 5
REMARK VINA RESULT:      -5.9      2.684      4.590
REMARK  Name = 20399
REMARK  6 active torsions:
REMARK  status: ('A' for Active; 'I' for Inactive)
REMARK    1  A    between atoms: C_3  and  C_12
REMARK    2  A    between atoms: C_4  and  O_24
REMARK    3  A    between atoms: C_10  and  O_26
REMARK    4  A    between atoms: C_15  and  O_18
REMARK    5  A    between atoms: C_16  and  O_20
REMARK    6  A    between atoms: C_17  and  O_22
REMARK                            x       y       z     vdW  Elec       q    Type
REMARK                         _______ _______ _______ _____ _____    ______ ____
ROOT
ATOM      1  O   UNL     1     -34.960  25.041   4.336  0.00  0.00    -0.472 OA
ATOM      2  O   UNL     1     -33.082  27.205   1.398  0.00  0.00    -0.289 OA
ATOM      3  C   UNL     1     -34.835  24.532   2.998  0.00  0.00    +0.222 C 
ATOM      4  C   UNL     1     -34.849  25.664   1.971  0.00  0.00    +0.217 C 
ATOM      5  C   UNL     1     -33.702  26.604   2.268  0.00  0.00    +0.207 C 
ATOM      6  C   UNL     1     -33.385  26.791   3.697  0.00  0.00    +0.071 C 
ATOM      7  C   UNL     1     -34.045  26.010   4.649  0.00  0.00    +0.145 C 
ATOM      8  C   UNL     1     -32.458  27.758   4.096  0.00  0.00    +0.009 C 
ATOM      9  C   UNL     1     -33.801  26.222   6.007  0.00  0.00    +0.074 C 
ATOM     10  C   UNL     1     -32.880  27.190   6.408  0.00  0.00    +0.137 C 
ATOM     11  C   UNL     1     -32.207  27.953   5.454  0.00  0.00    +0.037 C 
ENDROOT
BRANCH   3  12
ATOM     12  C   UNL     1     -35.977  23.558   2.779  0.00  0.00    +0.026 C 
ATOM     13  C   UNL     1     -35.729  22.188   2.767  0.00  0.00    +0.039 C 
ATOM     14  C   UNL     1     -37.272  24.038   2.590  0.00  0.00    +0.039 C 
ATOM     15  C   UNL     1     -38.323  23.143   2.387  0.00  0.00    +0.170 C 
ATOM     16  C   UNL     1     -36.780  21.293   2.565  0.00  0.00    +0.170 C 
ATOM     17  C   UNL     1     -38.077  21.771   2.375  0.00  0.00    +0.202 C 
BRANCH  15  18
ATOM     18  O   UNL     1     -39.584  23.623   2.205  0.00  0.00    -0.503 OA
ATOM     19  H   UNL     1     -40.324  23.066   2.350  0.00  0.00    +0.292 HD
ENDBRANCH  15  18
BRANCH  16  20
ATOM     20  O   UNL     1     -36.527  19.954   2.556  0.00  0.00    -0.503 OA
ATOM     21  H   UNL     1     -35.666  19.641   2.358  0.00  0.00    +0.292 HD
ENDBRANCH  16  20
BRANCH  17  22
ATOM     22  O   UNL     1     -39.104  20.895   2.180  0.00  0.00    -0.501 OA
ATOM     23  H   UNL     1     -39.425  20.383   2.897  0.00  0.00    +0.292 HD
ENDBRANCH  17  22
ENDBRANCH   3  12
BRANCH   4  24
ATOM     24  O   UNL     1     -34.668  25.143   0.666  0.00  0.00    -0.374 OA
ATOM     25  H   UNL     1     -34.545  24.182   0.715  0.00  0.00    +0.211 HD
ENDBRANCH   4  24
BRANCH  10  26
ATOM     26  O   UNL     1     -32.636  27.388   7.733  0.00  0.00    -0.505 OA
ATOM     27  H   UNL     1     -31.759  27.527   8.032  0.00  0.00    +0.292 HD
ENDBRANCH  10  26
TORSDOF 6
ENDMDL
MODEL 6
REMARK VINA RESULT:      -5.9      3.793      6.499
REMARK  Name = 20399
REMARK  6 active torsions:
REMARK  status: ('A' for Active; 'I' for Inactive)
REMARK    1  A    between atoms: C_3  and  C_12
REMARK    2  A    between atoms: C_4  and  O_24
REMARK    3  A    between atoms: C_10  and  O_26
REMARK    4  A    between atoms: C_15  and  O_18
REMARK    5  A    between atoms: C_16  and  O_20
REMARK    6  A    between atoms: C_17  and  O_22
REMARK                            x       y       z     vdW  Elec       q    Type
REMARK                         _______ _______ _______ _____ _____    ______ ____
ROOT
ATOM      1  O   UNL     1     -35.637  26.685   2.564  0.00  0.00    -0.472 OA
ATOM      2  O   UNL     1     -32.725  28.789   4.548  0.00  0.00    -0.289 OA
ATOM      3  C   UNL     1     -35.088  26.211   3.804  0.00  0.00    +0.222 C 
ATOM      4  C   UNL     1     -33.625  26.628   3.958  0.00  0.00    +0.217 C 
ATOM      5  C   UNL     1     -33.542  28.138   3.907  0.00  0.00    +0.207 C 
ATOM      6  C   UNL     1     -34.497  28.798   2.995  0.00  0.00    +0.071 C 
ATOM      7  C   UNL     1     -35.478  28.030   2.363  0.00  0.00    +0.145 C 
ATOM      8  C   UNL     1     -34.402  30.169   2.743  0.00  0.00    +0.009 C 
ATOM      9  C   UNL     1     -36.345  28.631   1.450  0.00  0.00    +0.074 C 
ATOM     10  C   UNL     1     -36.250  29.999   1.194  0.00  0.00    +0.137 C 
ATOM     11  C   UNL     1     -35.282  30.767   1.842  0.00  0.00    +0.037 C 
ENDROOT
BRANCH   3  12
ATOM     12  C   UNL     1     -35.248  24.703   3.820  0.00  0.00    +0.026 C 
ATOM     13  C   UNL     1     -35.592  24.053   5.003  0.00  0.00    +0.039 C 
ATOM     14  C   UNL     1     -35.050  23.971   2.650  0.00  0.00    +0.039 C 
ATOM     15  C   UNL     1     -35.196  22.584   2.665  0.00  0.00    +0.170 C 
ATOM     16  C   UNL     1     -35.738  22.666   5.017  0.00  0.00    +0.170 C 
ATOM     17  C   UNL     1     -35.540  21.931   3.848  0.00  0.00    +0.202 C 
BRANCH  15  18
ATOM     18  O   UNL     1     -35.003  21.879   1.516  0.00  0.00    -0.503 OA
ATOM     19  H   UNL     1     -35.362  21.018   1.427  0.00  0.00    +0.292 HD
ENDBRANCH  15  18
BRANCH  16  20
ATOM     20  O   UNL     1     -36.076  22.040   6.180  0.00  0.00    -0.503 OA
ATOM     21  H   UNL     1     -35.575  22.194   6.957  0.00  0.00    +0.292 HD
ENDBRANCH  16  20
BRANCH  17  22
ATOM     22  O   UNL     1     -35.687  20.576   3.863  0.00  0.00    -0.501 OA
ATOM     23  H   UNL     1     -35.035  20.030   3.467  0.00  0.00    +0.292 HD
ENDBRANCH  17  22
ENDBRANCH   3  12
BRANCH   4  24
ATOM     24  O   UNL     1     -33.123  26.199   5.211  0.00  0.00    -0.374 OA
ATOM     25  H   UNL     1     -33.694  25.500   5.567  0.00  0.00    +0.211 HD
ENDBRANCH   4  24
BRANCH  10  26
ATOM     26  O   UNL     1     -37.103  30.585   0.309  0.00  0.00    -0.505 OA
ATOM     27  H   UNL     1     -37.936  30.193   0.132  0.00  0.00    +0.292 HD
ENDBRANCH  10  26
TORSDOF 6
ENDMDL
MODEL 7
REMARK VINA RESULT:      -5.8      3.815      6.939
REMARK  Name = 20399
REMARK  6 active torsions:
REMARK  status: ('A' for Active; 'I' for Inactive)
REMARK    1  A    between atoms: C_3  and  C_12
REMARK    2  A    between atoms: C_4  and  O_24
REMARK    3  A    between atoms: C_10  and  O_26
REMARK    4  A    between atoms: C_15  and  O_18
REMARK    5  A    between atoms: C_16  and  O_20
REMARK    6  A    between atoms: C_17  and  O_22
REMARK                            x       y       z     vdW  Elec       q    Type
REMARK                         _______ _______ _______ _____ _____    ______ ____
ROOT
ATOM      1  O   UNL     1     -33.157  26.647   5.040  0.00  0.00    -0.472 OA
ATOM      2  O   UNL     1     -33.815  29.687   2.363  0.00  0.00    -0.289 OA
ATOM      3  C   UNL     1     -33.565  26.377   3.689  0.00  0.00    +0.222 C 
ATOM      4  C   UNL     1     -34.455  27.495   3.144  0.00  0.00    +0.217 C 
ATOM      5  C   UNL     1     -33.684  28.796   3.193  0.00  0.00    +0.207 C 
ATOM      6  C   UNL     1     -32.773  28.954   4.344  0.00  0.00    +0.071 C 
ATOM      7  C   UNL     1     -32.576  27.875   5.209  0.00  0.00    +0.145 C 
ATOM      8  C   UNL     1     -32.138  30.176   4.582  0.00  0.00    +0.009 C 
ATOM      9  C   UNL     1     -31.767  28.032   6.336  0.00  0.00    +0.074 C 
ATOM     10  C   UNL     1     -31.135  29.252   6.577  0.00  0.00    +0.137 C 
ATOM     11  C   UNL     1     -31.317  30.321   5.699  0.00  0.00    +0.037 C 
ENDROOT
BRANCH   3  12
ATOM     12  C   UNL     1     -34.281  25.040   3.694  0.00  0.00    +0.026 C 
ATOM     13  C   UNL     1     -34.789  24.529   4.886  0.00  0.00    +0.039 C 
ATOM     14  C   UNL     1     -34.428  24.326   2.506  0.00  0.00    +0.039 C 
ATOM     15  C   UNL     1     -35.085  23.096   2.511  0.00  0.00    +0.170 C 
ATOM     16  C   UNL     1     -35.447  23.299   4.891  0.00  0.00    +0.170 C 
ATOM     17  C   UNL     1     -35.595  22.582   3.703  0.00  0.00    +0.202 C 
BRANCH  15  18
ATOM     18  O   UNL     1     -35.226  22.408   1.344  0.00  0.00    -0.503 OA
ATOM     19  H   UNL     1     -34.511  21.905   1.007  0.00  0.00    +0.292 HD
ENDBRANCH  15  18
BRANCH  16  20
ATOM     20  O   UNL     1     -35.941  22.808   6.062  0.00  0.00    -0.503 OA
ATOM     21  H   UNL     1     -35.570  23.082   6.878  0.00  0.00    +0.292 HD
ENDBRANCH  16  20
BRANCH  17  22
ATOM     22  O   UNL     1     -36.241  21.381   3.708  0.00  0.00    -0.501 OA
ATOM     23  H   UNL     1     -35.832  20.632   4.096  0.00  0.00    +0.292 HD
ENDBRANCH  17  22
ENDBRANCH   3  12
BRANCH   4  24
ATOM     24  O   UNL     1     -34.797  27.234   1.794  0.00  0.00    -0.374 OA
ATOM     25  H   UNL     1     -34.207  27.734   1.208  0.00  0.00    +0.211 HD
ENDBRANCH   4  24
BRANCH  10  26
ATOM     26  O   UNL     1     -30.338  29.399   7.672  0.00  0.00    -0.505 OA
ATOM     27  H   UNL     1     -30.201  28.676   8.252  0.00  0.00    +0.292 HD
ENDBRANCH  10  26
TORSDOF 6
ENDMDL
MODEL 8
REMARK VINA RESULT:      -5.7      3.516      6.993
REMARK  Name = 20399
REMARK  6 active torsions:
REMARK  status: ('A' for Active; 'I' for Inactive)
REMARK    1  A    between atoms: C_3  and  C_12
REMARK    2  A    between atoms: C_4  and  O_24
REMARK    3  A    between atoms: C_10  and  O_26
REMARK    4  A    between atoms: C_15  and  O_18
REMARK    5  A    between atoms: C_16  and  O_20
REMARK    6  A    between atoms: C_17  and  O_22
REMARK                            x       y       z     vdW  Elec       q    Type
REMARK                         _______ _______ _______ _____ _____    ______ ____
ROOT
ATOM      1  O   UNL     1     -34.020  19.934   1.804  0.00  0.00    -0.472 OA
ATOM      2  O   UNL     1     -37.078  18.327  -0.411  0.00  0.00    -0.289 OA
ATOM      3  C   UNL     1     -35.395  20.220   2.111  0.00  0.00    +0.222 C 
ATOM      4  C   UNL     1     -36.257  20.215   0.848  0.00  0.00    +0.217 C 
ATOM      5  C   UNL     1     -36.153  18.855   0.194  0.00  0.00    +0.207 C 
ATOM      6  C   UNL     1     -34.835  18.199   0.296  0.00  0.00    +0.071 C 
ATOM      7  C   UNL     1     -33.840  18.786   1.081  0.00  0.00    +0.145 C 
ATOM      8  C   UNL     1     -34.575  17.020  -0.409  0.00  0.00    +0.009 C 
ATOM      9  C   UNL     1     -32.570  18.209   1.134  0.00  0.00    +0.074 C 
ATOM     10  C   UNL     1     -32.307  17.034   0.428  0.00  0.00    +0.137 C 
ATOM     11  C   UNL     1     -33.309  16.439  -0.339  0.00  0.00    +0.037 C 
ENDROOT
BRANCH   3  12
ATOM     12  C   UNL     1     -35.429  21.566   2.811  0.00  0.00    +0.026 C 
ATOM     13  C   UNL     1     -35.261  22.736   2.074  0.00  0.00    +0.039 C 
ATOM     14  C   UNL     1     -35.627  21.627   4.189  0.00  0.00    +0.039 C 
ATOM     15  C   UNL     1     -35.657  22.864   4.833  0.00  0.00    +0.170 C 
ATOM     16  C   UNL     1     -35.292  23.973   2.718  0.00  0.00    +0.170 C 
ATOM     17  C   UNL     1     -35.490  24.037   4.097  0.00  0.00    +0.202 C 
BRANCH  15  18
ATOM     18  O   UNL     1     -35.854  22.912   6.179  0.00  0.00    -0.503 OA
ATOM     19  H   UNL     1     -35.144  22.731   6.764  0.00  0.00    +0.292 HD
ENDBRANCH  15  18
BRANCH  16  20
ATOM     20  O   UNL     1     -35.129  25.112   1.988  0.00  0.00    -0.503 OA
ATOM     21  H   UNL     1     -35.033  25.937   2.422  0.00  0.00    +0.292 HD
ENDBRANCH  16  20
BRANCH  17  22
ATOM     22  O   UNL     1     -35.522  25.247   4.725  0.00  0.00    -0.501 OA
ATOM     23  H   UNL     1     -36.301  25.523   5.168  0.00  0.00    +0.292 HD
ENDBRANCH  17  22
ENDBRANCH   3  12
BRANCH   4  24
ATOM     24  O   UNL     1     -37.615  20.443   1.182  0.00  0.00    -0.374 OA
ATOM     25  H   UNL     1     -37.946  19.703   1.714  0.00  0.00    +0.211 HD
ENDBRANCH   4  24
BRANCH  10  26
ATOM     26  O   UNL     1     -31.070  16.468   0.489  0.00  0.00    -0.505 OA
ATOM     27  H   UNL     1     -30.341  16.968   0.802  0.00  0.00    +0.292 HD
ENDBRANCH  10  26
TORSDOF 6
ENDMDL
MODEL 9
REMARK VINA RESULT:      -5.6      2.453      6.512
REMARK  Name = 20399
REMARK  6 active torsions:
REMARK  status: ('A' for Active; 'I' for Inactive)
REMARK    1  A    between atoms: C_3  and  C_12
REMARK    2  A    between atoms: C_4  and  O_24
REMARK    3  A    between atoms: C_10  and  O_26
REMARK    4  A    between atoms: C_15  and  O_18
REMARK    5  A    between atoms: C_16  and  O_20
REMARK    6  A    between atoms: C_17  and  O_22
REMARK                            x       y       z     vdW  Elec       q    Type
REMARK                         _______ _______ _______ _____ _____    ______ ____
ROOT
ATOM      1  O   UNL     1     -35.366  21.384   2.227  0.00  0.00    -0.472 OA
ATOM      2  O   UNL     1     -38.523  20.061  -0.037  0.00  0.00    -0.289 OA
ATOM      3  C   UNL     1     -36.718  21.754   2.543  0.00  0.00    +0.222 C 
ATOM      4  C   UNL     1     -37.576  21.848   1.281  0.00  0.00    +0.217 C 
ATOM      5  C   UNL     1     -37.565  20.505   0.585  0.00  0.00    +0.207 C 
ATOM      6  C   UNL     1     -36.295  19.757   0.665  0.00  0.00    +0.071 C 
ATOM      7  C   UNL     1     -35.264  20.249   1.468  0.00  0.00    +0.145 C 
ATOM      8  C   UNL     1     -36.115  18.585  -0.077  0.00  0.00    +0.009 C 
ATOM      9  C   UNL     1     -34.037  19.585   1.503  0.00  0.00    +0.074 C 
ATOM     10  C   UNL     1     -33.854  18.418   0.761  0.00  0.00    +0.137 C 
ATOM     11  C   UNL     1     -34.893  17.917  -0.024  0.00  0.00    +0.037 C 
ENDROOT
BRANCH   3  12
ATOM     12  C   UNL     1     -36.661  23.076   3.284  0.00  0.00    +0.026 C 
ATOM     13  C   UNL     1     -35.667  23.298   4.234  0.00  0.00    +0.039 C 
ATOM     14  C   UNL     1     -37.604  24.066   3.013  0.00  0.00    +0.039 C 
ATOM     15  C   UNL     1     -37.553  25.281   3.696  0.00  0.00    +0.170 C 
ATOM     16  C   UNL     1     -35.615  24.513   4.916  0.00  0.00    +0.170 C 
ATOM     17  C   UNL     1     -36.558  25.505   4.647  0.00  0.00    +0.202 C 
BRANCH  15  18
ATOM     18  O   UNL     1     -38.478  26.242   3.422  0.00  0.00    -0.503 OA
ATOM     19  H   UNL     1     -38.421  26.735   2.627  0.00  0.00    +0.292 HD
ENDBRANCH  15  18
BRANCH  16  20
ATOM     20  O   UNL     1     -34.637  24.720   5.842  0.00  0.00    -0.503 OA
ATOM     21  H   UNL     1     -34.757  25.361   6.516  0.00  0.00    +0.292 HD
ENDBRANCH  16  20
BRANCH  17  22
ATOM     22  O   UNL     1     -36.505  26.694   5.312  0.00  0.00    -0.501 OA
ATOM     23  H   UNL     1     -35.815  27.302   5.130  0.00  0.00    +0.292 HD
ENDBRANCH  17  22
ENDBRANCH   3  12
BRANCH   4  24
ATOM     24  O   UNL     1     -38.916  22.158   1.622  0.00  0.00    -0.374 OA
ATOM     25  H   UNL     1     -39.053  23.116   1.557  0.00  0.00    +0.211 HD
ENDBRANCH   4  24
BRANCH  10  26
ATOM     26  O   UNL     1     -32.659  17.766   0.803  0.00  0.00    -0.505 OA
ATOM     27  H   UNL     1     -32.032  17.980   1.467  0.00  0.00    +0.292 HD
ENDBRANCH  10  26
TORSDOF 6
ENDMDL
