MODEL 1
REMARK VINA RESULT:      -5.8      0.000      0.000
REMARK  Name = 572319
REMARK  8 active torsions:
REMARK  status: ('A' for Active; 'I' for Inactive)
REMARK    1  A    between atoms: CA_1  and  N_3
REMARK    2  A    between atoms: CA_1  and  C_13
REMARK    3  A    between atoms: CA_1  and  CB_16
REMARK    4  A    between atoms: C_4  and  CA_6
REMARK    5  A    between atoms: CA_6  and  N_8
REMARK    6  A    between atoms: C_13  and  O_14
REMARK    7  A    between atoms: CB_16  and  CG_17
REMARK    8  A    between atoms: CZ_22  and  OH_23
REMARK                            x       y       z     vdW  Elec       q    Type
REMARK                         _______ _______ _______ _____ _____    ______ ____
ROOT
ATOM      1  CA  TYR A   2     -36.086  21.875   2.834  0.00  0.00    +0.176 C 
ENDROOT
BRANCH   1   3
ATOM      2  O   ALA A   1     -37.651  23.811   1.388  0.00  0.00    -0.277 OA
ATOM      3  N   TYR A   2     -37.527  21.960   2.782  0.00  0.00    -0.298 N 
ATOM      4  C   ALA A   1     -38.197  22.934   2.053  0.00  0.00    +0.202 C 
ATOM      5  H   TYR A   2     -38.056  21.299   3.283  0.00  0.00    +0.150 HD
BRANCH   4   6
ATOM      6  CA  ALA A   1     -39.710  22.802   2.181  0.00  0.00    +0.013 C 
ATOM      7  CB  ALA A   1     -40.403  23.586   1.073  0.00  0.00    -0.015 C 
BRANCH   6   8
ATOM      8  N   ALA A   1     -40.056  21.386   2.091  0.00  0.00    +0.387 N 
ATOM      9  H1  ALA A   1     -39.215  20.842   1.896  0.00  0.00    -0.089 HD
ATOM     10  H2  ALA A   1     -40.732  21.248   1.339  0.00  0.00    -0.089 HD
ATOM     11  H3  ALA A   1     -40.462  21.078   2.974  0.00  0.00    -0.089 HD
ENDBRANCH   6   8
ENDBRANCH   4   6
ENDBRANCH   1   3
BRANCH   1  13
ATOM     12  OXT TYR A   2     -34.600  20.061   2.150  0.00  0.00    -0.248 OA
ATOM     13  C   TYR A   2     -35.717  20.455   2.454  0.00  0.00    +0.332 C 
BRANCH  13  14
ATOM     14  O   TYR A   2     -36.804  19.645   2.520  0.00  0.00    -0.479 OA
ATOM     15  H   TYR A   2     -37.591  19.878   2.069  0.00  0.00    +0.295 HD
ENDBRANCH  13  14
ENDBRANCH   1  13
BRANCH   1  16
ATOM     16  CB  TYR A   2     -35.602  22.216   4.250  0.00  0.00    +0.057 C 
BRANCH  16  17
ATOM     17  CG  TYR A   2     -35.083  23.632   4.363  0.00  0.00    -0.020 C 
ATOM     18  CD1 TYR A   2     -35.098  24.261   5.595  0.00  0.00    -0.001 C 
ATOM     19  CD2 TYR A   2     -34.604  24.269   3.231  0.00  0.00    -0.001 C 
ATOM     20  CE1 TYR A   2     -34.619  25.567   5.700  0.00  0.00    +0.036 C 
ATOM     21  CE2 TYR A   2     -34.125  25.575   3.335  0.00  0.00    +0.036 C 
ATOM     22  CZ  TYR A   2     -34.133  26.225   4.570  0.00  0.00    +0.134 C 
BRANCH  22  23
ATOM     23  OH  TYR A   2     -33.667  27.499   4.672  0.00  0.00    -0.506 OA
ATOM     24  HH  TYR A   2     -33.334  27.938   3.915  0.00  0.00    +0.292 HD
ENDBRANCH  22  23
ENDBRANCH  16  17
ENDBRANCH   1  16
TORSDOF 8
ENDMDL
MODEL 2
REMARK VINA RESULT:      -5.7      3.829      7.226
REMARK  Name = 572319
REMARK  8 active torsions:
REMARK  status: ('A' for Active; 'I' for Inactive)
REMARK    1  A    between atoms: CA_1  and  N_3
REMARK    2  A    between atoms: CA_1  and  C_13
REMARK    3  A    between atoms: CA_1  and  CB_16
REMARK    4  A    between atoms: C_4  and  CA_6
REMARK    5  A    between atoms: CA_6  and  N_8
REMARK    6  A    between atoms: C_13  and  O_14
REMARK    7  A    between atoms: CB_16  and  CG_17
REMARK    8  A    between atoms: CZ_22  and  OH_23
REMARK                            x       y       z     vdW  Elec       q    Type
REMARK                         _______ _______ _______ _____ _____    ______ ____
ROOT
ATOM      1  CA  TYR A   2     -33.707  26.597   4.684  0.00  0.00    +0.176 C 
ENDROOT
BRANCH   1   3
ATOM      2  O   ALA A   1     -31.102  27.753   4.275  0.00  0.00    -0.277 OA
ATOM      3  N   TYR A   2     -33.086  27.635   5.473  0.00  0.00    -0.298 N 
ATOM      4  C   ALA A   1     -31.819  28.132   5.199  0.00  0.00    +0.202 C 
ATOM      5  H   TYR A   2     -33.582  28.005   6.238  0.00  0.00    +0.150 HD
BRANCH   4   6
ATOM      6  CA  ALA A   1     -31.400  29.209   6.192  0.00  0.00    +0.013 C 
ATOM      7  CB  ALA A   1     -32.010  30.550   5.804  0.00  0.00    -0.015 C 
BRANCH   6   8
ATOM      8  N   ALA A   1     -31.860  28.811   7.520  0.00  0.00    +0.387 N 
ATOM      9  H1  ALA A   1     -31.136  29.021   8.208  0.00  0.00    -0.089 HD
ATOM     10  H2  ALA A   1     -32.055  27.810   7.527  0.00  0.00    -0.089 HD
ATOM     11  H3  ALA A   1     -32.710  29.325   7.754  0.00  0.00    -0.089 HD
ENDBRANCH   6   8
ENDBRANCH   4   6
ENDBRANCH   1   3
BRANCH   1  13
ATOM     12  OXT TYR A   2     -33.866  27.332   2.359  0.00  0.00    -0.248 OA
ATOM     13  C   TYR A   2     -34.339  27.277   3.485  0.00  0.00    +0.332 C 
BRANCH  13  14
ATOM     14  O   TYR A   2     -35.542  27.810   3.818  0.00  0.00    -0.479 OA
ATOM     15  H   TYR A   2     -36.310  27.570   3.339  0.00  0.00    +0.295 HD
ENDBRANCH  13  14
ENDBRANCH   1  13
BRANCH   1  16
ATOM     16  CB  TYR A   2     -34.761  25.868   5.529  0.00  0.00    +0.057 C 
BRANCH  16  17
ATOM     17  CG  TYR A   2     -35.007  24.452   5.060  0.00  0.00    -0.020 C 
ATOM     18  CD1 TYR A   2     -35.145  23.443   5.997  0.00  0.00    -0.001 C 
ATOM     19  CD2 TYR A   2     -35.089  24.194   3.702  0.00  0.00    -0.001 C 
ATOM     20  CE1 TYR A   2     -35.373  22.137   5.564  0.00  0.00    +0.036 C 
ATOM     21  CE2 TYR A   2     -35.317  22.888   3.268  0.00  0.00    +0.036 C 
ATOM     22  CZ  TYR A   2     -35.458  21.859   4.200  0.00  0.00    +0.134 C 
BRANCH  22  23
ATOM     23  OH  TYR A   2     -35.680  20.584   3.777  0.00  0.00    -0.506 OA
ATOM     24  HH  TYR A   2     -35.875  19.912   4.400  0.00  0.00    +0.292 HD
ENDBRANCH  22  23
ENDBRANCH  16  17
ENDBRANCH   1  16
TORSDOF 8
ENDMDL
MODEL 3
REMARK VINA RESULT:      -5.6      3.809      7.255
REMARK  Name = 572319
REMARK  8 active torsions:
REMARK  status: ('A' for Active; 'I' for Inactive)
REMARK    1  A    between atoms: CA_1  and  N_3
REMARK    2  A    between atoms: CA_1  and  C_13
REMARK    3  A    between atoms: CA_1  and  CB_16
REMARK    4  A    between atoms: C_4  and  CA_6
REMARK    5  A    between atoms: CA_6  and  N_8
REMARK    6  A    between atoms: C_13  and  O_14
REMARK    7  A    between atoms: CB_16  and  CG_17
REMARK    8  A    between atoms: CZ_22  and  OH_23
REMARK                            x       y       z     vdW  Elec       q    Type
REMARK                         _______ _______ _______ _____ _____    ______ ____
ROOT
ATOM      1  CA  TYR A   2     -34.089  26.857   4.166  0.00  0.00    +0.176 C 
ENDROOT
BRANCH   1   3
ATOM      2  O   ALA A   1     -31.304  27.563   3.996  0.00  0.00    -0.277 OA
ATOM      3  N   TYR A   2     -33.367  27.749   5.042  0.00  0.00    -0.298 N 
ATOM      4  C   ALA A   1     -32.016  28.030   4.882  0.00  0.00    +0.202 C 
ATOM      5  H   TYR A   2     -33.851  28.175   5.785  0.00  0.00    +0.150 HD
BRANCH   4   6
ATOM      6  CA  ALA A   1     -31.502  28.989   5.948  0.00  0.00    +0.013 C 
ATOM      7  CB  ALA A   1     -32.045  30.392   5.703  0.00  0.00    -0.015 C 
BRANCH   6   8
ATOM      8  N   ALA A   1     -31.938  28.500   7.254  0.00  0.00    +0.387 N 
ATOM      9  H1  ALA A   1     -31.131  28.160   7.776  0.00  0.00    -0.089 HD
ATOM     10  H2  ALA A   1     -32.606  27.739   7.126  0.00  0.00    -0.089 HD
ATOM     11  H3  ALA A   1     -32.382  29.260   7.770  0.00  0.00    -0.089 HD
ENDBRANCH   6   8
ENDBRANCH   4   6
ENDBRANCH   1   3
BRANCH   1  13
ATOM     12  OXT TYR A   2     -34.530  27.413   1.829  0.00  0.00    -0.248 OA
ATOM     13  C   TYR A   2     -34.606  27.697   3.015  0.00  0.00    +0.332 C 
BRANCH  13  14
ATOM     14  O   TYR A   2     -35.206  28.823   3.478  0.00  0.00    -0.479 OA
ATOM     15  H   TYR A   2     -34.690  29.574   3.697  0.00  0.00    +0.295 HD
ENDBRANCH  13  14
ENDBRANCH   1  13
BRANCH   1  16
ATOM     16  CB  TYR A   2     -35.243  26.200   4.938  0.00  0.00    +0.057 C 
BRANCH  16  17
ATOM     17  CG  TYR A   2     -35.301  24.703   4.737  0.00  0.00    -0.020 C 
ATOM     18  CD1 TYR A   2     -35.404  24.196   3.453  0.00  0.00    -0.001 C 
ATOM     19  CD2 TYR A   2     -35.251  23.869   5.841  0.00  0.00    -0.001 C 
ATOM     20  CE1 TYR A   2     -35.457  22.815   3.266  0.00  0.00    +0.036 C 
ATOM     21  CE2 TYR A   2     -35.304  22.488   5.655  0.00  0.00    +0.036 C 
ATOM     22  CZ  TYR A   2     -35.407  21.961   4.368  0.00  0.00    +0.134 C 
BRANCH  22  23
ATOM     23  OH  TYR A   2     -35.460  20.613   4.186  0.00  0.00    -0.506 OA
ATOM     24  HH  TYR A   2     -35.186  20.037   4.872  0.00  0.00    +0.292 HD
ENDBRANCH  22  23
ENDBRANCH  16  17
ENDBRANCH   1  16
TORSDOF 8
ENDMDL
MODEL 4
REMARK VINA RESULT:      -5.6      2.022      2.744
REMARK  Name = 572319
REMARK  8 active torsions:
REMARK  status: ('A' for Active; 'I' for Inactive)
REMARK    1  A    between atoms: CA_1  and  N_3
REMARK    2  A    between atoms: CA_1  and  C_13
REMARK    3  A    between atoms: CA_1  and  CB_16
REMARK    4  A    between atoms: C_4  and  CA_6
REMARK    5  A    between atoms: CA_6  and  N_8
REMARK    6  A    between atoms: C_13  and  O_14
REMARK    7  A    between atoms: CB_16  and  CG_17
REMARK    8  A    between atoms: CZ_22  and  OH_23
REMARK                            x       y       z     vdW  Elec       q    Type
REMARK                         _______ _______ _______ _____ _____    ______ ____
ROOT
ATOM      1  CA  TYR A   2     -35.552  22.693   4.401  0.00  0.00    +0.176 C 
ENDROOT
BRANCH   1   3
ATOM      2  O   ALA A   1     -34.934  22.010   1.673  0.00  0.00    -0.277 OA
ATOM      3  N   TYR A   2     -36.428  22.051   3.449  0.00  0.00    -0.298 N 
ATOM      4  C   ALA A   1     -36.040  21.760   2.148  0.00  0.00    +0.202 C 
ATOM      5  H   TYR A   2     -37.338  21.810   3.735  0.00  0.00    +0.150 HD
BRANCH   4   6
ATOM      6  CA  ALA A   1     -37.159  21.096   1.354  0.00  0.00    +0.013 C 
ATOM      7  CB  ALA A   1     -36.706  19.733   0.843  0.00  0.00    -0.015 C 
BRANCH   6   8
ATOM      8  N   ALA A   1     -38.317  20.947   2.231  0.00  0.00    +0.387 N 
ATOM      9  H1  ALA A   1     -38.013  20.593   3.138  0.00  0.00    -0.089 HD
ATOM     10  H2  ALA A   1     -38.978  20.291   1.814  0.00  0.00    -0.089 HD
ATOM     11  H3  ALA A   1     -38.769  21.853   2.354  0.00  0.00    -0.089 HD
ENDBRANCH   6   8
ENDBRANCH   4   6
ENDBRANCH   1   3
BRANCH   1  13
ATOM     12  OXT TYR A   2     -35.985  22.188   6.751  0.00  0.00    -0.248 OA
ATOM     13  C   TYR A   2     -35.569  21.842   5.655  0.00  0.00    +0.332 C 
BRANCH  13  14
ATOM     14  O   TYR A   2     -35.076  20.603   5.398  0.00  0.00    -0.479 OA
ATOM     15  H   TYR A   2     -34.518  20.182   6.022  0.00  0.00    +0.295 HD
ENDBRANCH  13  14
ENDBRANCH   1  13
BRANCH   1  16
ATOM     16  CB  TYR A   2     -36.056  24.115   4.686  0.00  0.00    +0.057 C 
BRANCH  16  17
ATOM     17  CG  TYR A   2     -34.942  25.137   4.694  0.00  0.00    -0.020 C 
ATOM     18  CD1 TYR A   2     -34.553  25.706   5.895  0.00  0.00    -0.001 C 
ATOM     19  CD2 TYR A   2     -34.334  25.484   3.499  0.00  0.00    -0.001 C 
ATOM     20  CE1 TYR A   2     -33.525  26.648   5.902  0.00  0.00    +0.036 C 
ATOM     21  CE2 TYR A   2     -33.305  26.427   3.506  0.00  0.00    +0.036 C 
ATOM     22  CZ  TYR A   2     -32.901  27.009   4.708  0.00  0.00    +0.134 C 
BRANCH  22  23
ATOM     23  OH  TYR A   2     -31.899  27.930   4.715  0.00  0.00    -0.506 OA
ATOM     24  HH  TYR A   2     -31.579  28.267   5.529  0.00  0.00    +0.292 HD
ENDBRANCH  22  23
ENDBRANCH  16  17
ENDBRANCH   1  16
TORSDOF 8
ENDMDL
MODEL 5
REMARK VINA RESULT:      -5.5      1.915      2.643
REMARK  Name = 572319
REMARK  8 active torsions:
REMARK  status: ('A' for Active; 'I' for Inactive)
REMARK    1  A    between atoms: CA_1  and  N_3
REMARK    2  A    between atoms: CA_1  and  C_13
REMARK    3  A    between atoms: CA_1  and  CB_16
REMARK    4  A    between atoms: C_4  and  CA_6
REMARK    5  A    between atoms: CA_6  and  N_8
REMARK    6  A    between atoms: C_13  and  O_14
REMARK    7  A    between atoms: CB_16  and  CG_17
REMARK    8  A    between atoms: CZ_22  and  OH_23
REMARK                            x       y       z     vdW  Elec       q    Type
REMARK                         _______ _______ _______ _____ _____    ______ ____
ROOT
ATOM      1  CA  TYR A   2     -35.625  23.366   4.507  0.00  0.00    +0.176 C 
ENDROOT
BRANCH   1   3
ATOM      2  O   ALA A   1     -36.503  23.893   1.816  0.00  0.00    -0.277 OA
ATOM      3  N   TYR A   2     -36.974  23.649   4.075  0.00  0.00    -0.298 N 
ATOM      4  C   ALA A   1     -37.304  23.892   2.748  0.00  0.00    +0.202 C 
ATOM      5  H   TYR A   2     -37.690  23.670   4.750  0.00  0.00    +0.150 HD
BRANCH   4   6
ATOM      6  CA  ALA A   1     -38.791  24.174   2.572  0.00  0.00    +0.013 C 
ATOM      7  CB  ALA A   1     -39.541  22.883   2.268  0.00  0.00    -0.015 C 
BRANCH   6   8
ATOM      8  N   ALA A   1     -39.294  24.773   3.806  0.00  0.00    +0.387 N 
ATOM      9  H1  ALA A   1     -39.836  24.080   4.322  0.00  0.00    -0.089 HD
ATOM     10  H2  ALA A   1     -39.887  25.571   3.580  0.00  0.00    -0.089 HD
ATOM     11  H3  ALA A   1     -38.508  25.083   4.377  0.00  0.00    -0.089 HD
ENDBRANCH   6   8
ENDBRANCH   4   6
ENDBRANCH   1   3
BRANCH   1  13
ATOM     12  OXT TYR A   2     -35.245  20.959   4.340  0.00  0.00    -0.248 OA
ATOM     13  C   TYR A   2     -35.612  21.929   4.988  0.00  0.00    +0.332 C 
BRANCH  13  14
ATOM     14  O   TYR A   2     -36.043  21.851   6.273  0.00  0.00    -0.479 OA
ATOM     15  H   TYR A   2     -36.618  22.507   6.615  0.00  0.00    +0.295 HD
ENDBRANCH  13  14
ENDBRANCH   1  13
BRANCH   1  16
ATOM     16  CB  TYR A   2     -35.233  24.333   5.632  0.00  0.00    +0.057 C 
BRANCH  16  17
ATOM     17  CG  TYR A   2     -34.314  25.437   5.158  0.00  0.00    -0.020 C 
ATOM     18  CD1 TYR A   2     -34.010  25.532   3.811  0.00  0.00    -0.001 C 
ATOM     19  CD2 TYR A   2     -33.796  26.329   6.081  0.00  0.00    -0.001 C 
ATOM     20  CE1 TYR A   2     -33.163  26.550   3.373  0.00  0.00    +0.036 C 
ATOM     21  CE2 TYR A   2     -32.949  27.348   5.644  0.00  0.00    +0.036 C 
ATOM     22  CZ  TYR A   2     -32.632  27.458   4.290  0.00  0.00    +0.134 C 
BRANCH  22  23
ATOM     23  OH  TYR A   2     -31.805  28.451   3.862  0.00  0.00    -0.506 OA
ATOM     24  HH  TYR A   2     -31.410  29.031   4.483  0.00  0.00    +0.292 HD
ENDBRANCH  22  23
ENDBRANCH  16  17
ENDBRANCH   1  16
TORSDOF 8
ENDMDL
MODEL 6
REMARK VINA RESULT:      -5.4      1.854      3.622
REMARK  Name = 572319
REMARK  8 active torsions:
REMARK  status: ('A' for Active; 'I' for Inactive)
REMARK    1  A    between atoms: CA_1  and  N_3
REMARK    2  A    between atoms: CA_1  and  C_13
REMARK    3  A    between atoms: CA_1  and  CB_16
REMARK    4  A    between atoms: C_4  and  CA_6
REMARK    5  A    between atoms: CA_6  and  N_8
REMARK    6  A    between atoms: C_13  and  O_14
REMARK    7  A    between atoms: CB_16  and  CG_17
REMARK    8  A    between atoms: CZ_22  and  OH_23
REMARK                            x       y       z     vdW  Elec       q    Type
REMARK                         _______ _______ _______ _____ _____    ______ ____
ROOT
ATOM      1  CA  TYR A   2     -37.190  22.485   2.618  0.00  0.00    +0.176 C 
ENDROOT
BRANCH   1   3
ATOM      2  O   ALA A   1     -35.229  20.519   3.379  0.00  0.00    -0.277 OA
ATOM      3  N   TYR A   2     -36.517  21.550   1.747  0.00  0.00    -0.298 N 
ATOM      4  C   ALA A   1     -35.581  20.633   2.207  0.00  0.00    +0.202 C 
ATOM      5  H   TYR A   2     -36.731  21.562   0.787  0.00  0.00    +0.150 HD
BRANCH   4   6
ATOM      6  CA  ALA A   1     -35.017  19.778   1.079  0.00  0.00    +0.013 C 
ATOM      7  CB  ALA A   1     -33.697  19.146   1.505  0.00  0.00    -0.015 C 
BRANCH   6   8
ATOM      8  N   ALA A   1     -35.994  18.740   0.759  0.00  0.00    +0.387 N 
ATOM      9  H1  ALA A   1     -36.794  18.821   1.387  0.00  0.00    -0.089 HD
ATOM     10  H2  ALA A   1     -35.564  17.822   0.873  0.00  0.00    -0.089 HD
ATOM     11  H3  ALA A   1     -36.306  18.853  -0.205  0.00  0.00    -0.089 HD
ENDBRANCH   6   8
ENDBRANCH   4   6
ENDBRANCH   1   3
BRANCH   1  13
ATOM     12  OXT TYR A   2     -39.516  23.172   2.329  0.00  0.00    -0.248 OA
ATOM     13  C   TYR A   2     -38.678  22.285   2.409  0.00  0.00    +0.332 C 
BRANCH  13  14
ATOM     14  O   TYR A   2     -38.970  20.965   2.289  0.00  0.00    -0.479 OA
ATOM     15  H   TYR A   2     -39.829  20.654   2.501  0.00  0.00    +0.295 HD
ENDBRANCH  13  14
ENDBRANCH   1  13
BRANCH   1  16
ATOM     16  CB  TYR A   2     -36.765  23.916   2.262  0.00  0.00    +0.057 C 
BRANCH  16  17
ATOM     17  CG  TYR A   2     -35.999  24.591   3.377  0.00  0.00    -0.020 C 
ATOM     18  CD1 TYR A   2     -36.696  25.170   4.423  0.00  0.00    -0.001 C 
ATOM     19  CD2 TYR A   2     -34.615  24.617   3.329  0.00  0.00    -0.001 C 
ATOM     20  CE1 TYR A   2     -35.990  25.792   5.453  0.00  0.00    +0.036 C 
ATOM     21  CE2 TYR A   2     -33.908  25.238   4.359  0.00  0.00    +0.036 C 
ATOM     22  CZ  TYR A   2     -34.596  25.827   5.420  0.00  0.00    +0.134 C 
BRANCH  22  23
ATOM     23  OH  TYR A   2     -33.907  26.435   6.424  0.00  0.00    -0.506 OA
ATOM     24  HH  TYR A   2     -34.358  26.726   7.192  0.00  0.00    +0.292 HD
ENDBRANCH  22  23
ENDBRANCH  16  17
ENDBRANCH   1  16
TORSDOF 8
ENDMDL
MODEL 7
REMARK VINA RESULT:      -5.4      2.252      4.021
REMARK  Name = 572319
REMARK  8 active torsions:
REMARK  status: ('A' for Active; 'I' for Inactive)
REMARK    1  A    between atoms: CA_1  and  N_3
REMARK    2  A    between atoms: CA_1  and  C_13
REMARK    3  A    between atoms: CA_1  and  CB_16
REMARK    4  A    between atoms: C_4  and  CA_6
REMARK    5  A    between atoms: CA_6  and  N_8
REMARK    6  A    between atoms: C_13  and  O_14
REMARK    7  A    between atoms: CB_16  and  CG_17
REMARK    8  A    between atoms: CZ_22  and  OH_23
REMARK                            x       y       z     vdW  Elec       q    Type
REMARK                         _______ _______ _______ _____ _____    ______ ____
ROOT
ATOM      1  CA  TYR A   2     -37.446  24.869   3.595  0.00  0.00    +0.176 C 
ENDROOT
BRANCH   1   3
ATOM      2  O   ALA A   1     -36.254  22.410   4.501  0.00  0.00    -0.277 OA
ATOM      3  N   TYR A   2     -37.174  23.693   2.801  0.00  0.00    -0.298 N 
ATOM      4  C   ALA A   1     -36.593  22.547   3.328  0.00  0.00    +0.202 C 
ATOM      5  H   TYR A   2     -37.410  23.705   1.846  0.00  0.00    +0.150 HD
BRANCH   4   6
ATOM      6  CA  ALA A   1     -36.407  21.464   2.272  0.00  0.00    +0.013 C 
ATOM      7  CB  ALA A   1     -35.185  20.614   2.599  0.00  0.00    -0.015 C 
BRANCH   6   8
ATOM      8  N   ALA A   1     -37.609  20.635   2.250  0.00  0.00    +0.387 N 
ATOM      9  H1  ALA A   1     -37.616  20.070   1.400  0.00  0.00    -0.089 HD
ATOM     10  H2  ALA A   1     -38.435  21.232   2.268  0.00  0.00    -0.089 HD
ATOM     11  H3  ALA A   1     -37.614  20.021   3.065  0.00  0.00    -0.089 HD
ENDBRANCH   6   8
ENDBRANCH   4   6
ENDBRANCH   1   3
BRANCH   1  13
ATOM     12  OXT TYR A   2     -39.825  24.383   3.330  0.00  0.00    -0.248 OA
ATOM     13  C   TYR A   2     -38.914  25.195   3.407  0.00  0.00    +0.332 C 
BRANCH  13  14
ATOM     14  O   TYR A   2     -39.103  26.538   3.361  0.00  0.00    -0.479 OA
ATOM     15  H   TYR A   2     -38.390  27.118   3.541  0.00  0.00    +0.295 HD
ENDBRANCH  13  14
ENDBRANCH   1  13
BRANCH   1  16
ATOM     16  CB  TYR A   2     -36.554  26.026   3.122  0.00  0.00    +0.057 C 
BRANCH  16  17
ATOM     17  CG  TYR A   2     -35.394  26.286   4.057  0.00  0.00    -0.020 C 
ATOM     18  CD1 TYR A   2     -34.378  27.136   3.654  0.00  0.00    -0.001 C 
ATOM     19  CD2 TYR A   2     -35.372  25.669   5.296  0.00  0.00    -0.001 C 
ATOM     20  CE1 TYR A   2     -33.309  27.377   4.516  0.00  0.00    +0.036 C 
ATOM     21  CE2 TYR A   2     -34.302  25.910   6.159  0.00  0.00    +0.036 C 
ATOM     22  CZ  TYR A   2     -33.270  26.764   5.768  0.00  0.00    +0.134 C 
BRANCH  22  23
ATOM     23  OH  TYR A   2     -32.226  26.998   6.609  0.00  0.00    -0.506 OA
ATOM     24  HH  TYR A   2     -32.149  27.826   7.040  0.00  0.00    +0.292 HD
ENDBRANCH  22  23
ENDBRANCH  16  17
ENDBRANCH   1  16
TORSDOF 8
ENDMDL
MODEL 8
REMARK VINA RESULT:      -5.4      2.883      5.552
REMARK  Name = 572319
REMARK  8 active torsions:
REMARK  status: ('A' for Active; 'I' for Inactive)
REMARK    1  A    between atoms: CA_1  and  N_3
REMARK    2  A    between atoms: CA_1  and  C_13
REMARK    3  A    between atoms: CA_1  and  CB_16
REMARK    4  A    between atoms: C_4  and  CA_6
REMARK    5  A    between atoms: CA_6  and  N_8
REMARK    6  A    between atoms: C_13  and  O_14
REMARK    7  A    between atoms: CB_16  and  CG_17
REMARK    8  A    between atoms: CZ_22  and  OH_23
REMARK                            x       y       z     vdW  Elec       q    Type
REMARK                         _______ _______ _______ _____ _____    ______ ____
ROOT
ATOM      1  CA  TYR A   2     -35.856  21.402   1.911  0.00  0.00    +0.176 C 
ENDROOT
BRANCH   1   3
ATOM      2  O   ALA A   1     -34.882  23.940   2.858  0.00  0.00    -0.277 OA
ATOM      3  N   TYR A   2     -35.692  21.808   3.287  0.00  0.00    -0.298 N 
ATOM      4  C   ALA A   1     -35.213  23.060   3.650  0.00  0.00    +0.202 C 
ATOM      5  H   TYR A   2     -35.931  21.172   3.998  0.00  0.00    +0.150 HD
BRANCH   4   6
ATOM      6  CA  ALA A   1     -35.128  23.223   5.162  0.00  0.00    +0.013 C 
ATOM      7  CB  ALA A   1     -35.590  24.617   5.570  0.00  0.00    -0.015 C 
BRANCH   6   8
ATOM      8  N   ALA A   1     -35.978  22.209   5.781  0.00  0.00    +0.387 N 
ATOM      9  H1  ALA A   1     -36.007  22.360   6.790  0.00  0.00    -0.089 HD
ATOM     10  H2  ALA A   1     -35.598  21.282   5.587  0.00  0.00    -0.089 HD
ATOM     11  H3  ALA A   1     -36.921  22.277   5.400  0.00  0.00    -0.089 HD
ENDBRANCH   6   8
ENDBRANCH   4   6
ENDBRANCH   1   3
BRANCH   1  13
ATOM     12  OXT TYR A   2     -37.790  22.390   0.795  0.00  0.00    -0.248 OA
ATOM     13  C   TYR A   2     -37.324  21.573   1.575  0.00  0.00    +0.332 C 
BRANCH  13  14
ATOM     14  O   TYR A   2     -38.076  20.663   2.245  0.00  0.00    -0.479 OA
ATOM     15  H   TYR A   2     -37.902  19.748   2.148  0.00  0.00    +0.295 HD
ENDBRANCH  13  14
ENDBRANCH   1  13
BRANCH   1  16
ATOM     16  CB  TYR A   2     -35.415  19.940   1.752  0.00  0.00    +0.057 C 
BRANCH  16  17
ATOM     17  CG  TYR A   2     -34.011  19.811   1.206  0.00  0.00    -0.020 C 
ATOM     18  CD1 TYR A   2     -33.273  18.676   1.497  0.00  0.00    -0.001 C 
ATOM     19  CD2 TYR A   2     -33.491  20.831   0.427  0.00  0.00    -0.001 C 
ATOM     20  CE1 TYR A   2     -31.978  18.557   0.993  0.00  0.00    +0.036 C 
ATOM     21  CE2 TYR A   2     -32.196  20.712  -0.077  0.00  0.00    +0.036 C 
ATOM     22  CZ  TYR A   2     -31.439  19.575   0.206  0.00  0.00    +0.134 C 
BRANCH  22  23
ATOM     23  OH  TYR A   2     -30.175  19.459  -0.284  0.00  0.00    -0.506 OA
ATOM     24  HH  TYR A   2     -29.883  18.641  -0.635  0.00  0.00    +0.292 HD
ENDBRANCH  22  23
ENDBRANCH  16  17
ENDBRANCH   1  16
TORSDOF 8
ENDMDL
MODEL 9
REMARK VINA RESULT:      -5.3      3.422      6.441
REMARK  Name = 572319
REMARK  8 active torsions:
REMARK  status: ('A' for Active; 'I' for Inactive)
REMARK    1  A    between atoms: CA_1  and  N_3
REMARK    2  A    between atoms: CA_1  and  C_13
REMARK    3  A    between atoms: CA_1  and  CB_16
REMARK    4  A    between atoms: C_4  and  CA_6
REMARK    5  A    between atoms: CA_6  and  N_8
REMARK    6  A    between atoms: C_13  and  O_14
REMARK    7  A    between atoms: CB_16  and  CG_17
REMARK    8  A    between atoms: CZ_22  and  OH_23
REMARK                            x       y       z     vdW  Elec       q    Type
REMARK                         _______ _______ _______ _____ _____    ______ ____
ROOT
ATOM      1  CA  TYR A   2     -35.649  26.622   3.123  0.00  0.00    +0.176 C 
ENDROOT
BRANCH   1   3
ATOM      2  O   ALA A   1     -32.900  26.051   3.760  0.00  0.00    -0.277 OA
ATOM      3  N   TYR A   2     -34.637  27.572   3.521  0.00  0.00    -0.298 N 
ATOM      4  C   ALA A   1     -33.330  27.202   3.810  0.00  0.00    +0.202 C 
ATOM      5  H   TYR A   2     -34.883  28.522   3.591  0.00  0.00    +0.150 HD
BRANCH   4   6
ATOM      6  CA  ALA A   1     -32.474  28.396   4.215  0.00  0.00    +0.013 C 
ATOM      7  CB  ALA A   1     -33.047  29.679   3.625  0.00  0.00    -0.015 C 
BRANCH   6   8
ATOM      8  N   ALA A   1     -32.457  28.474   5.674  0.00  0.00    +0.387 N 
ATOM      9  H1  ALA A   1     -32.380  29.450   5.960  0.00  0.00    -0.089 HD
ATOM     10  H2  ALA A   1     -31.660  27.949   6.033  0.00  0.00    -0.089 HD
ATOM     11  H3  ALA A   1     -33.321  28.079   6.045  0.00  0.00    -0.089 HD
ENDBRANCH   6   8
ENDBRANCH   4   6
ENDBRANCH   1   3
BRANCH   1  13
ATOM     12  OXT TYR A   2     -37.663  26.916   1.771  0.00  0.00    -0.248 OA
ATOM     13  C   TYR A   2     -36.632  27.372   2.245  0.00  0.00    +0.332 C 
BRANCH  13  14
ATOM     14  O   TYR A   2     -36.229  28.656   2.066  0.00  0.00    -0.479 OA
ATOM     15  H   TYR A   2     -36.764  29.362   2.370  0.00  0.00    +0.295 HD
ENDBRANCH  13  14
ENDBRANCH   1  13
BRANCH   1  16
ATOM     16  CB  TYR A   2     -36.340  26.054   4.371  0.00  0.00    +0.057 C 
BRANCH  16  17
ATOM     17  CG  TYR A   2     -36.003  24.600   4.611  0.00  0.00    -0.020 C 
ATOM     18  CD1 TYR A   2     -35.453  24.224   5.825  0.00  0.00    -0.001 C 
ATOM     19  CD2 TYR A   2     -36.250  23.673   3.612  0.00  0.00    -0.001 C 
ATOM     20  CE1 TYR A   2     -35.142  22.883   6.047  0.00  0.00    +0.036 C 
ATOM     21  CE2 TYR A   2     -35.940  22.331   3.834  0.00  0.00    +0.036 C 
ATOM     22  CZ  TYR A   2     -35.385  21.936   5.052  0.00  0.00    +0.134 C 
BRANCH  22  23
ATOM     23  OH  TYR A   2     -35.081  20.628   5.269  0.00  0.00    -0.506 OA
ATOM     24  HH  TYR A   2     -34.193  20.373   5.425  0.00  0.00    +0.292 HD
ENDBRANCH  22  23
ENDBRANCH  16  17
ENDBRANCH   1  16
TORSDOF 8
ENDMDL
