MODEL 1
REMARK VINA RESULT:      -6.7      0.000      0.000
REMARK  Name = 59604787
REMARK  3 active torsions:
REMARK  status: ('A' for Active; 'I' for Inactive)
REMARK    1  A    between atoms: C_9  and  C_24
REMARK    2  A    between atoms: C_11  and  C_16
REMARK    3  A    between atoms: C_26  and  S_31
REMARK                            x       y       z     vdW  Elec       q    Type
REMARK                         _______ _______ _______ _____ _____    ______ ____
ROOT
ATOM      1  O   UNL     1     -31.205  29.366   6.240  0.00  0.00    -0.474 OA
ATOM      2  O   UNL     1     -33.379  32.382   3.085  0.00  0.00    -0.270 OA
ATOM      3  N   UNL     1     -32.045  30.517   3.569  0.00  0.00    -0.268 N 
ATOM      4  C   UNL     1     -31.716  29.100   3.363  0.00  0.00    +0.124 C 
ATOM      5  C   UNL     1     -31.302  31.196   4.632  0.00  0.00    +0.141 C 
ATOM      6  C   UNL     1     -32.330  28.214   4.418  0.00  0.00    +0.032 C 
ATOM      7  C   UNL     1     -31.726  30.680   6.002  0.00  0.00    +0.227 C 
ATOM      8  C   UNL     1     -32.050  28.385   5.783  0.00  0.00    +0.136 C 
ATOM      9  C   UNL     1     -33.087  31.197   2.927  0.00  0.00    +0.249 C 
ATOM     10  C   UNL     1     -33.170  27.158   4.037  0.00  0.00    +0.000 C 
ATOM     11  C   UNL     1     -33.712  26.296   4.993  0.00  0.00    +0.001 C 
ATOM     12  C   UNL     1     -32.570  27.507   6.738  0.00  0.00    +0.037 C 
ATOM     13  C   UNL     1     -33.410  26.468   6.341  0.00  0.00    +0.003 C 
ENDROOT
BRANCH  11  16
ATOM     14  N   UNL     1     -36.347  23.658   5.134  0.00  0.00    -0.230 NA
ATOM     15  N   UNL     1     -37.114  22.123   3.482  0.00  0.00    -0.343 N 
ATOM     16  C   UNL     1     -34.581  25.215   4.580  0.00  0.00    +0.019 C 
ATOM     17  C   UNL     1     -34.516  24.694   3.293  0.00  0.00    +0.004 C 
ATOM     18  C   UNL     1     -35.506  24.667   5.455  0.00  0.00    +0.100 C 
ATOM     19  C   UNL     1     -35.365  23.656   2.924  0.00  0.00    +0.034 C 
ATOM     20  C   UNL     1     -36.254  23.178   3.873  0.00  0.00    +0.125 C 
ATOM     21  H   UNL     1     -37.763  21.752   4.124  0.00  0.00    +0.144 HD
ATOM     22  H   UNL     1     -37.065  21.759   2.568  0.00  0.00    +0.144 HD
ENDBRANCH  11  16
BRANCH   9  24
ATOM     23  F   UNL     1     -34.042  29.456  -1.511  0.00  0.00    -0.203 F 
ATOM     24  C   UNL     1     -33.928  30.445   1.990  0.00  0.00    +0.052 C 
ATOM     25  C   UNL     1     -33.570  30.308   0.648  0.00  0.00    +0.011 C 
ATOM     26  C   UNL     1     -35.562  29.002   0.249  0.00  0.00    +0.133 C 
ATOM     27  C   UNL     1     -35.103  29.859   2.461  0.00  0.00    +0.006 C 
ATOM     28  C   UNL     1     -34.387  29.587  -0.221  0.00  0.00    +0.153 C 
ATOM     29  C   UNL     1     -35.920  29.138   1.590  0.00  0.00    +0.021 C 
ATOM     30  C   UNL     1     -32.315  30.926   0.121  0.00  0.00    +0.034 C 
BRANCH  26  31
ATOM     31  S   UNL     1     -36.589  28.097  -0.836  0.00  0.00    +0.013 S 
ATOM     32  O   UNL     1     -37.136  29.006  -1.835  0.00  0.00    -0.169 OA
ATOM     33  O   UNL     1     -35.857  26.912  -1.260  0.00  0.00    -0.169 OA
ATOM     34  C   UNL     1     -37.948  27.566   0.181  0.00  0.00    +0.182 C 
ENDBRANCH  26  31
ENDBRANCH   9  24
TORSDOF 3
ENDMDL
MODEL 2
REMARK VINA RESULT:      -6.6      4.263      7.436
REMARK  Name = 59604787
REMARK  3 active torsions:
REMARK  status: ('A' for Active; 'I' for Inactive)
REMARK    1  A    between atoms: C_9  and  C_24
REMARK    2  A    between atoms: C_11  and  C_16
REMARK    3  A    between atoms: C_26  and  S_31
REMARK                            x       y       z     vdW  Elec       q    Type
REMARK                         _______ _______ _______ _____ _____    ______ ____
ROOT
ATOM      1  O   UNL     1     -39.019  21.778   2.134  0.00  0.00    -0.474 OA
ATOM      2  O   UNL     1     -38.296  26.596   2.328  0.00  0.00    -0.270 OA
ATOM      3  N   UNL     1     -37.885  24.417   3.087  0.00  0.00    -0.268 N 
ATOM      4  C   UNL     1     -36.939  23.359   3.467  0.00  0.00    +0.124 C 
ATOM      5  C   UNL     1     -39.294  24.025   3.039  0.00  0.00    +0.141 C 
ATOM      6  C   UNL     1     -36.677  22.397   2.335  0.00  0.00    +0.032 C 
ATOM      7  C   UNL     1     -39.553  23.082   1.870  0.00  0.00    +0.227 C 
ATOM      8  C   UNL     1     -37.712  21.664   1.733  0.00  0.00    +0.136 C 
ATOM      9  C   UNL     1     -37.521  25.697   2.650  0.00  0.00    +0.249 C 
ATOM     10  C   UNL     1     -35.364  22.186   1.892  0.00  0.00    +0.000 C 
ATOM     11  C   UNL     1     -35.092  21.264   0.877  0.00  0.00    +0.001 C 
ATOM     12  C   UNL     1     -37.438  20.723   0.737  0.00  0.00    +0.037 C 
ATOM     13  C   UNL     1     -36.128  20.532   0.303  0.00  0.00    +0.003 C 
ENDROOT
BRANCH  11  16
ATOM     14  N   UNL     1     -31.796  21.918  -0.743  0.00  0.00    -0.230 NA
ATOM     15  N   UNL     1     -29.830  20.581  -0.887  0.00  0.00    -0.343 N 
ATOM     16  C   UNL     1     -33.731  21.064   0.430  0.00  0.00    +0.019 C 
ATOM     17  C   UNL     1     -33.048  19.888   0.716  0.00  0.00    +0.004 C 
ATOM     18  C   UNL     1     -33.066  22.041  -0.296  0.00  0.00    +0.100 C 
ATOM     19  C   UNL     1     -31.739  19.725   0.273  0.00  0.00    +0.034 C 
ATOM     20  C   UNL     1     -31.165  20.760  -0.446  0.00  0.00    +0.125 C 
ATOM     21  H   UNL     1     -29.381  21.291  -1.402  0.00  0.00    +0.144 HD
ATOM     22  H   UNL     1     -29.351  19.746  -0.680  0.00  0.00    +0.144 HD
ENDBRANCH  11  16
BRANCH   9  24
ATOM     23  F   UNL     1     -33.235  26.844   4.639  0.00  0.00    -0.203 F 
ATOM     24  C   UNL     1     -36.092  26.009   2.544  0.00  0.00    +0.052 C 
ATOM     25  C   UNL     1     -35.327  26.285   3.678  0.00  0.00    +0.011 C 
ATOM     26  C   UNL     1     -33.376  26.594   2.287  0.00  0.00    +0.133 C 
ATOM     27  C   UNL     1     -35.498  26.025   1.282  0.00  0.00    +0.006 C 
ATOM     28  C   UNL     1     -33.970  26.578   3.549  0.00  0.00    +0.153 C 
ATOM     29  C   UNL     1     -34.140  26.318   1.153  0.00  0.00    +0.021 C 
ATOM     30  C   UNL     1     -35.941  26.273   5.040  0.00  0.00    +0.034 C 
BRANCH  26  31
ATOM     31  S   UNL     1     -31.676  26.960   2.120  0.00  0.00    +0.013 S 
ATOM     32  O   UNL     1     -31.442  28.325   2.572  0.00  0.00    -0.169 OA
ATOM     33  O   UNL     1     -30.923  25.864   2.711  0.00  0.00    -0.169 OA
ATOM     34  C   UNL     1     -31.390  26.938   0.366  0.00  0.00    +0.182 C 
ENDBRANCH  26  31
ENDBRANCH   9  24
TORSDOF 3
ENDMDL
MODEL 3
REMARK VINA RESULT:      -6.6      4.025      7.076
REMARK  Name = 59604787
REMARK  3 active torsions:
REMARK  status: ('A' for Active; 'I' for Inactive)
REMARK    1  A    between atoms: C_9  and  C_24
REMARK    2  A    between atoms: C_11  and  C_16
REMARK    3  A    between atoms: C_26  and  S_31
REMARK                            x       y       z     vdW  Elec       q    Type
REMARK                         _______ _______ _______ _____ _____    ______ ____
ROOT
ATOM      1  O   UNL     1     -39.551  22.587   2.570  0.00  0.00    -0.474 OA
ATOM      2  O   UNL     1     -38.112  27.183   1.806  0.00  0.00    -0.270 OA
ATOM      3  N   UNL     1     -38.014  25.162   2.988  0.00  0.00    -0.268 N 
ATOM      4  C   UNL     1     -37.229  24.070   3.578  0.00  0.00    +0.124 C 
ATOM      5  C   UNL     1     -39.467  24.984   3.007  0.00  0.00    +0.141 C 
ATOM      6  C   UNL     1     -37.138  22.875   2.663  0.00  0.00    +0.032 C 
ATOM      7  C   UNL     1     -39.889  23.879   2.047  0.00  0.00    +0.227 C 
ATOM      8  C   UNL     1     -38.284  22.201   2.210  0.00  0.00    +0.136 C 
ATOM      9  C   UNL     1     -37.473  26.260   2.307  0.00  0.00    +0.249 C 
ATOM     10  C   UNL     1     -35.881  22.384   2.281  0.00  0.00    +0.000 C 
ATOM     11  C   UNL     1     -35.773  21.249   1.473  0.00  0.00    +0.001 C 
ATOM     12  C   UNL     1     -38.176  21.051   1.424  0.00  0.00    +0.037 C 
ATOM     13  C   UNL     1     -36.919  20.582   1.048  0.00  0.00    +0.003 C 
ENDROOT
BRANCH  11  16
ATOM     14  N   UNL     1     -32.389  21.137  -0.093  0.00  0.00    -0.230 NA
ATOM     15  N   UNL     1     -30.708  19.449  -0.066  0.00  0.00    -0.343 N 
ATOM     16  C   UNL     1     -34.467  20.762   1.086  0.00  0.00    +0.019 C 
ATOM     17  C   UNL     1     -34.021  19.508   1.488  0.00  0.00    +0.004 C 
ATOM     18  C   UNL     1     -33.620  21.531   0.303  0.00  0.00    +0.100 C 
ATOM     19  C   UNL     1     -32.761  19.066   1.100  0.00  0.00    +0.034 C 
ATOM     20  C   UNL     1     -31.991  19.912   0.318  0.00  0.00    +0.125 C 
ATOM     21  H   UNL     1     -30.125  20.017  -0.623  0.00  0.00    +0.144 HD
ATOM     22  H   UNL     1     -30.397  18.561   0.223  0.00  0.00    +0.144 HD
ENDBRANCH  11  16
BRANCH   9  24
ATOM     23  F   UNL     1     -33.394  25.400  -0.196  0.00  0.00    -0.203 F 
ATOM     24  C   UNL     1     -36.016  26.325   2.153  0.00  0.00    +0.052 C 
ATOM     25  C   UNL     1     -35.386  25.815   1.017  0.00  0.00    +0.011 C 
ATOM     26  C   UNL     1     -33.241  26.477   1.909  0.00  0.00    +0.133 C 
ATOM     27  C   UNL     1     -35.257  26.912   3.166  0.00  0.00    +0.006 C 
ATOM     28  C   UNL     1     -33.999  25.891   0.896  0.00  0.00    +0.153 C 
ATOM     29  C   UNL     1     -33.870  26.988   3.044  0.00  0.00    +0.021 C 
ATOM     30  C   UNL     1     -36.178  25.183  -0.081  0.00  0.00    +0.034 C 
BRANCH  26  31
ATOM     31  S   UNL     1     -31.503  26.575   1.761  0.00  0.00    +0.013 S 
ATOM     32  O   UNL     1     -30.928  26.767   3.086  0.00  0.00    -0.169 OA
ATOM     33  O   UNL     1     -31.061  25.460   0.936  0.00  0.00    -0.169 OA
ATOM     34  C   UNL     1     -31.220  28.076   0.851  0.00  0.00    +0.182 C 
ENDBRANCH  26  31
ENDBRANCH   9  24
TORSDOF 3
ENDMDL
MODEL 4
REMARK VINA RESULT:      -6.5      2.509      5.585
REMARK  Name = 59604787
REMARK  3 active torsions:
REMARK  status: ('A' for Active; 'I' for Inactive)
REMARK    1  A    between atoms: C_9  and  C_24
REMARK    2  A    between atoms: C_11  and  C_16
REMARK    3  A    between atoms: C_26  and  S_31
REMARK                            x       y       z     vdW  Elec       q    Type
REMARK                         _______ _______ _______ _____ _____    ______ ____
ROOT
ATOM      1  O   UNL     1     -37.064  28.763  -0.817  0.00  0.00    -0.474 OA
ATOM      2  O   UNL     1     -32.788  30.898   0.147  0.00  0.00    -0.270 OA
ATOM      3  N   UNL     1     -34.988  30.336   0.726  0.00  0.00    -0.268 N 
ATOM      4  C   UNL     1     -35.950  29.792   1.694  0.00  0.00    +0.124 C 
ATOM      5  C   UNL     1     -35.524  30.640  -0.602  0.00  0.00    +0.141 C 
ATOM      6  C   UNL     1     -36.256  28.337   1.436  0.00  0.00    +0.032 C 
ATOM      7  C   UNL     1     -35.875  29.360  -1.351  0.00  0.00    +0.227 C 
ATOM      8  C   UNL     1     -36.790  27.899   0.214  0.00  0.00    +0.136 C 
ATOM      9  C   UNL     1     -33.609  30.447   0.944  0.00  0.00    +0.249 C 
ATOM     10  C   UNL     1     -36.049  27.392   2.451  0.00  0.00    +0.000 C 
ATOM     11  C   UNL     1     -36.371  26.048   2.251  0.00  0.00    +0.001 C 
ATOM     12  C   UNL     1     -37.137  26.559   0.022  0.00  0.00    +0.037 C 
ATOM     13  C   UNL     1     -36.917  25.632   1.039  0.00  0.00    +0.003 C 
ENDROOT
BRANCH  11  16
ATOM     14  N   UNL     1     -36.753  22.999   4.367  0.00  0.00    -0.230 NA
ATOM     15  N   UNL     1     -35.565  22.277   6.301  0.00  0.00    -0.343 N 
ATOM     16  C   UNL     1     -36.145  25.086   3.309  0.00  0.00    +0.019 C 
ATOM     17  C   UNL     1     -35.151  25.287   4.259  0.00  0.00    +0.004 C 
ATOM     18  C   UNL     1     -36.912  23.936   3.405  0.00  0.00    +0.100 C 
ATOM     19  C   UNL     1     -34.956  24.346   5.264  0.00  0.00    +0.034 C 
ATOM     20  C   UNL     1     -35.777  23.229   5.273  0.00  0.00    +0.125 C 
ATOM     21  H   UNL     1     -36.125  21.468   6.347  0.00  0.00    +0.144 HD
ATOM     22  H   UNL     1     -34.858  22.424   6.971  0.00  0.00    +0.144 HD
ENDBRANCH  11  16
BRANCH   9  24
ATOM     23  F   UNL     1     -31.610  27.000   3.731  0.00  0.00    -0.203 F 
ATOM     24  C   UNL     1     -33.073  29.973   2.224  0.00  0.00    +0.052 C 
ATOM     25  C   UNL     1     -32.585  28.674   2.366  0.00  0.00    +0.011 C 
ATOM     26  C   UNL     1     -32.063  29.123   4.681  0.00  0.00    +0.133 C 
ATOM     27  C   UNL     1     -33.056  30.847   3.311  0.00  0.00    +0.006 C 
ATOM     28  C   UNL     1     -32.080  28.250   3.594  0.00  0.00    +0.153 C 
ATOM     29  C   UNL     1     -32.551  30.422   4.540  0.00  0.00    +0.021 C 
ATOM     30  C   UNL     1     -32.592  27.720   1.215  0.00  0.00    +0.034 C 
BRANCH  26  31
ATOM     31  S   UNL     1     -31.431  28.596   6.222  0.00  0.00    +0.013 S 
ATOM     32  O   UNL     1     -30.137  27.961   6.010  0.00  0.00    -0.169 OA
ATOM     33  O   UNL     1     -31.546  29.707   7.156  0.00  0.00    -0.169 OA
ATOM     34  C   UNL     1     -32.554  27.321   6.747  0.00  0.00    +0.182 C 
ENDBRANCH  26  31
ENDBRANCH   9  24
TORSDOF 3
ENDMDL
MODEL 5
REMARK VINA RESULT:      -6.5      2.455      5.999
REMARK  Name = 59604787
REMARK  3 active torsions:
REMARK  status: ('A' for Active; 'I' for Inactive)
REMARK    1  A    between atoms: C_9  and  C_24
REMARK    2  A    between atoms: C_11  and  C_16
REMARK    3  A    between atoms: C_26  and  S_31
REMARK                            x       y       z     vdW  Elec       q    Type
REMARK                         _______ _______ _______ _____ _____    ______ ____
ROOT
ATOM      1  O   UNL     1     -37.436  22.875   3.617  0.00  0.00    -0.474 OA
ATOM      2  O   UNL     1     -37.570  25.110  -0.715  0.00  0.00    -0.270 OA
ATOM      3  N   UNL     1     -37.980  25.059   1.592  0.00  0.00    -0.268 N 
ATOM      4  C   UNL     1     -37.883  25.689   2.916  0.00  0.00    +0.124 C 
ATOM      5  C   UNL     1     -38.491  23.688   1.575  0.00  0.00    +0.141 C 
ATOM      6  C   UNL     1     -36.695  25.190   3.699  0.00  0.00    +0.032 C 
ATOM      7  C   UNL     1     -37.482  22.726   2.192  0.00  0.00    +0.227 C 
ATOM      8  C   UNL     1     -36.531  23.830   4.007  0.00  0.00    +0.136 C 
ATOM      9  C   UNL     1     -37.499  25.620   0.402  0.00  0.00    +0.249 C 
ATOM     10  C   UNL     1     -35.743  26.102   4.176  0.00  0.00    +0.000 C 
ATOM     11  C   UNL     1     -34.659  25.667   4.943  0.00  0.00    +0.001 C 
ATOM     12  C   UNL     1     -35.462  23.398   4.798  0.00  0.00    +0.037 C 
ATOM     13  C   UNL     1     -34.521  24.318   5.257  0.00  0.00    +0.003 C 
ENDROOT
BRANCH  11  16
ATOM     14  N   UNL     1     -32.219  28.489   4.953  0.00  0.00    -0.230 NA
ATOM     15  N   UNL     1     -30.892  29.404   6.706  0.00  0.00    -0.343 N 
ATOM     16  C   UNL     1     -33.685  26.624   5.422  0.00  0.00    +0.019 C 
ATOM     17  C   UNL     1     -33.274  26.625   6.750  0.00  0.00    +0.004 C 
ATOM     18  C   UNL     1     -33.132  27.568   4.571  0.00  0.00    +0.100 C 
ATOM     19  C   UNL     1     -32.336  27.557   7.181  0.00  0.00    +0.034 C 
ATOM     20  C   UNL     1     -31.844  28.459   6.251  0.00  0.00    +0.125 C 
ATOM     21  H   UNL     1     -30.515  30.065   6.080  0.00  0.00    +0.144 HD
ATOM     22  H   UNL     1     -30.606  29.402   7.649  0.00  0.00    +0.144 HD
ENDBRANCH  11  16
BRANCH   9  24
ATOM     23  F   UNL     1     -33.518  28.373   0.864  0.00  0.00    -0.203 F 
ATOM     24  C   UNL     1     -36.835  26.926   0.475  0.00  0.00    +0.052 C 
ATOM     25  C   UNL     1     -35.453  27.025   0.640  0.00  0.00    +0.011 C 
ATOM     26  C   UNL     1     -35.621  29.434   0.605  0.00  0.00    +0.133 C 
ATOM     27  C   UNL     1     -37.609  28.082   0.374  0.00  0.00    +0.006 C 
ATOM     28  C   UNL     1     -34.847  28.279   0.705  0.00  0.00    +0.153 C 
ATOM     29  C   UNL     1     -37.002  29.336   0.439  0.00  0.00    +0.021 C 
ATOM     30  C   UNL     1     -34.603  25.800   0.750  0.00  0.00    +0.034 C 
BRANCH  26  31
ATOM     31  S   UNL     1     -34.866  31.007   0.685  0.00  0.00    +0.013 S 
ATOM     32  O   UNL     1     -34.293  31.188   2.013  0.00  0.00    -0.169 OA
ATOM     33  O   UNL     1     -34.024  31.160  -0.492  0.00  0.00    -0.169 OA
ATOM     34  C   UNL     1     -36.218  32.154   0.545  0.00  0.00    +0.182 C 
ENDBRANCH  26  31
ENDBRANCH   9  24
TORSDOF 3
ENDMDL
MODEL 6
REMARK VINA RESULT:      -6.5      9.514     12.653
REMARK  Name = 59604787
REMARK  3 active torsions:
REMARK  status: ('A' for Active; 'I' for Inactive)
REMARK    1  A    between atoms: C_9  and  C_24
REMARK    2  A    between atoms: C_11  and  C_16
REMARK    3  A    between atoms: C_26  and  S_31
REMARK                            x       y       z     vdW  Elec       q    Type
REMARK                         _______ _______ _______ _____ _____    ______ ____
ROOT
ATOM      1  O   UNL     1     -38.778  33.443   1.753  0.00  0.00    -0.474 OA
ATOM      2  O   UNL     1     -42.086  34.240  -1.739  0.00  0.00    -0.270 OA
ATOM      3  N   UNL     1     -40.979  34.859   0.231  0.00  0.00    -0.268 N 
ATOM      4  C   UNL     1     -40.264  35.866   1.027  0.00  0.00    +0.124 C 
ATOM      5  C   UNL     1     -41.020  33.510   0.799  0.00  0.00    +0.141 C 
ATOM      6  C   UNL     1     -38.767  35.725   0.912  0.00  0.00    +0.032 C 
ATOM      7  C   UNL     1     -39.640  32.866   0.763  0.00  0.00    +0.227 C 
ATOM      8  C   UNL     1     -38.106  34.541   1.275  0.00  0.00    +0.136 C 
ATOM      9  C   UNL     1     -41.486  35.069  -1.057  0.00  0.00    +0.249 C 
ATOM     10  C   UNL     1     -37.997  36.812   0.476  0.00  0.00    +0.000 C 
ATOM     11  C   UNL     1     -36.605  36.719   0.407  0.00  0.00    +0.001 C 
ATOM     12  C   UNL     1     -36.712  34.456   1.232  0.00  0.00    +0.037 C 
ATOM     13  C   UNL     1     -35.963  35.544   0.788  0.00  0.00    +0.003 C 
ENDROOT
BRANCH  11  16
ATOM     14  N   UNL     1     -35.109  39.255  -1.884  0.00  0.00    -0.230 NA
ATOM     15  N   UNL     1     -33.638  41.079  -1.454  0.00  0.00    -0.343 N 
ATOM     16  C   UNL     1     -35.828  37.851  -0.052  0.00  0.00    +0.019 C 
ATOM     17  C   UNL     1     -35.078  38.612   0.836  0.00  0.00    +0.004 C 
ATOM     18  C   UNL     1     -35.811  38.211  -1.390  0.00  0.00    +0.100 C 
ATOM     19  C   UNL     1     -34.341  39.695   0.366  0.00  0.00    +0.034 C 
ATOM     20  C   UNL     1     -34.391  39.972  -0.991  0.00  0.00    +0.125 C 
ATOM     21  H   UNL     1     -33.644  41.313  -2.411  0.00  0.00    +0.144 HD
ATOM     22  H   UNL     1     -33.110  41.616  -0.820  0.00  0.00    +0.144 HD
ENDBRANCH  11  16
BRANCH   9  24
ATOM     23  F   UNL     1     -42.835  39.669  -1.875  0.00  0.00    -0.203 F 
ATOM     24  C   UNL     1     -41.279  36.384  -1.673  0.00  0.00    +0.052 C 
ATOM     25  C   UNL     1     -42.185  37.427  -1.472  0.00  0.00    +0.011 C 
ATOM     26  C   UNL     1     -40.838  38.867  -2.867  0.00  0.00    +0.133 C 
ATOM     27  C   UNL     1     -40.153  36.584  -2.471  0.00  0.00    +0.006 C 
ATOM     28  C   UNL     1     -41.964  38.667  -2.068  0.00  0.00    +0.153 C 
ATOM     29  C   UNL     1     -39.932  37.825  -3.068  0.00  0.00    +0.021 C 
ATOM     30  C   UNL     1     -43.398  37.236  -0.620  0.00  0.00    +0.034 C 
BRANCH  26  31
ATOM     31  S   UNL     1     -40.556  40.419  -3.617  0.00  0.00    +0.013 S 
ATOM     32  O   UNL     1     -41.609  40.669  -4.593  0.00  0.00    -0.169 OA
ATOM     33  O   UNL     1     -40.307  41.388  -2.559  0.00  0.00    -0.169 OA
ATOM     34  C   UNL     1     -39.045  40.202  -4.528  0.00  0.00    +0.182 C 
ENDBRANCH  26  31
ENDBRANCH   9  24
TORSDOF 3
ENDMDL
MODEL 7
REMARK VINA RESULT:      -6.4      3.532      6.059
REMARK  Name = 59604787
REMARK  3 active torsions:
REMARK  status: ('A' for Active; 'I' for Inactive)
REMARK    1  A    between atoms: C_9  and  C_24
REMARK    2  A    between atoms: C_11  and  C_16
REMARK    3  A    between atoms: C_26  and  S_31
REMARK                            x       y       z     vdW  Elec       q    Type
REMARK                         _______ _______ _______ _____ _____    ______ ____
ROOT
ATOM      1  O   UNL     1     -31.321  32.236   3.421  0.00  0.00    -0.474 OA
ATOM      2  O   UNL     1     -30.899  27.388   3.727  0.00  0.00    -0.270 OA
ATOM      3  N   UNL     1     -31.858  29.420   4.393  0.00  0.00    -0.268 N 
ATOM      4  C   UNL     1     -33.049  30.230   4.685  0.00  0.00    +0.124 C 
ATOM      5  C   UNL     1     -30.581  30.135   4.411  0.00  0.00    +0.141 C 
ATOM      6  C   UNL     1     -33.459  31.082   3.510  0.00  0.00    +0.032 C 
ATOM      7  C   UNL     1     -30.480  31.091   3.229  0.00  0.00    +0.227 C 
ATOM      8  C   UNL     1     -32.591  32.029   2.944  0.00  0.00    +0.136 C 
ATOM      9  C   UNL     1     -31.882  28.083   3.977  0.00  0.00    +0.249 C 
ATOM     10  C   UNL     1     -34.755  30.968   2.988  0.00  0.00    +0.000 C 
ATOM     11  C   UNL     1     -35.173  31.781   1.931  0.00  0.00    +0.001 C 
ATOM     12  C   UNL     1     -33.017  32.861   1.905  0.00  0.00    +0.037 C 
ATOM     13  C   UNL     1     -34.306  32.728   1.393  0.00  0.00    +0.003 C 
ENDROOT
BRANCH  11  16
ATOM     14  N   UNL     1     -38.839  32.301   1.476  0.00  0.00    -0.230 NA
ATOM     15  N   UNL     1     -40.381  31.322  -0.054  0.00  0.00    -0.343 N 
ATOM     16  C   UNL     1     -36.513  31.644   1.402  0.00  0.00    +0.019 C 
ATOM     17  C   UNL     1     -36.785  30.773   0.354  0.00  0.00    +0.004 C 
ATOM     18  C   UNL     1     -37.566  32.380   1.924  0.00  0.00    +0.100 C 
ATOM     19  C   UNL     1     -38.082  30.663  -0.134  0.00  0.00    +0.034 C 
ATOM     20  C   UNL     1     -39.064  31.442   0.456  0.00  0.00    +0.125 C 
ATOM     21  H   UNL     1     -41.111  31.856   0.336  0.00  0.00    +0.144 HD
ATOM     22  H   UNL     1     -40.567  30.704  -0.797  0.00  0.00    +0.144 HD
ENDBRANCH  11  16
BRANCH   9  24
ATOM     23  F   UNL     1     -35.719  25.649   5.709  0.00  0.00    -0.203 F 
ATOM     24  C   UNL     1     -33.188  27.439   3.801  0.00  0.00    +0.052 C 
ATOM     25  C   UNL     1     -33.846  26.835   4.873  0.00  0.00    +0.011 C 
ATOM     26  C   UNL     1     -35.672  26.230   3.412  0.00  0.00    +0.133 C 
ATOM     27  C   UNL     1     -33.774  27.439   2.535  0.00  0.00    +0.006 C 
ATOM     28  C   UNL     1     -35.087  26.231   4.678  0.00  0.00    +0.153 C 
ATOM     29  C   UNL     1     -35.015  26.834   2.340  0.00  0.00    +0.021 C 
ATOM     30  C   UNL     1     -33.239  26.823   6.238  0.00  0.00    +0.034 C 
BRANCH  26  31
ATOM     31  S   UNL     1     -37.227  25.475   3.163  0.00  0.00    +0.013 S 
ATOM     32  O   UNL     1     -37.526  24.622   4.306  0.00  0.00    -0.169 OA
ATOM     33  O   UNL     1     -38.170  26.511   2.769  0.00  0.00    -0.169 OA
ATOM     34  C   UNL     1     -36.979  24.401   1.767  0.00  0.00    +0.182 C 
ENDBRANCH  26  31
ENDBRANCH   9  24
TORSDOF 3
ENDMDL
MODEL 8
REMARK VINA RESULT:      -6.3      5.064      8.832
REMARK  Name = 59604787
REMARK  3 active torsions:
REMARK  status: ('A' for Active; 'I' for Inactive)
REMARK    1  A    between atoms: C_9  and  C_24
REMARK    2  A    between atoms: C_11  and  C_16
REMARK    3  A    between atoms: C_26  and  S_31
REMARK                            x       y       z     vdW  Elec       q    Type
REMARK                         _______ _______ _______ _____ _____    ______ ____
ROOT
ATOM      1  O   UNL     1     -41.041  21.553  -0.802  0.00  0.00    -0.474 OA
ATOM      2  O   UNL     1     -39.713  25.991   0.716  0.00  0.00    -0.270 OA
ATOM      3  N   UNL     1     -40.224  23.741   1.123  0.00  0.00    -0.268 N 
ATOM      4  C   UNL     1     -39.887  22.451   1.741  0.00  0.00    +0.124 C 
ATOM      5  C   UNL     1     -41.382  23.736   0.228  0.00  0.00    +0.141 C 
ATOM      6  C   UNL     1     -39.192  21.522   0.777  0.00  0.00    +0.032 C 
ATOM      7  C   UNL     1     -41.074  22.964  -1.050  0.00  0.00    +0.227 C 
ATOM      8  C   UNL     1     -39.792  21.123  -0.428  0.00  0.00    +0.136 C 
ATOM      9  C   UNL     1     -39.449  24.903   1.225  0.00  0.00    +0.249 C 
ATOM     10  C   UNL     1     -37.932  20.999   1.100  0.00  0.00    +0.000 C 
ATOM     11  C   UNL     1     -37.291  20.100   0.244  0.00  0.00    +0.001 C 
ATOM     12  C   UNL     1     -39.164  20.203  -1.272  0.00  0.00    +0.037 C 
ATOM     13  C   UNL     1     -37.908  19.700  -0.938  0.00  0.00    +0.003 C 
ENDROOT
BRANCH  11  16
ATOM     14  N   UNL     1     -34.264  17.920   0.231  0.00  0.00    -0.230 NA
ATOM     15  N   UNL     1     -32.265  18.009   1.524  0.00  0.00    -0.343 N 
ATOM     16  C   UNL     1     -35.989  19.576   0.593  0.00  0.00    +0.019 C 
ATOM     17  C   UNL     1     -35.215  20.176   1.580  0.00  0.00    +0.004 C 
ATOM     18  C   UNL     1     -35.472  18.460  -0.046  0.00  0.00    +0.100 C 
ATOM     19  C   UNL     1     -33.966  19.650   1.894  0.00  0.00    +0.034 C 
ATOM     20  C   UNL     1     -33.541  18.532   1.196  0.00  0.00    +0.125 C 
ATOM     21  H   UNL     1     -31.922  17.215   1.054  0.00  0.00    +0.144 HD
ATOM     22  H   UNL     1     -31.721  18.440   2.223  0.00  0.00    +0.144 HD
ENDBRANCH  11  16
BRANCH   9  24
ATOM     23  F   UNL     1     -34.657  24.138   1.529  0.00  0.00    -0.203 F 
ATOM     24  C   UNL     1     -38.200  24.834   1.990  0.00  0.00    +0.052 C 
ATOM     25  C   UNL     1     -36.992  24.509   1.373  0.00  0.00    +0.011 C 
ATOM     26  C   UNL     1     -35.851  24.719   3.492  0.00  0.00    +0.133 C 
ATOM     27  C   UNL     1     -38.233  25.102   3.359  0.00  0.00    +0.006 C 
ATOM     28  C   UNL     1     -35.818  24.451   2.124  0.00  0.00    +0.153 C 
ATOM     29  C   UNL     1     -37.059  25.044   4.110  0.00  0.00    +0.021 C 
ATOM     30  C   UNL     1     -36.932  24.219  -0.092  0.00  0.00    +0.034 C 
BRANCH  26  31
ATOM     31  S   UNL     1     -34.384  24.647   4.437  0.00  0.00    +0.013 S 
ATOM     32  O   UNL     1     -34.283  23.330   5.051  0.00  0.00    -0.169 OA
ATOM     33  O   UNL     1     -33.295  25.144   3.609  0.00  0.00    -0.169 OA
ATOM     34  C   UNL     1     -34.649  25.814   5.752  0.00  0.00    +0.182 C 
ENDBRANCH  26  31
ENDBRANCH   9  24
TORSDOF 3
ENDMDL
MODEL 9
REMARK VINA RESULT:      -6.3      9.607     11.654
REMARK  Name = 59604787
REMARK  3 active torsions:
REMARK  status: ('A' for Active; 'I' for Inactive)
REMARK    1  A    between atoms: C_9  and  C_24
REMARK    2  A    between atoms: C_11  and  C_16
REMARK    3  A    between atoms: C_26  and  S_31
REMARK                            x       y       z     vdW  Elec       q    Type
REMARK                         _______ _______ _______ _____ _____    ______ ____
ROOT
ATOM      1  O   UNL     1     -46.496  28.946   8.330  0.00  0.00    -0.474 OA
ATOM      2  O   UNL     1     -47.471  33.203   6.160  0.00  0.00    -0.270 OA
ATOM      3  N   UNL     1     -45.974  31.659   7.090  0.00  0.00    -0.268 N 
ATOM      4  C   UNL     1     -44.732  30.879   7.003  0.00  0.00    +0.124 C 
ATOM      5  C   UNL     1     -46.835  31.359   8.235  0.00  0.00    +0.141 C 
ATOM      6  C   UNL     1     -44.975  29.475   6.508  0.00  0.00    +0.032 C 
ATOM      7  C   UNL     1     -47.464  29.978   8.093  0.00  0.00    +0.227 C 
ATOM      8  C   UNL     1     -45.831  28.590   7.183  0.00  0.00    +0.136 C 
ATOM      9  C   UNL     1     -46.435  32.542   6.106  0.00  0.00    +0.249 C 
ATOM     10  C   UNL     1     -44.301  29.012   5.369  0.00  0.00    +0.000 C 
ATOM     11  C   UNL     1     -44.475  27.700   4.920  0.00  0.00    +0.001 C 
ATOM     12  C   UNL     1     -45.984  27.270   6.751  0.00  0.00    +0.037 C 
ATOM     13  C   UNL     1     -45.313  26.830   5.612  0.00  0.00    +0.003 C 
ENDROOT
BRANCH  11  16
ATOM     14  N   UNL     1     -41.821  27.368   2.320  0.00  0.00    -0.230 NA
ATOM     15  N   UNL     1     -41.693  25.990   0.380  0.00  0.00    -0.343 N 
ATOM     16  C   UNL     1     -43.774  27.243   3.739  0.00  0.00    +0.019 C 
ATOM     17  C   UNL     1     -44.330  26.282   2.903  0.00  0.00    +0.004 C 
ATOM     18  C   UNL     1     -42.528  27.751   3.406  0.00  0.00    +0.100 C 
ATOM     19  C   UNL     1     -43.632  25.862   1.775  0.00  0.00    +0.034 C 
ATOM     20  C   UNL     1     -42.393  26.431   1.531  0.00  0.00    +0.125 C 
ATOM     21  H   UNL     1     -40.809  26.367   0.167  0.00  0.00    +0.144 HD
ATOM     22  H   UNL     1     -42.091  25.307  -0.207  0.00  0.00    +0.144 HD
ENDBRANCH  11  16
BRANCH   9  24
ATOM     23  F   UNL     1     -45.372  31.356   1.512  0.00  0.00    -0.203 F 
ATOM     24  C   UNL     1     -45.635  32.694   4.887  0.00  0.00    +0.052 C 
ATOM     25  C   UNL     1     -45.896  31.928   3.750  0.00  0.00    +0.011 C 
ATOM     26  C   UNL     1     -44.083  33.025   2.592  0.00  0.00    +0.133 C 
ATOM     27  C   UNL     1     -44.597  33.627   4.875  0.00  0.00    +0.006 C 
ATOM     28  C   UNL     1     -45.120  32.094   2.604  0.00  0.00    +0.153 C 
ATOM     29  C   UNL     1     -43.821  33.792   3.728  0.00  0.00    +0.021 C 
ATOM     30  C   UNL     1     -47.003  30.924   3.740  0.00  0.00    +0.034 C 
BRANCH  26  31
ATOM     31  S   UNL     1     -43.108  33.237   1.159  0.00  0.00    +0.013 S 
ATOM     32  O   UNL     1     -42.346  32.017   0.922  0.00  0.00    -0.169 OA
ATOM     33  O   UNL     1     -43.965  33.768   0.109  0.00  0.00    -0.169 OA
ATOM     34  C   UNL     1     -41.938  34.500   1.602  0.00  0.00    +0.182 C 
ENDBRANCH  26  31
ENDBRANCH   9  24
TORSDOF 3
ENDMDL
