MODEL 1
REMARK VINA RESULT:      -5.3      0.000      0.000
REMARK  Name = 53818008
REMARK  7 active torsions:
REMARK  status: ('A' for Active; 'I' for Inactive)
REMARK    1  A    between atoms: N_1  and  C_3
REMARK    2  A    between atoms: N_1  and  P_7
REMARK    3  A    between atoms: N_1  and  C_13
REMARK    4  A    between atoms: P_7  and  O_9
REMARK    5  A    between atoms: P_7  and  O_11
REMARK    6  A    between atoms: C_13  and  C_16
REMARK    7  A    between atoms: C_16  and  O_17
REMARK                            x       y       z     vdW  Elec       q    Type
REMARK                         _______ _______ _______ _____ _____    ______ ____
ROOT
ATOM      1  N   UNL     1     -35.141  24.757   4.293  0.00  0.00    -0.188 N 
ENDROOT
BRANCH   1   3
ATOM      2  O   UNL     1     -35.255  22.417   3.886  0.00  0.00    -0.436 OA
ATOM      3  C   UNL     1     -35.185  23.427   4.792  0.00  0.00    +0.208 C 
ATOM      4  C   UNL     1     -35.170  22.928   6.073  0.00  0.00    +0.057 C 
ATOM      5  C   UNL     1     -35.234  21.519   5.947  0.00  0.00    +0.045 C 
ATOM      6  C   UNL     1     -35.285  21.259   4.598  0.00  0.00    +0.181 C 
ENDBRANCH   1   3
BRANCH   1   7
ATOM      7  P   UNL     1     -36.492  25.709   4.069  0.00  0.00    +0.427 P 
ATOM      8  O   UNL     1     -36.654  26.497   2.792  0.00  0.00    -0.236 OA
BRANCH   7   9
ATOM      9  O   UNL     1     -36.625  26.680   5.371  0.00  0.00    -0.309 OA
ATOM     10  H   UNL     1     -37.442  26.470   5.849  0.00  0.00    +0.221 HD
ENDBRANCH   7   9
BRANCH   7  11
ATOM     11  O   UNL     1     -37.797  24.767   4.327  0.00  0.00    -0.309 OA
ATOM     12  H   UNL     1     -37.512  23.849   4.457  0.00  0.00    +0.221 HD
ENDBRANCH   7  11
ENDBRANCH   1   7
BRANCH   1  13
ATOM     13  C   UNL     1     -33.845  25.367   4.098  0.00  0.00    +0.184 C 
ATOM     14  C   UNL     1     -33.581  25.589   2.618  0.00  0.00    +0.034 C 
BRANCH  13  16
ATOM     15  O   UNL     1     -33.758  27.769   4.287  0.00  0.00    -0.248 OA
ATOM     16  C   UNL     1     -33.763  26.678   4.846  0.00  0.00    +0.333 C 
BRANCH  16  17
ATOM     17  O   UNL     1     -33.754  26.547   6.195  0.00  0.00    -0.479 OA
ATOM     18  H   UNL     1     -34.537  26.300   6.648  0.00  0.00    +0.295 HD
ENDBRANCH  16  17
ENDBRANCH  13  16
ENDBRANCH   1  13
TORSDOF 7
ENDMDL
MODEL 2
REMARK VINA RESULT:      -5.2      2.888      4.833
REMARK  Name = 53818008
REMARK  7 active torsions:
REMARK  status: ('A' for Active; 'I' for Inactive)
REMARK    1  A    between atoms: N_1  and  C_3
REMARK    2  A    between atoms: N_1  and  P_7
REMARK    3  A    between atoms: N_1  and  C_13
REMARK    4  A    between atoms: P_7  and  O_9
REMARK    5  A    between atoms: P_7  and  O_11
REMARK    6  A    between atoms: C_13  and  C_16
REMARK    7  A    between atoms: C_16  and  O_17
REMARK                            x       y       z     vdW  Elec       q    Type
REMARK                         _______ _______ _______ _____ _____    ______ ____
ROOT
ATOM      1  N   UNL     1     -36.844  22.370   2.696  0.00  0.00    -0.188 N 
ENDROOT
BRANCH   1   3
ATOM      2  O   UNL     1     -36.204  24.144   4.143  0.00  0.00    -0.436 OA
ATOM      3  C   UNL     1     -36.222  22.808   3.895  0.00  0.00    +0.208 C 
ATOM      4  C   UNL     1     -35.602  22.120   4.911  0.00  0.00    +0.057 C 
ATOM      5  C   UNL     1     -35.176  23.094   5.845  0.00  0.00    +0.045 C 
ATOM      6  C   UNL     1     -35.565  24.309   5.332  0.00  0.00    +0.181 C 
ENDBRANCH   1   3
BRANCH   1   7
ATOM      7  P   UNL     1     -38.440  22.671   2.314  0.00  0.00    +0.427 P 
ATOM      8  O   UNL     1     -39.215  23.709   3.088  0.00  0.00    -0.236 OA
BRANCH   7   9
ATOM      9  O   UNL     1     -39.220  21.240   2.319  0.00  0.00    -0.309 OA
ATOM     10  H   UNL     1     -39.084  20.794   1.469  0.00  0.00    +0.221 HD
ENDBRANCH   7   9
BRANCH   7  11
ATOM     11  O   UNL     1     -38.505  22.985   0.716  0.00  0.00    -0.309 OA
ATOM     12  H   UNL     1     -38.359  22.165   0.219  0.00  0.00    +0.221 HD
ENDBRANCH   7  11
ENDBRANCH   1   7
BRANCH   1  13
ATOM     13  C   UNL     1     -36.015  21.749   1.688  0.00  0.00    +0.184 C 
ATOM     14  C   UNL     1     -34.741  22.553   1.481  0.00  0.00    +0.034 C 
BRANCH  13  16
ATOM     15  O   UNL     1     -34.533  19.890   2.093  0.00  0.00    -0.248 OA
ATOM     16  C   UNL     1     -35.678  20.330   2.084  0.00  0.00    +0.333 C 
BRANCH  16  17
ATOM     17  O   UNL     1     -36.746  19.599   2.485  0.00  0.00    -0.479 OA
ATOM     18  H   UNL     1     -36.890  18.744   2.129  0.00  0.00    +0.295 HD
ENDBRANCH  16  17
ENDBRANCH  13  16
ENDBRANCH   1  13
TORSDOF 7
ENDMDL
MODEL 3
REMARK VINA RESULT:      -5.1      1.873      3.215
REMARK  Name = 53818008
REMARK  7 active torsions:
REMARK  status: ('A' for Active; 'I' for Inactive)
REMARK    1  A    between atoms: N_1  and  C_3
REMARK    2  A    between atoms: N_1  and  P_7
REMARK    3  A    between atoms: N_1  and  C_13
REMARK    4  A    between atoms: P_7  and  O_9
REMARK    5  A    between atoms: P_7  and  O_11
REMARK    6  A    between atoms: C_13  and  C_16
REMARK    7  A    between atoms: C_16  and  O_17
REMARK                            x       y       z     vdW  Elec       q    Type
REMARK                         _______ _______ _______ _____ _____    ______ ____
ROOT
ATOM      1  N   UNL     1     -35.506  24.814   4.052  0.00  0.00    -0.188 N 
ENDROOT
BRANCH   1   3
ATOM      2  O   UNL     1     -35.782  23.496   6.012  0.00  0.00    -0.436 OA
ATOM      3  C   UNL     1     -35.436  23.551   4.699  0.00  0.00    +0.208 C 
ATOM      4  C   UNL     1     -35.068  22.306   4.244  0.00  0.00    +0.057 C 
ATOM      5  C   UNL     1     -35.198  21.429   5.347  0.00  0.00    +0.045 C 
ATOM      6  C   UNL     1     -35.634  22.201   6.398  0.00  0.00    +0.181 C 
ENDBRANCH   1   3
BRANCH   1   7
ATOM      7  P   UNL     1     -34.505  26.098   4.411  0.00  0.00    +0.427 P 
ATOM      8  O   UNL     1     -33.097  26.129   3.869  0.00  0.00    -0.236 OA
BRANCH   7   9
ATOM      9  O   UNL     1     -34.506  26.279   6.031  0.00  0.00    -0.309 OA
ATOM     10  H   UNL     1     -35.394  26.530   6.328  0.00  0.00    +0.221 HD
ENDBRANCH   7   9
BRANCH   7  11
ATOM     11  O   UNL     1     -35.301  27.462   4.007  0.00  0.00    -0.309 OA
ATOM     12  H   UNL     1     -35.326  28.059   4.770  0.00  0.00    +0.221 HD
ENDBRANCH   7  11
ENDBRANCH   1   7
BRANCH   1  13
ATOM     13  C   UNL     1     -36.402  24.951   2.925  0.00  0.00    +0.184 C 
ATOM     14  C   UNL     1     -36.214  23.796   1.955  0.00  0.00    +0.034 C 
BRANCH  13  16
ATOM     15  O   UNL     1     -38.577  24.031   3.411  0.00  0.00    -0.248 OA
ATOM     16  C   UNL     1     -37.837  25.008   3.397  0.00  0.00    +0.333 C 
BRANCH  16  17
ATOM     17  O   UNL     1     -38.219  26.223   3.860  0.00  0.00    -0.479 OA
ATOM     18  H   UNL     1     -38.829  26.284   4.569  0.00  0.00    +0.295 HD
ENDBRANCH  16  17
ENDBRANCH  13  16
ENDBRANCH   1  13
TORSDOF 7
ENDMDL
MODEL 4
REMARK VINA RESULT:      -5.0      1.265      1.759
REMARK  Name = 53818008
REMARK  7 active torsions:
REMARK  status: ('A' for Active; 'I' for Inactive)
REMARK    1  A    between atoms: N_1  and  C_3
REMARK    2  A    between atoms: N_1  and  P_7
REMARK    3  A    between atoms: N_1  and  C_13
REMARK    4  A    between atoms: P_7  and  O_9
REMARK    5  A    between atoms: P_7  and  O_11
REMARK    6  A    between atoms: C_13  and  C_16
REMARK    7  A    between atoms: C_16  and  O_17
REMARK                            x       y       z     vdW  Elec       q    Type
REMARK                         _______ _______ _______ _____ _____    ______ ____
ROOT
ATOM      1  N   UNL     1     -35.601  24.376   3.691  0.00  0.00    -0.188 N 
ENDROOT
BRANCH   1   3
ATOM      2  O   UNL     1     -35.812  23.423   5.859  0.00  0.00    -0.436 OA
ATOM      3  C   UNL     1     -35.509  23.246   4.546  0.00  0.00    +0.208 C 
ATOM      4  C   UNL     1     -35.158  21.938   4.303  0.00  0.00    +0.057 C 
ATOM      5  C   UNL     1     -35.251  21.268   5.547  0.00  0.00    +0.045 C 
ATOM      6  C   UNL     1     -35.651  22.215   6.461  0.00  0.00    +0.181 C 
ENDBRANCH   1   3
BRANCH   1   7
ATOM      7  P   UNL     1     -36.806  25.525   3.798  0.00  0.00    +0.427 P 
ATOM      8  O   UNL     1     -37.045  26.473   2.648  0.00  0.00    -0.236 OA
BRANCH   7   9
ATOM      9  O   UNL     1     -36.577  26.344   5.188  0.00  0.00    -0.309 OA
ATOM     10  H   UNL     1     -37.175  26.000   5.869  0.00  0.00    +0.221 HD
ENDBRANCH   7   9
BRANCH   7  11
ATOM     11  O   UNL     1     -38.184  24.747   4.191  0.00  0.00    -0.309 OA
ATOM     12  H   UNL     1     -38.936  25.352   4.093  0.00  0.00    +0.221 HD
ENDBRANCH   7  11
ENDBRANCH   1   7
BRANCH   1  13
ATOM     13  C   UNL     1     -34.517  24.620   2.767  0.00  0.00    +0.184 C 
ATOM     14  C   UNL     1     -35.034  24.654   1.338  0.00  0.00    +0.034 C 
BRANCH  13  16
ATOM     15  O   UNL     1     -33.122  26.070   4.096  0.00  0.00    -0.248 OA
ATOM     16  C   UNL     1     -33.822  25.920   3.101  0.00  0.00    +0.333 C 
BRANCH  16  17
ATOM     17  O   UNL     1     -33.993  26.894   2.173  0.00  0.00    -0.479 OA
ATOM     18  H   UNL     1     -33.277  27.152   1.627  0.00  0.00    +0.295 HD
ENDBRANCH  16  17
ENDBRANCH  13  16
ENDBRANCH   1  13
TORSDOF 7
ENDMDL
MODEL 5
REMARK VINA RESULT:      -5.0      3.327      5.034
REMARK  Name = 53818008
REMARK  7 active torsions:
REMARK  status: ('A' for Active; 'I' for Inactive)
REMARK    1  A    between atoms: N_1  and  C_3
REMARK    2  A    between atoms: N_1  and  P_7
REMARK    3  A    between atoms: N_1  and  C_13
REMARK    4  A    between atoms: P_7  and  O_9
REMARK    5  A    between atoms: P_7  and  O_11
REMARK    6  A    between atoms: C_13  and  C_16
REMARK    7  A    between atoms: C_16  and  O_17
REMARK                            x       y       z     vdW  Elec       q    Type
REMARK                         _______ _______ _______ _____ _____    ______ ____
ROOT
ATOM      1  N   UNL     1     -36.734  22.536   2.617  0.00  0.00    -0.188 N 
ENDROOT
BRANCH   1   3
ATOM      2  O   UNL     1     -38.117  24.154   3.676  0.00  0.00    -0.436 OA
ATOM      3  C   UNL     1     -37.454  23.759   2.558  0.00  0.00    +0.208 C 
ATOM      4  C   UNL     1     -37.625  24.674   1.546  0.00  0.00    +0.057 C 
ATOM      5  C   UNL     1     -38.446  25.698   2.076  0.00  0.00    +0.045 C 
ATOM      6  C   UNL     1     -38.718  25.335   3.374  0.00  0.00    +0.181 C 
ENDBRANCH   1   3
BRANCH   1   7
ATOM      7  P   UNL     1     -37.217  21.136   1.849  0.00  0.00    +0.427 P 
ATOM      8  O   UNL     1     -36.943  20.954   0.376  0.00  0.00    -0.236 OA
BRANCH   7   9
ATOM      9  O   UNL     1     -38.799  20.923   2.175  0.00  0.00    -0.309 OA
ATOM     10  H   UNL     1     -39.148  21.713   2.616  0.00  0.00    +0.221 HD
ENDBRANCH   7   9
BRANCH   7  11
ATOM     11  O   UNL     1     -36.615  19.883   2.700  0.00  0.00    -0.309 OA
ATOM     12  H   UNL     1     -37.180  19.714   3.470  0.00  0.00    +0.221 HD
ENDBRANCH   7  11
ENDBRANCH   1   7
BRANCH   1  13
ATOM     13  C   UNL     1     -35.441  22.539   3.264  0.00  0.00    +0.184 C 
ATOM     14  C   UNL     1     -34.819  23.924   3.199  0.00  0.00    +0.034 C 
BRANCH  13  16
ATOM     15  O   UNL     1     -35.164  21.007   5.105  0.00  0.00    -0.248 OA
ATOM     16  C   UNL     1     -35.570  22.091   4.702  0.00  0.00    +0.333 C 
BRANCH  16  17
ATOM     17  O   UNL     1     -36.122  23.018   5.523  0.00  0.00    -0.479 OA
ATOM     18  H   UNL     1     -35.725  23.209   6.350  0.00  0.00    +0.295 HD
ENDBRANCH  16  17
ENDBRANCH  13  16
ENDBRANCH   1  13
TORSDOF 7
ENDMDL
MODEL 6
REMARK VINA RESULT:      -5.0      1.673      2.037
REMARK  Name = 53818008
REMARK  7 active torsions:
REMARK  status: ('A' for Active; 'I' for Inactive)
REMARK    1  A    between atoms: N_1  and  C_3
REMARK    2  A    between atoms: N_1  and  P_7
REMARK    3  A    between atoms: N_1  and  C_13
REMARK    4  A    between atoms: P_7  and  O_9
REMARK    5  A    between atoms: P_7  and  O_11
REMARK    6  A    between atoms: C_13  and  C_16
REMARK    7  A    between atoms: C_16  and  O_17
REMARK                            x       y       z     vdW  Elec       q    Type
REMARK                         _______ _______ _______ _____ _____    ______ ____
ROOT
ATOM      1  N   UNL     1     -36.311  24.278   3.927  0.00  0.00    -0.188 N 
ENDROOT
BRANCH   1   3
ATOM      2  O   UNL     1     -35.498  22.045   4.009  0.00  0.00    -0.436 OA
ATOM      3  C   UNL     1     -35.796  23.189   4.679  0.00  0.00    +0.208 C 
ATOM      4  C   UNL     1     -35.521  23.048   6.020  0.00  0.00    +0.057 C 
ATOM      5  C   UNL     1     -35.022  21.734   6.184  0.00  0.00    +0.045 C 
ATOM      6  C   UNL     1     -35.029  21.165   4.932  0.00  0.00    +0.181 C 
ENDBRANCH   1   3
BRANCH   1   7
ATOM      7  P   UNL     1     -37.726  24.210   3.046  0.00  0.00    +0.427 P 
ATOM      8  O   UNL     1     -37.766  24.767   1.644  0.00  0.00    -0.236 OA
BRANCH   7   9
ATOM      9  O   UNL     1     -38.903  24.864   3.963  0.00  0.00    -0.309 OA
ATOM     10  H   UNL     1     -39.655  24.253   4.008  0.00  0.00    +0.221 HD
ENDBRANCH   7   9
BRANCH   7  11
ATOM     11  O   UNL     1     -38.231  22.660   3.058  0.00  0.00    -0.309 OA
ATOM     12  H   UNL     1     -38.398  22.382   3.972  0.00  0.00    +0.221 HD
ENDBRANCH   7  11
ENDBRANCH   1   7
BRANCH   1  13
ATOM     13  C   UNL     1     -35.648  25.557   4.042  0.00  0.00    +0.184 C 
ATOM     14  C   UNL     1     -35.841  26.132   5.436  0.00  0.00    +0.034 C 
BRANCH  13  16
ATOM     15  O   UNL     1     -33.746  25.118   2.625  0.00  0.00    -0.248 OA
ATOM     16  C   UNL     1     -34.174  25.416   3.735  0.00  0.00    +0.333 C 
BRANCH  16  17
ATOM     17  O   UNL     1     -33.361  25.705   4.780  0.00  0.00    -0.479 OA
ATOM     18  H   UNL     1     -33.575  26.409   5.361  0.00  0.00    +0.295 HD
ENDBRANCH  16  17
ENDBRANCH  13  16
ENDBRANCH   1  13
TORSDOF 7
ENDMDL
MODEL 7
REMARK VINA RESULT:      -4.9      2.586      4.258
REMARK  Name = 53818008
REMARK  7 active torsions:
REMARK  status: ('A' for Active; 'I' for Inactive)
REMARK    1  A    between atoms: N_1  and  C_3
REMARK    2  A    between atoms: N_1  and  P_7
REMARK    3  A    between atoms: N_1  and  C_13
REMARK    4  A    between atoms: P_7  and  O_9
REMARK    5  A    between atoms: P_7  and  O_11
REMARK    6  A    between atoms: C_13  and  C_16
REMARK    7  A    between atoms: C_16  and  O_17
REMARK                            x       y       z     vdW  Elec       q    Type
REMARK                         _______ _______ _______ _____ _____    ______ ____
ROOT
ATOM      1  N   UNL     1     -37.265  23.922   2.975  0.00  0.00    -0.188 N 
ENDROOT
BRANCH   1   3
ATOM      2  O   UNL     1     -35.199  24.641   3.906  0.00  0.00    -0.436 OA
ATOM      3  C   UNL     1     -36.206  23.730   3.902  0.00  0.00    +0.208 C 
ATOM      4  C   UNL     1     -35.981  22.757   4.849  0.00  0.00    +0.057 C 
ATOM      5  C   UNL     1     -34.757  23.093   5.475  0.00  0.00    +0.045 C 
ATOM      6  C   UNL     1     -34.321  24.246   4.866  0.00  0.00    +0.181 C 
ENDBRANCH   1   3
BRANCH   1   7
ATOM      7  P   UNL     1     -38.311  25.220   3.017  0.00  0.00    +0.427 P 
ATOM      8  O   UNL     1     -38.730  25.891   1.731  0.00  0.00    -0.236 OA
BRANCH   7   9
ATOM      9  O   UNL     1     -37.697  26.307   4.064  0.00  0.00    -0.309 OA
ATOM     10  H   UNL     1     -37.855  26.006   4.972  0.00  0.00    +0.221 HD
ENDBRANCH   7   9
BRANCH   7  11
ATOM     11  O   UNL     1     -39.620  24.761   3.872  0.00  0.00    -0.309 OA
ATOM     12  H   UNL     1     -39.344  24.182   4.600  0.00  0.00    +0.221 HD
ENDBRANCH   7  11
ENDBRANCH   1   7
BRANCH   1  13
ATOM     13  C   UNL     1     -37.356  23.017   1.851  0.00  0.00    +0.184 C 
ATOM     14  C   UNL     1     -35.985  22.461   1.505  0.00  0.00    +0.034 C 
BRANCH  13  16
ATOM     15  O   UNL     1     -39.531  22.033   2.189  0.00  0.00    -0.248 OA
ATOM     16  C   UNL     1     -38.314  21.890   2.159  0.00  0.00    +0.333 C 
BRANCH  16  17
ATOM     17  O   UNL     1     -37.714  20.688   2.343  0.00  0.00    -0.479 OA
ATOM     18  H   UNL     1     -36.839  20.549   2.038  0.00  0.00    +0.295 HD
ENDBRANCH  16  17
ENDBRANCH  13  16
ENDBRANCH   1  13
TORSDOF 7
ENDMDL
MODEL 8
REMARK VINA RESULT:      -4.8      1.130      4.323
REMARK  Name = 53818008
REMARK  7 active torsions:
REMARK  status: ('A' for Active; 'I' for Inactive)
REMARK    1  A    between atoms: N_1  and  C_3
REMARK    2  A    between atoms: N_1  and  P_7
REMARK    3  A    between atoms: N_1  and  C_13
REMARK    4  A    between atoms: P_7  and  O_9
REMARK    5  A    between atoms: P_7  and  O_11
REMARK    6  A    between atoms: C_13  and  C_16
REMARK    7  A    between atoms: C_16  and  O_17
REMARK                            x       y       z     vdW  Elec       q    Type
REMARK                         _______ _______ _______ _____ _____    ______ ____
ROOT
ATOM      1  N   UNL     1     -35.021  25.066   4.039  0.00  0.00    -0.188 N 
ENDROOT
BRANCH   1   3
ATOM      2  O   UNL     1     -33.910  27.167   3.984  0.00  0.00    -0.436 OA
ATOM      3  C   UNL     1     -33.968  25.882   3.546  0.00  0.00    +0.208 C 
ATOM      4  C   UNL     1     -32.940  25.623   2.670  0.00  0.00    +0.057 C 
ATOM      5  C   UNL     1     -32.202  26.826   2.563  0.00  0.00    +0.045 C 
ATOM      6  C   UNL     1     -32.832  27.734   3.380  0.00  0.00    +0.181 C 
ENDBRANCH   1   3
BRANCH   1   7
ATOM      7  P   UNL     1     -36.599  25.583   4.197  0.00  0.00    +0.427 P 
ATOM      8  O   UNL     1     -37.721  24.574   4.238  0.00  0.00    -0.236 OA
BRANCH   7   9
ATOM      9  O   UNL     1     -36.865  26.700   3.040  0.00  0.00    -0.309 OA
ATOM     10  H   UNL     1     -36.610  26.338   2.177  0.00  0.00    +0.221 HD
ENDBRANCH   7   9
BRANCH   7  11
ATOM     11  O   UNL     1     -36.661  26.557   5.503  0.00  0.00    -0.309 OA
ATOM     12  H   UNL     1     -36.620  26.020   6.309  0.00  0.00    +0.221 HD
ENDBRANCH   7  11
ENDBRANCH   1   7
BRANCH   1  13
ATOM     13  C   UNL     1     -34.740  23.670   4.286  0.00  0.00    +0.184 C 
ATOM     14  C   UNL     1     -35.187  23.279   5.686  0.00  0.00    +0.034 C 
BRANCH  13  16
ATOM     15  O   UNL     1     -35.148  22.826   2.065  0.00  0.00    -0.248 OA
ATOM     16  C   UNL     1     -35.430  22.803   3.258  0.00  0.00    +0.333 C 
BRANCH  16  17
ATOM     17  O   UNL     1     -36.350  21.953   3.777  0.00  0.00    -0.479 OA
ATOM     18  H   UNL     1     -36.078  21.135   4.144  0.00  0.00    +0.295 HD
ENDBRANCH  16  17
ENDBRANCH  13  16
ENDBRANCH   1  13
TORSDOF 7
ENDMDL
MODEL 9
REMARK VINA RESULT:      -4.8      2.035      2.779
REMARK  Name = 53818008
REMARK  7 active torsions:
REMARK  status: ('A' for Active; 'I' for Inactive)
REMARK    1  A    between atoms: N_1  and  C_3
REMARK    2  A    between atoms: N_1  and  P_7
REMARK    3  A    between atoms: N_1  and  C_13
REMARK    4  A    between atoms: P_7  and  O_9
REMARK    5  A    between atoms: P_7  and  O_11
REMARK    6  A    between atoms: C_13  and  C_16
REMARK    7  A    between atoms: C_16  and  O_17
REMARK                            x       y       z     vdW  Elec       q    Type
REMARK                         _______ _______ _______ _____ _____    ______ ____
ROOT
ATOM      1  N   UNL     1     -36.802  24.338   3.519  0.00  0.00    -0.188 N 
ENDROOT
BRANCH   1   3
ATOM      2  O   UNL     1     -36.952  22.049   2.893  0.00  0.00    -0.436 OA
ATOM      3  C   UNL     1     -36.233  23.202   2.884  0.00  0.00    +0.208 C 
ATOM      4  C   UNL     1     -35.039  23.022   2.225  0.00  0.00    +0.057 C 
ATOM      5  C   UNL     1     -35.023  21.671   1.802  0.00  0.00    +0.045 C 
ATOM      6  C   UNL     1     -36.208  21.122   2.233  0.00  0.00    +0.181 C 
ENDBRANCH   1   3
BRANCH   1   7
ATOM      7  P   UNL     1     -38.156  25.135   2.957  0.00  0.00    +0.427 P 
ATOM      8  O   UNL     1     -38.067  26.593   2.579  0.00  0.00    -0.236 OA
BRANCH   7   9
ATOM      9  O   UNL     1     -39.350  24.887   4.037  0.00  0.00    -0.309 OA
ATOM     10  H   UNL     1     -40.204  25.103   3.631  0.00  0.00    +0.221 HD
ENDBRANCH   7   9
BRANCH   7  11
ATOM     11  O   UNL     1     -38.753  24.260   1.719  0.00  0.00    -0.309 OA
ATOM     12  H   UNL     1     -38.793  23.325   1.973  0.00  0.00    +0.221 HD
ENDBRANCH   7  11
ENDBRANCH   1   7
BRANCH   1  13
ATOM     13  C   UNL     1     -36.262  24.743   4.797  0.00  0.00    +0.184 C 
ATOM     14  C   UNL     1     -35.655  23.551   5.519  0.00  0.00    +0.034 C 
BRANCH  13  16
ATOM     15  O   UNL     1     -34.031  25.588   4.452  0.00  0.00    -0.248 OA
ATOM     16  C   UNL     1     -35.223  25.825   4.612  0.00  0.00    +0.333 C 
BRANCH  16  17
ATOM     17  O   UNL     1     -35.731  27.081   4.577  0.00  0.00    -0.479 OA
ATOM     18  H   UNL     1     -35.475  27.709   5.225  0.00  0.00    +0.295 HD
ENDBRANCH  16  17
ENDBRANCH  13  16
ENDBRANCH   1  13
TORSDOF 7
ENDMDL
