MODEL 1
REMARK VINA RESULT:      -7.6      0.000      0.000
REMARK  Name = 50899324
REMARK  7 active torsions:
REMARK  status: ('A' for Active; 'I' for Inactive)
REMARK    1  A    between atoms: C_5  and  C_21
REMARK    2  A    between atoms: C_7  and  C_14
REMARK    3  A    between atoms: N_13  and  C_16
REMARK    4  A    between atoms: C_16  and  C_18
REMARK    5  A    between atoms: C_18  and  O_19
REMARK    6  A    between atoms: C_21  and  C_22
REMARK    7  A    between atoms: C_22  and  C_23
REMARK                            x       y       z     vdW  Elec       q    Type
REMARK                         _______ _______ _______ _____ _____    ______ ____
ROOT
ATOM      1  O   UNL     1     -34.764  25.615   2.252  0.00  0.00    -0.290 OA
ATOM      2  N   UNL     1     -35.360  22.131   4.143  0.00  0.00    -0.222 N 
ATOM      3  N   UNL     1     -35.542  21.135   5.033  0.00  0.00    -0.201 NA
ATOM      4  N   UNL     1     -35.298  23.029   6.277  0.00  0.00    -0.239 NA
ATOM      5  C   UNL     1     -35.311  22.133   2.764  0.00  0.00    +0.049 C 
ATOM      6  C   UNL     1     -35.209  23.294   4.904  0.00  0.00    +0.137 C 
ATOM      7  C   UNL     1     -35.006  24.501   4.346  0.00  0.00    +0.193 C 
ATOM      8  C   UNL     1     -35.112  23.282   2.089  0.00  0.00    +0.050 C 
ATOM      9  C   UNL     1     -34.945  24.557   2.849  0.00  0.00    +0.189 C 
ATOM     10  C   UNL     1     -35.495  21.731   6.266  0.00  0.00    +0.216 C 
ATOM     11  H   UNL     1     -35.680  20.180   4.839  0.00  0.00    +0.148 HD
ENDROOT
BRANCH   7  14
ATOM     12  O   UNL     1     -35.757  26.527   5.264  0.00  0.00    -0.274 OA
ATOM     13  N   UNL     1     -33.632  25.751   5.828  0.00  0.00    -0.294 N 
ATOM     14  C   UNL     1     -34.855  25.694   5.183  0.00  0.00    +0.237 C 
ATOM     15  H   UNL     1     -32.991  25.018   5.679  0.00  0.00    +0.150 HD
BRANCH  13  16
ATOM     16  C   UNL     1     -33.246  26.831   6.707  0.00  0.00    +0.200 C 
BRANCH  16  18
ATOM     17  O   UNL     1     -32.553  28.605   5.235  0.00  0.00    -0.248 OA
ATOM     18  C   UNL     1     -32.249  27.771   6.079  0.00  0.00    +0.334 C 
BRANCH  18  19
ATOM     19  O   UNL     1     -30.987  27.605   6.536  0.00  0.00    -0.479 OA
ATOM     20  H   UNL     1     -30.599  28.256   7.088  0.00  0.00    +0.295 HD
ENDBRANCH  18  19
ENDBRANCH  16  18
ENDBRANCH  13  16
ENDBRANCH   7  14
BRANCH   5  21
ATOM     21  C   UNL     1     -35.484  20.827   2.044  0.00  0.00    +0.048 C 
BRANCH  21  22
ATOM     22  C   UNL     1     -34.782  20.795   0.686  0.00  0.00    +0.032 C 
BRANCH  22  23
ATOM     23  C   UNL     1     -33.496  20.004   0.689  0.00  0.00    -0.022 C 
ATOM     24  C   UNL     1     -33.432  18.780   1.354  0.00  0.00    -0.004 C 
ATOM     25  C   UNL     1     -32.373  20.498   0.026  0.00  0.00    -0.004 C 
ATOM     26  C   UNL     1     -32.242  18.050   1.358  0.00  0.00    -0.000 C 
ATOM     27  C   UNL     1     -31.184  19.767   0.029  0.00  0.00    -0.000 C 
ATOM     28  C   UNL     1     -31.119  18.544   0.694  0.00  0.00    -0.000 C 
ENDBRANCH  22  23
ENDBRANCH  21  22
ENDBRANCH   5  21
TORSDOF 7
ENDMDL
MODEL 2
REMARK VINA RESULT:      -7.0      1.543      2.561
REMARK  Name = 50899324
REMARK  7 active torsions:
REMARK  status: ('A' for Active; 'I' for Inactive)
REMARK    1  A    between atoms: C_5  and  C_21
REMARK    2  A    between atoms: C_7  and  C_14
REMARK    3  A    between atoms: N_13  and  C_16
REMARK    4  A    between atoms: C_16  and  C_18
REMARK    5  A    between atoms: C_18  and  O_19
REMARK    6  A    between atoms: C_21  and  C_22
REMARK    7  A    between atoms: C_22  and  C_23
REMARK                            x       y       z     vdW  Elec       q    Type
REMARK                         _______ _______ _______ _____ _____    ______ ____
ROOT
ATOM      1  O   UNL     1     -36.221  22.923   5.604  0.00  0.00    -0.290 OA
ATOM      2  N   UNL     1     -34.626  23.612   1.991  0.00  0.00    -0.222 N 
ATOM      3  N   UNL     1     -34.019  24.119   0.899  0.00  0.00    -0.201 NA
ATOM      4  N   UNL     1     -33.903  25.758   2.478  0.00  0.00    -0.239 NA
ATOM      5  C   UNL     1     -35.223  22.390   2.227  0.00  0.00    +0.049 C 
ATOM      6  C   UNL     1     -34.556  24.617   2.961  0.00  0.00    +0.137 C 
ATOM      7  C   UNL     1     -35.067  24.464   4.196  0.00  0.00    +0.193 C 
ATOM      8  C   UNL     1     -35.772  22.118   3.426  0.00  0.00    +0.050 C 
ATOM      9  C   UNL     1     -35.728  23.153   4.503  0.00  0.00    +0.189 C 
ATOM     10  C   UNL     1     -33.619  25.381   1.254  0.00  0.00    +0.216 C 
ATOM     11  H   UNL     1     -33.891  23.677   0.029  0.00  0.00    +0.148 HD
ENDROOT
BRANCH   7  14
ATOM     12  O   UNL     1     -35.964  26.190   5.511  0.00  0.00    -0.274 OA
ATOM     13  N   UNL     1     -33.685  25.723   5.662  0.00  0.00    -0.294 N 
ATOM     14  C   UNL     1     -34.970  25.543   5.182  0.00  0.00    +0.237 C 
ATOM     15  H   UNL     1     -32.972  25.137   5.318  0.00  0.00    +0.150 HD
BRANCH  13  16
ATOM     16  C   UNL     1     -33.335  26.726   6.642  0.00  0.00    +0.200 C 
BRANCH  16  18
ATOM     17  O   UNL     1     -32.588  28.571   5.288  0.00  0.00    -0.248 OA
ATOM     18  C   UNL     1     -32.325  27.720   6.128  0.00  0.00    +0.334 C 
BRANCH  18  19
ATOM     19  O   UNL     1     -31.099  27.581   6.684  0.00  0.00    -0.479 OA
ATOM     20  H   UNL     1     -30.367  27.338   6.150  0.00  0.00    +0.295 HD
ENDBRANCH  18  19
ENDBRANCH  16  18
ENDBRANCH  13  16
ENDBRANCH   7  14
BRANCH   5  21
ATOM     21  C   UNL     1     -35.244  21.383   1.114  0.00  0.00    +0.048 C 
BRANCH  21  22
ATOM     22  C   UNL     1     -34.807  19.987   1.563  0.00  0.00    +0.032 C 
BRANCH  22  23
ATOM     23  C   UNL     1     -33.425  19.607   1.092  0.00  0.00    -0.022 C 
ATOM     24  C   UNL     1     -32.709  20.469   0.262  0.00  0.00    -0.004 C 
ATOM     25  C   UNL     1     -32.863  18.393   1.489  0.00  0.00    -0.004 C 
ATOM     26  C   UNL     1     -31.430  20.116  -0.174  0.00  0.00    -0.000 C 
ATOM     27  C   UNL     1     -31.585  18.041   1.054  0.00  0.00    -0.000 C 
ATOM     28  C   UNL     1     -30.869  18.903   0.223  0.00  0.00    -0.000 C 
ENDBRANCH  22  23
ENDBRANCH  21  22
ENDBRANCH   5  21
TORSDOF 7
ENDMDL
MODEL 3
REMARK VINA RESULT:      -6.6      3.503      4.876
REMARK  Name = 50899324
REMARK  7 active torsions:
REMARK  status: ('A' for Active; 'I' for Inactive)
REMARK    1  A    between atoms: C_5  and  C_21
REMARK    2  A    between atoms: C_7  and  C_14
REMARK    3  A    between atoms: N_13  and  C_16
REMARK    4  A    between atoms: C_16  and  C_18
REMARK    5  A    between atoms: C_18  and  O_19
REMARK    6  A    between atoms: C_21  and  C_22
REMARK    7  A    between atoms: C_22  and  C_23
REMARK                            x       y       z     vdW  Elec       q    Type
REMARK                         _______ _______ _______ _____ _____    ______ ____
ROOT
ATOM      1  O   UNL     1     -38.758  23.286   0.888  0.00  0.00    -0.290 OA
ATOM      2  N   UNL     1     -36.047  22.760   3.794  0.00  0.00    -0.222 N 
ATOM      3  N   UNL     1     -35.250  22.850   4.879  0.00  0.00    -0.201 NA
ATOM      4  N   UNL     1     -36.586  24.695   4.948  0.00  0.00    -0.239 NA
ATOM      5  C   UNL     1     -36.132  21.815   2.793  0.00  0.00    +0.049 C 
ATOM      6  C   UNL     1     -36.867  23.892   3.835  0.00  0.00    +0.137 C 
ATOM      7  C   UNL     1     -37.800  24.140   2.898  0.00  0.00    +0.193 C 
ATOM      8  C   UNL     1     -37.028  21.953   1.797  0.00  0.00    +0.050 C 
ATOM      9  C   UNL     1     -37.933  23.142   1.787  0.00  0.00    +0.189 C 
ATOM     10  C   UNL     1     -35.620  24.009   5.511  0.00  0.00    +0.216 C 
ATOM     11  H   UNL     1     -34.550  22.218   5.158  0.00  0.00    +0.148 HD
ENDROOT
BRANCH   7  14
ATOM     12  O   UNL     1     -38.199  26.442   2.658  0.00  0.00    -0.274 OA
ATOM     13  N   UNL     1     -39.916  25.074   3.444  0.00  0.00    -0.294 N 
ATOM     14  C   UNL     1     -38.639  25.339   2.981  0.00  0.00    +0.237 C 
ATOM     15  H   UNL     1     -40.146  24.143   3.671  0.00  0.00    +0.150 HD
BRANCH  13  16
ATOM     16  C   UNL     1     -40.927  26.092   3.615  0.00  0.00    +0.200 C 
BRANCH  16  18
ATOM     17  O   UNL     1     -42.656  25.852   1.956  0.00  0.00    -0.248 OA
ATOM     18  C   UNL     1     -41.643  26.429   2.332  0.00  0.00    +0.334 C 
BRANCH  18  19
ATOM     19  O   UNL     1     -41.058  27.429   1.633  0.00  0.00    -0.479 OA
ATOM     20  H   UNL     1     -40.125  27.461   1.553  0.00  0.00    +0.295 HD
ENDBRANCH  18  19
ENDBRANCH  16  18
ENDBRANCH  13  16
ENDBRANCH   7  14
BRANCH   5  21
ATOM     21  C   UNL     1     -35.202  20.638   2.845  0.00  0.00    +0.048 C 
BRANCH  21  22
ATOM     22  C   UNL     1     -35.101  19.895   1.512  0.00  0.00    +0.032 C 
BRANCH  22  23
ATOM     23  C   UNL     1     -33.681  19.618   1.081  0.00  0.00    -0.022 C 
ATOM     24  C   UNL     1     -32.989  20.556   0.315  0.00  0.00    -0.004 C 
ATOM     25  C   UNL     1     -33.061  18.424   1.451  0.00  0.00    -0.004 C 
ATOM     26  C   UNL     1     -31.676  20.299  -0.084  0.00  0.00    -0.000 C 
ATOM     27  C   UNL     1     -31.748  18.168   1.053  0.00  0.00    -0.000 C 
ATOM     28  C   UNL     1     -31.056  19.105   0.286  0.00  0.00    -0.000 C 
ENDBRANCH  22  23
ENDBRANCH  21  22
ENDBRANCH   5  21
TORSDOF 7
ENDMDL
MODEL 4
REMARK VINA RESULT:      -6.4      1.320      1.861
REMARK  Name = 50899324
REMARK  7 active torsions:
REMARK  status: ('A' for Active; 'I' for Inactive)
REMARK    1  A    between atoms: C_5  and  C_21
REMARK    2  A    between atoms: C_7  and  C_14
REMARK    3  A    between atoms: N_13  and  C_16
REMARK    4  A    between atoms: C_16  and  C_18
REMARK    5  A    between atoms: C_18  and  O_19
REMARK    6  A    between atoms: C_21  and  C_22
REMARK    7  A    between atoms: C_22  and  C_23
REMARK                            x       y       z     vdW  Elec       q    Type
REMARK                         _______ _______ _______ _____ _____    ______ ____
ROOT
ATOM      1  O   UNL     1     -33.433  26.204   1.008  0.00  0.00    -0.290 OA
ATOM      2  N   UNL     1     -35.057  23.567   3.553  0.00  0.00    -0.222 N 
ATOM      3  N   UNL     1     -35.579  22.914   4.612  0.00  0.00    -0.201 NA
ATOM      4  N   UNL     1     -35.068  25.000   5.374  0.00  0.00    -0.239 NA
ATOM      5  C   UNL     1     -34.831  23.173   2.250  0.00  0.00    +0.049 C 
ATOM      6  C   UNL     1     -34.743  24.848   4.019  0.00  0.00    +0.137 C 
ATOM      7  C   UNL     1     -34.196  25.788   3.229  0.00  0.00    +0.193 C 
ATOM      8  C   UNL     1     -34.287  24.027   1.363  0.00  0.00    +0.050 C 
ATOM      9  C   UNL     1     -33.929  25.410   1.803  0.00  0.00    +0.189 C 
ATOM     10  C   UNL     1     -35.555  23.812   5.646  0.00  0.00    +0.216 C 
ATOM     11  H   UNL     1     -35.906  21.986   4.636  0.00  0.00    +0.148 HD
ENDROOT
BRANCH   7  14
ATOM     12  O   UNL     1     -34.764  27.968   3.894  0.00  0.00    -0.274 OA
ATOM     13  N   UNL     1     -32.544  27.277   4.067  0.00  0.00    -0.294 N 
ATOM     14  C   UNL     1     -33.884  27.118   3.759  0.00  0.00    +0.237 C 
ATOM     15  H   UNL     1     -31.937  26.518   3.912  0.00  0.00    +0.150 HD
BRANCH  13  16
ATOM     16  C   UNL     1     -31.991  28.500   4.603  0.00  0.00    +0.200 C 
BRANCH  16  18
ATOM     17  O   UNL     1     -32.194  29.349   6.847  0.00  0.00    -0.248 OA
ATOM     18  C   UNL     1     -31.812  28.457   6.099  0.00  0.00    +0.334 C 
BRANCH  18  19
ATOM     19  O   UNL     1     -31.188  27.339   6.537  0.00  0.00    -0.479 OA
ATOM     20  H   UNL     1     -30.771  27.334   7.376  0.00  0.00    +0.295 HD
ENDBRANCH  18  19
ENDBRANCH  16  18
ENDBRANCH  13  16
ENDBRANCH   7  14
BRANCH   5  21
ATOM     21  C   UNL     1     -35.205  21.774   1.855  0.00  0.00    +0.048 C 
BRANCH  21  22
ATOM     22  C   UNL     1     -34.618  21.356   0.507  0.00  0.00    +0.032 C 
BRANCH  22  23
ATOM     23  C   UNL     1     -33.512  20.335   0.620  0.00  0.00    -0.022 C 
ATOM     24  C   UNL     1     -32.279  20.572   0.013  0.00  0.00    -0.004 C 
ATOM     25  C   UNL     1     -33.722  19.155   1.335  0.00  0.00    -0.004 C 
ATOM     26  C   UNL     1     -31.257  19.627   0.117  0.00  0.00    -0.000 C 
ATOM     27  C   UNL     1     -32.700  18.212   1.440  0.00  0.00    -0.000 C 
ATOM     28  C   UNL     1     -31.467  18.448   0.832  0.00  0.00    -0.000 C 
ENDBRANCH  22  23
ENDBRANCH  21  22
ENDBRANCH   5  21
TORSDOF 7
ENDMDL
MODEL 5
REMARK VINA RESULT:      -6.4      4.358      7.916
REMARK  Name = 50899324
REMARK  7 active torsions:
REMARK  status: ('A' for Active; 'I' for Inactive)
REMARK    1  A    between atoms: C_5  and  C_21
REMARK    2  A    between atoms: C_7  and  C_14
REMARK    3  A    between atoms: N_13  and  C_16
REMARK    4  A    between atoms: C_16  and  C_18
REMARK    5  A    between atoms: C_18  and  O_19
REMARK    6  A    between atoms: C_21  and  C_22
REMARK    7  A    between atoms: C_22  and  C_23
REMARK                            x       y       z     vdW  Elec       q    Type
REMARK                         _______ _______ _______ _____ _____    ______ ____
ROOT
ATOM      1  O   UNL     1     -35.807  21.415   3.356  0.00  0.00    -0.290 OA
ATOM      2  N   UNL     1     -37.527  25.008   3.806  0.00  0.00    -0.222 N 
ATOM      3  N   UNL     1     -38.298  26.112   3.737  0.00  0.00    -0.201 NA
ATOM      4  N   UNL     1     -39.174  24.661   2.213  0.00  0.00    -0.239 NA
ATOM      5  C   UNL     1     -36.428  24.701   4.582  0.00  0.00    +0.049 C 
ATOM      6  C   UNL     1     -38.063  24.116   2.871  0.00  0.00    +0.137 C 
ATOM      7  C   UNL     1     -37.544  22.894   2.660  0.00  0.00    +0.193 C 
ATOM      8  C   UNL     1     -35.820  23.505   4.462  0.00  0.00    +0.050 C 
ATOM      9  C   UNL     1     -36.347  22.511   3.479  0.00  0.00    +0.189 C 
ATOM     10  C   UNL     1     -39.244  25.841   2.783  0.00  0.00    +0.216 C 
ATOM     11  H   UNL     1     -38.201  26.940   4.261  0.00  0.00    +0.148 HD
ENDROOT
BRANCH   7  14
ATOM     12  O   UNL     1     -39.162  21.359   1.927  0.00  0.00    -0.274 OA
ATOM     13  N   UNL     1     -37.431  21.950   0.482  0.00  0.00    -0.294 N 
ATOM     14  C   UNL     1     -38.138  21.991   1.671  0.00  0.00    +0.237 C 
ATOM     15  H   UNL     1     -36.622  22.506   0.401  0.00  0.00    +0.150 HD
BRANCH  13  16
ATOM     16  C   UNL     1     -37.817  21.133  -0.646  0.00  0.00    +0.200 C 
BRANCH  16  18
ATOM     17  O   UNL     1     -36.408  19.182  -0.632  0.00  0.00    -0.248 OA
ATOM     18  C   UNL     1     -37.514  19.671  -0.442  0.00  0.00    +0.334 C 
BRANCH  18  19
ATOM     19  O   UNL     1     -38.583  18.950  -0.029  0.00  0.00    -0.479 OA
ATOM     20  H   UNL     1     -38.840  18.182  -0.501  0.00  0.00    +0.295 HD
ENDBRANCH  18  19
ENDBRANCH  16  18
ENDBRANCH  13  16
ENDBRANCH   7  14
BRANCH   5  21
ATOM     21  C   UNL     1     -35.935  25.732   5.554  0.00  0.00    +0.048 C 
BRANCH  21  22
ATOM     22  C   UNL     1     -34.503  25.473   6.025  0.00  0.00    +0.032 C 
BRANCH  22  23
ATOM     23  C   UNL     1     -33.555  26.611   5.730  0.00  0.00    -0.022 C 
ATOM     24  C   UNL     1     -33.441  27.104   4.431  0.00  0.00    -0.004 C 
ATOM     25  C   UNL     1     -32.795  27.169   6.758  0.00  0.00    -0.004 C 
ATOM     26  C   UNL     1     -32.564  28.155   4.158  0.00  0.00    -0.000 C 
ATOM     27  C   UNL     1     -31.920  28.220   6.485  0.00  0.00    -0.000 C 
ATOM     28  C   UNL     1     -31.804  28.713   5.186  0.00  0.00    -0.000 C 
ENDBRANCH  22  23
ENDBRANCH  21  22
ENDBRANCH   5  21
TORSDOF 7
ENDMDL
MODEL 6
REMARK VINA RESULT:      -6.3      3.756      5.058
REMARK  Name = 50899324
REMARK  7 active torsions:
REMARK  status: ('A' for Active; 'I' for Inactive)
REMARK    1  A    between atoms: C_5  and  C_21
REMARK    2  A    between atoms: C_7  and  C_14
REMARK    3  A    between atoms: N_13  and  C_16
REMARK    4  A    between atoms: C_16  and  C_18
REMARK    5  A    between atoms: C_18  and  O_19
REMARK    6  A    between atoms: C_21  and  C_22
REMARK    7  A    between atoms: C_22  and  C_23
REMARK                            x       y       z     vdW  Elec       q    Type
REMARK                         _______ _______ _______ _____ _____    ______ ____
ROOT
ATOM      1  O   UNL     1     -38.669  20.509  -0.209  0.00  0.00    -0.290 OA
ATOM      2  N   UNL     1     -35.859  21.352   2.523  0.00  0.00    -0.222 N 
ATOM      3  N   UNL     1     -35.127  21.834   3.548  0.00  0.00    -0.201 NA
ATOM      4  N   UNL     1     -37.120  22.936   3.650  0.00  0.00    -0.239 NA
ATOM      5  C   UNL     1     -35.579  20.405   1.559  0.00  0.00    +0.049 C 
ATOM      6  C   UNL     1     -37.082  22.028   2.584  0.00  0.00    +0.137 C 
ATOM      7  C   UNL     1     -38.075  21.802   1.705  0.00  0.00    +0.193 C 
ATOM      8  C   UNL     1     -36.495  20.092   0.623  0.00  0.00    +0.050 C 
ATOM      9  C   UNL     1     -37.821  20.781   0.636  0.00  0.00    +0.189 C 
ATOM     10  C   UNL     1     -35.927  22.759   4.168  0.00  0.00    +0.216 C 
ATOM     11  H   UNL     1     -34.211  21.576   3.799  0.00  0.00    +0.148 HD
ENDROOT
BRANCH   7  14
ATOM     12  O   UNL     1     -40.404  21.934   1.971  0.00  0.00    -0.274 OA
ATOM     13  N   UNL     1     -39.185  23.903   1.697  0.00  0.00    -0.294 N 
ATOM     14  C   UNL     1     -39.341  22.532   1.806  0.00  0.00    +0.237 C 
ATOM     15  H   UNL     1     -38.277  24.260   1.566  0.00  0.00    +0.150 HD
BRANCH  13  16
ATOM     16  C   UNL     1     -40.287  24.836   1.764  0.00  0.00    +0.200 C 
BRANCH  16  18
ATOM     17  O   UNL     1     -40.788  26.754   3.130  0.00  0.00    -0.248 OA
ATOM     18  C   UNL     1     -40.304  25.632   3.043  0.00  0.00    +0.334 C 
BRANCH  18  19
ATOM     19  O   UNL     1     -39.732  24.990   4.088  0.00  0.00    -0.479 OA
ATOM     20  H   UNL     1     -40.143  25.008   4.931  0.00  0.00    +0.295 HD
ENDBRANCH  18  19
ENDBRANCH  16  18
ENDBRANCH  13  16
ENDBRANCH   7  14
BRANCH   5  21
ATOM     21  C   UNL     1     -34.234  19.740   1.586  0.00  0.00    +0.048 C 
BRANCH  21  22
ATOM     22  C   UNL     1     -33.257  20.327   0.566  0.00  0.00    +0.032 C 
BRANCH  22  23
ATOM     23  C   UNL     1     -31.963  19.555   0.456  0.00  0.00    -0.022 C 
ATOM     24  C   UNL     1     -31.838  18.312   1.074  0.00  0.00    -0.004 C 
ATOM     25  C   UNL     1     -30.894  20.087  -0.266  0.00  0.00    -0.004 C 
ATOM     26  C   UNL     1     -30.642  17.599   0.973  0.00  0.00    -0.000 C 
ATOM     27  C   UNL     1     -29.700  19.374  -0.368  0.00  0.00    -0.000 C 
ATOM     28  C   UNL     1     -29.573  18.130   0.251  0.00  0.00    -0.000 C 
ENDBRANCH  22  23
ENDBRANCH  21  22
ENDBRANCH   5  21
TORSDOF 7
ENDMDL
MODEL 7
REMARK VINA RESULT:      -6.3      4.502      8.368
REMARK  Name = 50899324
REMARK  7 active torsions:
REMARK  status: ('A' for Active; 'I' for Inactive)
REMARK    1  A    between atoms: C_5  and  C_21
REMARK    2  A    between atoms: C_7  and  C_14
REMARK    3  A    between atoms: N_13  and  C_16
REMARK    4  A    between atoms: C_16  and  C_18
REMARK    5  A    between atoms: C_18  and  O_19
REMARK    6  A    between atoms: C_21  and  C_22
REMARK    7  A    between atoms: C_22  and  C_23
REMARK                            x       y       z     vdW  Elec       q    Type
REMARK                         _______ _______ _______ _____ _____    ______ ____
ROOT
ATOM      1  O   UNL     1     -34.210  19.534   1.870  0.00  0.00    -0.290 OA
ATOM      2  N   UNL     1     -37.351  21.946   2.492  0.00  0.00    -0.222 N 
ATOM      3  N   UNL     1     -38.528  22.604   2.460  0.00  0.00    -0.201 NA
ATOM      4  N   UNL     1     -38.631  21.087   0.762  0.00  0.00    -0.239 NA
ATOM      5  C   UNL     1     -36.252  22.069   3.316  0.00  0.00    +0.049 C 
ATOM      6  C   UNL     1     -37.412  21.015   1.450  0.00  0.00    +0.137 C 
ATOM      7  C   UNL     1     -36.401  20.171   1.177  0.00  0.00    +0.193 C 
ATOM      8  C   UNL     1     -35.175  21.279   3.141  0.00  0.00    +0.050 C 
ATOM      9  C   UNL     1     -35.182  20.265   2.044  0.00  0.00    +0.189 C 
ATOM     10  C   UNL     1     -39.230  22.050   1.421  0.00  0.00    +0.216 C 
ATOM     11  H   UNL     1     -38.821  23.330   3.056  0.00  0.00    +0.148 HD
ENDROOT
BRANCH   7  14
ATOM     12  O   UNL     1     -35.819  19.330  -0.937  0.00  0.00    -0.274 OA
ATOM     13  N   UNL     1     -37.435  18.212   0.318  0.00  0.00    -0.294 N 
ATOM     14  C   UNL     1     -36.509  19.210   0.076  0.00  0.00    +0.237 C 
ATOM     15  H   UNL     1     -37.926  18.227   1.172  0.00  0.00    +0.150 HD
BRANCH  13  16
ATOM     16  C   UNL     1     -37.723  17.149  -0.618  0.00  0.00    +0.200 C 
BRANCH  16  18
ATOM     17  O   UNL     1     -38.748  15.056  -0.013  0.00  0.00    -0.248 OA
ATOM     18  C   UNL     1     -37.769  15.790   0.034  0.00  0.00    +0.334 C 
BRANCH  18  19
ATOM     19  O   UNL     1     -36.625  15.460   0.677  0.00  0.00    -0.479 OA
ATOM     20  H   UNL     1     -35.807  15.481   0.219  0.00  0.00    +0.295 HD
ENDBRANCH  18  19
ENDBRANCH  16  18
ENDBRANCH  13  16
ENDBRANCH   7  14
BRANCH   5  21
ATOM     21  C   UNL     1     -36.291  23.103   4.404  0.00  0.00    +0.048 C 
BRANCH  21  22
ATOM     22  C   UNL     1     -34.935  23.311   5.081  0.00  0.00    +0.032 C 
BRANCH  22  23
ATOM     23  C   UNL     1     -34.325  24.664   4.807  0.00  0.00    -0.022 C 
ATOM     24  C   UNL     1     -34.101  25.553   5.857  0.00  0.00    -0.004 C 
ATOM     25  C   UNL     1     -33.983  25.023   3.503  0.00  0.00    -0.004 C 
ATOM     26  C   UNL     1     -33.536  26.805   5.603  0.00  0.00    -0.000 C 
ATOM     27  C   UNL     1     -33.418  26.274   3.250  0.00  0.00    -0.000 C 
ATOM     28  C   UNL     1     -33.195  27.164   4.299  0.00  0.00    -0.000 C 
ENDBRANCH  22  23
ENDBRANCH  21  22
ENDBRANCH   5  21
TORSDOF 7
ENDMDL
MODEL 8
REMARK VINA RESULT:      -6.2      4.417      5.581
REMARK  Name = 50899324
REMARK  7 active torsions:
REMARK  status: ('A' for Active; 'I' for Inactive)
REMARK    1  A    between atoms: C_5  and  C_21
REMARK    2  A    between atoms: C_7  and  C_14
REMARK    3  A    between atoms: N_13  and  C_16
REMARK    4  A    between atoms: C_16  and  C_18
REMARK    5  A    between atoms: C_18  and  O_19
REMARK    6  A    between atoms: C_21  and  C_22
REMARK    7  A    between atoms: C_22  and  C_23
REMARK                            x       y       z     vdW  Elec       q    Type
REMARK                         _______ _______ _______ _____ _____    ______ ____
ROOT
ATOM      1  O   UNL     1     -38.120  26.972   2.166  0.00  0.00    -0.290 OA
ATOM      2  N   UNL     1     -37.923  22.967   2.166  0.00  0.00    -0.222 N 
ATOM      3  N   UNL     1     -38.166  21.641   2.172  0.00  0.00    -0.201 NA
ATOM      4  N   UNL     1     -40.215  22.637   2.204  0.00  0.00    -0.239 NA
ATOM      5  C   UNL     1     -36.745  23.686   2.146  0.00  0.00    +0.049 C 
ATOM      6  C   UNL     1     -39.180  23.580   2.187  0.00  0.00    +0.137 C 
ATOM      7  C   UNL     1     -39.330  24.917   2.188  0.00  0.00    +0.193 C 
ATOM      8  C   UNL     1     -36.766  25.032   2.145  0.00  0.00    +0.050 C 
ATOM      9  C   UNL     1     -38.080  25.744   2.167  0.00  0.00    +0.189 C 
ATOM     10  C   UNL     1     -39.530  21.518   2.194  0.00  0.00    +0.216 C 
ATOM     11  H   UNL     1     -37.502  20.914   2.162  0.00  0.00    +0.148 HD
ENDROOT
BRANCH   7  14
ATOM     12  O   UNL     1     -41.381  25.504   1.206  0.00  0.00    -0.274 OA
ATOM     13  N   UNL     1     -40.994  26.066   3.436  0.00  0.00    -0.294 N 
ATOM     14  C   UNL     1     -40.667  25.517   2.209  0.00  0.00    +0.237 C 
ATOM     15  H   UNL     1     -40.332  26.012   4.163  0.00  0.00    +0.150 HD
BRANCH  13  16
ATOM     16  C   UNL     1     -42.257  26.717   3.705  0.00  0.00    +0.200 C 
BRANCH  16  18
ATOM     17  O   UNL     1     -41.980  28.826   4.832  0.00  0.00    -0.248 OA
ATOM     18  C   UNL     1     -42.139  28.218   3.781  0.00  0.00    +0.334 C 
BRANCH  18  19
ATOM     19  O   UNL     1     -42.226  28.829   2.576  0.00  0.00    -0.479 OA
ATOM     20  H   UNL     1     -41.446  29.036   2.099  0.00  0.00    +0.295 HD
ENDBRANCH  18  19
ENDBRANCH  16  18
ENDBRANCH  13  16
ENDBRANCH   7  14
BRANCH   5  21
ATOM     21  C   UNL     1     -35.450  22.928   2.125  0.00  0.00    +0.048 C 
BRANCH  21  22
ATOM     22  C   UNL     1     -35.075  22.420   0.732  0.00  0.00    +0.032 C 
BRANCH  22  23
ATOM     23  C   UNL     1     -34.117  21.253   0.752  0.00  0.00    -0.022 C 
ATOM     24  C   UNL     1     -34.442  20.097   1.459  0.00  0.00    -0.004 C 
ATOM     25  C   UNL     1     -32.909  21.333   0.060  0.00  0.00    -0.004 C 
ATOM     26  C   UNL     1     -33.556  19.018   1.477  0.00  0.00    -0.000 C 
ATOM     27  C   UNL     1     -32.024  20.255   0.077  0.00  0.00    -0.000 C 
ATOM     28  C   UNL     1     -32.347  19.098   0.786  0.00  0.00    -0.000 C 
ENDBRANCH  22  23
ENDBRANCH  21  22
ENDBRANCH   5  21
TORSDOF 7
ENDMDL
MODEL 9
REMARK VINA RESULT:      -6.2      4.198      6.558
REMARK  Name = 50899324
REMARK  7 active torsions:
REMARK  status: ('A' for Active; 'I' for Inactive)
REMARK    1  A    between atoms: C_5  and  C_21
REMARK    2  A    between atoms: C_7  and  C_14
REMARK    3  A    between atoms: N_13  and  C_16
REMARK    4  A    between atoms: C_16  and  C_18
REMARK    5  A    between atoms: C_18  and  O_19
REMARK    6  A    between atoms: C_21  and  C_22
REMARK    7  A    between atoms: C_22  and  C_23
REMARK                            x       y       z     vdW  Elec       q    Type
REMARK                         _______ _______ _______ _____ _____    ______ ____
ROOT
ATOM      1  O   UNL     1     -35.598  27.728   2.171  0.00  0.00    -0.290 OA
ATOM      2  N   UNL     1     -36.576  24.238   3.884  0.00  0.00    -0.222 N 
ATOM      3  N   UNL     1     -36.612  23.072   4.561  0.00  0.00    -0.201 NA
ATOM      4  N   UNL     1     -34.500  23.881   4.850  0.00  0.00    -0.239 NA
ATOM      5  C   UNL     1     -37.533  24.900   3.143  0.00  0.00    +0.049 C 
ATOM      6  C   UNL     1     -35.281  24.735   4.060  0.00  0.00    +0.137 C 
ATOM      7  C   UNL     1     -34.875  25.898   3.518  0.00  0.00    +0.193 C 
ATOM      8  C   UNL     1     -37.246  26.075   2.551  0.00  0.00    +0.050 C 
ATOM      9  C   UNL     1     -35.878  26.657   2.703  0.00  0.00    +0.189 C 
ATOM     10  C   UNL     1     -35.362  22.924   5.104  0.00  0.00    +0.216 C 
ATOM     11  H   UNL     1     -37.375  22.457   4.648  0.00  0.00    +0.148 HD
ENDROOT
BRANCH   7  14
ATOM     12  O   UNL     1     -32.551  25.831   3.185  0.00  0.00    -0.274 OA
ATOM     13  N   UNL     1     -33.447  27.477   4.574  0.00  0.00    -0.294 N 
ATOM     14  C   UNL     1     -33.508  26.382   3.729  0.00  0.00    +0.237 C 
ATOM     15  H   UNL     1     -34.289  27.826   4.947  0.00  0.00    +0.150 HD
BRANCH  13  16
ATOM     16  C   UNL     1     -32.211  28.133   4.937  0.00  0.00    +0.200 C 
BRANCH  16  18
ATOM     17  O   UNL     1     -31.843  29.275   7.024  0.00  0.00    -0.248 OA
ATOM     18  C   UNL     1     -32.009  28.217   6.428  0.00  0.00    +0.334 C 
BRANCH  18  19
ATOM     19  O   UNL     1     -32.026  27.013   7.045  0.00  0.00    -0.479 OA
ATOM     20  H   UNL     1     -31.506  26.873   7.812  0.00  0.00    +0.295 HD
ENDBRANCH  18  19
ENDBRANCH  16  18
ENDBRANCH  13  16
ENDBRANCH   7  14
BRANCH   5  21
ATOM     21  C   UNL     1     -38.892  24.277   3.018  0.00  0.00    +0.048 C 
BRANCH  21  22
ATOM     22  C   UNL     1     -39.672  24.780   1.802  0.00  0.00    +0.032 C 
BRANCH  22  23
ATOM     23  C   UNL     1     -40.986  25.434   2.156  0.00  0.00    -0.022 C 
ATOM     24  C   UNL     1     -42.110  25.214   1.361  0.00  0.00    -0.004 C 
ATOM     25  C   UNL     1     -41.076  26.255   3.280  0.00  0.00    -0.004 C 
ATOM     26  C   UNL     1     -43.325  25.819   1.688  0.00  0.00    -0.000 C 
ATOM     27  C   UNL     1     -42.290  26.859   3.607  0.00  0.00    -0.000 C 
ATOM     28  C   UNL     1     -43.415  26.641   2.811  0.00  0.00    -0.000 C 
ENDBRANCH  22  23
ENDBRANCH  21  22
ENDBRANCH   5  21
TORSDOF 7
ENDMDL
