MODEL 1
REMARK VINA RESULT:      -5.4      0.000      0.000
REMARK  Name = 5460732
REMARK  3 active torsions:
REMARK  status: ('A' for Active; 'I' for Inactive)
REMARK    1  A    between atoms: C_1  and  C_9
REMARK    2  A    between atoms: C_2  and  C_12
REMARK    3  A    between atoms: C_3  and  C_15
REMARK                            x       y       z     vdW  Elec       q    Type
REMARK                         _______ _______ _______ _____ _____    ______ ____
ROOT
ATOM      1  C   UNL     1     -36.900  25.056   4.024  0.00  0.00    +0.080 C 
ATOM      2  C   UNL     1     -35.457  23.394   5.018  0.00  0.00    +0.080 C 
ATOM      3  C   UNL     1     -34.738  25.698   4.891  0.00  0.00    +0.080 C 
ATOM      4  C   UNL     1     -36.658  23.735   4.398  0.00  0.00    +0.013 C 
ATOM      5  C   UNL     1     -35.940  26.038   4.271  0.00  0.00    +0.013 C 
ATOM      6  C   UNL     1     -34.496  24.376   5.265  0.00  0.00    +0.013 C 
ENDROOT
BRANCH   1   9
ATOM      7  O   UNL     1     -39.194  24.660   3.547  0.00  0.00    -0.241 OA
ATOM      8  O   UNL     1     -38.209  26.477   2.638  0.00  0.00    -0.241 OA
ATOM      9  C   UNL     1     -38.168  25.416   3.369  0.00  0.00    +0.388 C 
ENDBRANCH   1   9
BRANCH   2  12
ATOM     10  O   UNL     1     -35.223  21.086   4.503  0.00  0.00    -0.241 OA
ATOM     11  O   UNL     1     -34.965  21.737   6.649  0.00  0.00    -0.241 OA
ATOM     12  C   UNL     1     -35.201  21.999   5.411  0.00  0.00    +0.388 C 
ENDBRANCH   2  12
BRANCH   3  15
ATOM     13  O   UNL     1     -32.943  26.595   6.166  0.00  0.00    -0.241 OA
ATOM     14  O   UNL     1     -33.653  27.744   4.357  0.00  0.00    -0.241 OA
ATOM     15  C   UNL     1     -33.725  26.733   5.152  0.00  0.00    +0.388 C 
ENDBRANCH   3  15
TORSDOF 3
ENDMDL
MODEL 2
REMARK VINA RESULT:      -5.4      0.060      4.778
REMARK  Name = 5460732
REMARK  3 active torsions:
REMARK  status: ('A' for Active; 'I' for Inactive)
REMARK    1  A    between atoms: C_1  and  C_9
REMARK    2  A    between atoms: C_2  and  C_12
REMARK    3  A    between atoms: C_3  and  C_15
REMARK                            x       y       z     vdW  Elec       q    Type
REMARK                         _______ _______ _______ _____ _____    ______ ____
ROOT
ATOM      1  C   UNL     1     -35.463  23.421   5.069  0.00  0.00    +0.080 C 
ATOM      2  C   UNL     1     -34.740  25.722   4.930  0.00  0.00    +0.080 C 
ATOM      3  C   UNL     1     -36.891  25.075   4.039  0.00  0.00    +0.080 C 
ATOM      4  C   UNL     1     -34.506  24.404   5.320  0.00  0.00    +0.013 C 
ATOM      5  C   UNL     1     -36.656  23.757   4.429  0.00  0.00    +0.013 C 
ATOM      6  C   UNL     1     -35.934  26.058   4.290  0.00  0.00    +0.013 C 
ENDROOT
BRANCH   1   9
ATOM      7  O   UNL     1     -34.999  21.780   6.725  0.00  0.00    -0.241 OA
ATOM      8  O   UNL     1     -35.223  21.107   4.582  0.00  0.00    -0.241 OA
ATOM      9  C   UNL     1     -35.215  22.029   5.481  0.00  0.00    +0.388 C 
ENDBRANCH   1   9
BRANCH   2  12
ATOM     10  O   UNL     1     -33.631  27.749   4.375  0.00  0.00    -0.241 OA
ATOM     11  O   UNL     1     -32.977  26.641   6.231  0.00  0.00    -0.241 OA
ATOM     12  C   UNL     1     -33.729  26.758   5.193  0.00  0.00    +0.388 C 
ENDBRANCH   2  12
BRANCH   3  15
ATOM     13  O   UNL     1     -38.168  26.452   2.581  0.00  0.00    -0.241 OA
ATOM     14  O   UNL     1     -39.193  24.704   3.576  0.00  0.00    -0.241 OA
ATOM     15  C   UNL     1     -38.150  25.429   3.363  0.00  0.00    +0.388 C 
ENDBRANCH   3  15
TORSDOF 3
ENDMDL
MODEL 3
REMARK VINA RESULT:      -5.4      0.619      3.923
REMARK  Name = 5460732
REMARK  3 active torsions:
REMARK  status: ('A' for Active; 'I' for Inactive)
REMARK    1  A    between atoms: C_1  and  C_9
REMARK    2  A    between atoms: C_2  and  C_12
REMARK    3  A    between atoms: C_3  and  C_15
REMARK                            x       y       z     vdW  Elec       q    Type
REMARK                         _______ _______ _______ _____ _____    ______ ____
ROOT
ATOM      1  C   UNL     1     -35.587  23.579   5.040  0.00  0.00    +0.080 C 
ATOM      2  C   UNL     1     -36.659  25.387   3.849  0.00  0.00    +0.080 C 
ATOM      3  C   UNL     1     -34.541  25.755   4.953  0.00  0.00    +0.080 C 
ATOM      4  C   UNL     1     -36.650  24.059   4.275  0.00  0.00    +0.013 C 
ATOM      5  C   UNL     1     -34.532  24.427   5.378  0.00  0.00    +0.013 C 
ATOM      6  C   UNL     1     -35.604  26.235   4.188  0.00  0.00    +0.013 C 
ENDROOT
BRANCH   1   9
ATOM      7  O   UNL     1     -35.203  21.264   4.663  0.00  0.00    -0.241 OA
ATOM      8  O   UNL     1     -35.944  21.911   6.695  0.00  0.00    -0.241 OA
ATOM      9  C   UNL     1     -35.577  22.177   5.489  0.00  0.00    +0.388 C 
ENDBRANCH   1   9
BRANCH   2  12
ATOM     10  O   UNL     1     -37.572  26.877   2.238  0.00  0.00    -0.241 OA
ATOM     11  O   UNL     1     -38.936  25.338   3.169  0.00  0.00    -0.241 OA
ATOM     12  C   UNL     1     -37.782  25.893   3.043  0.00  0.00    +0.388 C 
ENDBRANCH   2  12
BRANCH   3  15
ATOM     13  O   UNL     1     -33.283  26.998   6.541  0.00  0.00    -0.241 OA
ATOM     14  O   UNL     1     -32.637  27.056   4.380  0.00  0.00    -0.241 OA
ATOM     15  C   UNL     1     -33.429  26.650   5.310  0.00  0.00    +0.388 C 
ENDBRANCH   3  15
TORSDOF 3
ENDMDL
MODEL 4
REMARK VINA RESULT:      -5.4      0.661      4.966
REMARK  Name = 5460732
REMARK  3 active torsions:
REMARK  status: ('A' for Active; 'I' for Inactive)
REMARK    1  A    between atoms: C_1  and  C_9
REMARK    2  A    between atoms: C_2  and  C_12
REMARK    3  A    between atoms: C_3  and  C_15
REMARK                            x       y       z     vdW  Elec       q    Type
REMARK                         _______ _______ _______ _____ _____    ______ ____
ROOT
ATOM      1  C   UNL     1     -34.542  25.785   4.975  0.00  0.00    +0.080 C 
ATOM      2  C   UNL     1     -36.623  25.433   3.800  0.00  0.00    +0.080 C 
ATOM      3  C   UNL     1     -35.593  23.609   5.007  0.00  0.00    +0.080 C 
ATOM      4  C   UNL     1     -35.579  26.274   4.182  0.00  0.00    +0.013 C 
ATOM      5  C   UNL     1     -34.549  24.452   5.388  0.00  0.00    +0.013 C 
ATOM      6  C   UNL     1     -36.630  24.100   4.213  0.00  0.00    +0.013 C 
ENDROOT
BRANCH   1   9
ATOM      7  O   UNL     1     -33.292  26.951   6.626  0.00  0.00    -0.241 OA
ATOM      8  O   UNL     1     -32.659  27.144   4.468  0.00  0.00    -0.241 OA
ATOM      9  C   UNL     1     -33.439  26.674   5.378  0.00  0.00    +0.388 C 
ENDBRANCH   1   9
BRANCH   2  12
ATOM     10  O   UNL     1     -38.872  25.386   3.034  0.00  0.00    -0.241 OA
ATOM     11  O   UNL     1     -37.482  26.948   2.184  0.00  0.00    -0.241 OA
ATOM     12  C   UNL     1     -37.716  25.950   2.961  0.00  0.00    +0.388 C 
ENDBRANCH   2  12
BRANCH   3  15
ATOM     13  O   UNL     1     -35.233  21.294   4.609  0.00  0.00    -0.241 OA
ATOM     14  O   UNL     1     -35.975  21.929   6.643  0.00  0.00    -0.241 OA
ATOM     15  C   UNL     1     -35.601  22.204   5.442  0.00  0.00    +0.388 C 
ENDBRANCH   3  15
TORSDOF 3
ENDMDL
MODEL 5
REMARK VINA RESULT:      -5.4      0.652      3.991
REMARK  Name = 5460732
REMARK  3 active torsions:
REMARK  status: ('A' for Active; 'I' for Inactive)
REMARK    1  A    between atoms: C_1  and  C_9
REMARK    2  A    between atoms: C_2  and  C_12
REMARK    3  A    between atoms: C_3  and  C_15
REMARK                            x       y       z     vdW  Elec       q    Type
REMARK                         _______ _______ _______ _____ _____    ______ ____
ROOT
ATOM      1  C   UNL     1     -34.545  25.771   4.971  0.00  0.00    +0.080 C 
ATOM      2  C   UNL     1     -35.592  23.595   4.998  0.00  0.00    +0.080 C 
ATOM      3  C   UNL     1     -36.638  25.424   3.815  0.00  0.00    +0.080 C 
ATOM      4  C   UNL     1     -34.546  24.436   5.373  0.00  0.00    +0.013 C 
ATOM      5  C   UNL     1     -35.591  26.266   4.191  0.00  0.00    +0.013 C 
ATOM      6  C   UNL     1     -36.639  24.089   4.218  0.00  0.00    +0.013 C 
ENDROOT
BRANCH   1   9
ATOM      7  O   UNL     1     -33.306  26.966   6.610  0.00  0.00    -0.241 OA
ATOM      8  O   UNL     1     -32.643  27.101   4.456  0.00  0.00    -0.241 OA
ATOM      9  C   UNL     1     -33.440  26.660   5.367  0.00  0.00    +0.388 C 
ENDBRANCH   1   9
BRANCH   2  12
ATOM     10  O   UNL     1     -35.975  21.903   6.622  0.00  0.00    -0.241 OA
ATOM     11  O   UNL     1     -35.214  21.285   4.589  0.00  0.00    -0.241 OA
ATOM     12  C   UNL     1     -35.594  22.186   5.425  0.00  0.00    +0.388 C 
ENDBRANCH   2  12
BRANCH   3  15
ATOM     13  O   UNL     1     -37.509  26.926   2.192  0.00  0.00    -0.241 OA
ATOM     14  O   UNL     1     -38.904  25.403   3.100  0.00  0.00    -0.241 OA
ATOM     15  C   UNL     1     -37.742  25.945   2.993  0.00  0.00    +0.388 C 
ENDBRANCH   3  15
TORSDOF 3
ENDMDL
MODEL 6
REMARK VINA RESULT:      -5.4      0.643      3.936
REMARK  Name = 5460732
REMARK  3 active torsions:
REMARK  status: ('A' for Active; 'I' for Inactive)
REMARK    1  A    between atoms: C_1  and  C_9
REMARK    2  A    between atoms: C_2  and  C_12
REMARK    3  A    between atoms: C_3  and  C_15
REMARK                            x       y       z     vdW  Elec       q    Type
REMARK                         _______ _______ _______ _____ _____    ______ ____
ROOT
ATOM      1  C   UNL     1     -36.647  25.413   3.817  0.00  0.00    +0.080 C 
ATOM      2  C   UNL     1     -34.545  25.765   4.953  0.00  0.00    +0.080 C 
ATOM      3  C   UNL     1     -35.596  23.590   5.004  0.00  0.00    +0.080 C 
ATOM      4  C   UNL     1     -35.596  26.255   4.179  0.00  0.00    +0.013 C 
ATOM      5  C   UNL     1     -36.647  24.080   4.230  0.00  0.00    +0.013 C 
ATOM      6  C   UNL     1     -34.544  24.432   5.366  0.00  0.00    +0.013 C 
ENDROOT
BRANCH   1   9
ATOM      7  O   UNL     1     -38.911  25.369   3.096  0.00  0.00    -0.241 OA
ATOM      8  O   UNL     1     -37.536  26.927   2.214  0.00  0.00    -0.241 OA
ATOM      9  C   UNL     1     -37.757  25.930   2.999  0.00  0.00    +0.388 C 
ENDBRANCH   1   9
BRANCH   2  12
ATOM     10  O   UNL     1     -33.307  26.985   6.574  0.00  0.00    -0.241 OA
ATOM     11  O   UNL     1     -32.634  27.074   4.422  0.00  0.00    -0.241 OA
ATOM     12  C   UNL     1     -33.436  26.655   5.336  0.00  0.00    +0.388 C 
ENDBRANCH   2  12
BRANCH   3  15
ATOM     13  O   UNL     1     -35.972  21.906   6.639  0.00  0.00    -0.241 OA
ATOM     14  O   UNL     1     -35.220  21.277   4.606  0.00  0.00    -0.241 OA
ATOM     15  C   UNL     1     -35.596  22.184   5.440  0.00  0.00    +0.388 C 
ENDBRANCH   3  15
TORSDOF 3
ENDMDL
MODEL 7
REMARK VINA RESULT:      -5.2      0.756      3.986
REMARK  Name = 5460732
REMARK  3 active torsions:
REMARK  status: ('A' for Active; 'I' for Inactive)
REMARK    1  A    between atoms: C_1  and  C_9
REMARK    2  A    between atoms: C_2  and  C_12
REMARK    3  A    between atoms: C_3  and  C_15
REMARK                            x       y       z     vdW  Elec       q    Type
REMARK                         _______ _______ _______ _____ _____    ______ ____
ROOT
ATOM      1  C   UNL     1     -35.101  25.389   4.637  0.00  0.00    +0.080 C 
ATOM      2  C   UNL     1     -35.717  23.088   4.232  0.00  0.00    +0.080 C 
ATOM      3  C   UNL     1     -37.296  24.860   3.776  0.00  0.00    +0.080 C 
ATOM      4  C   UNL     1     -34.781  24.032   4.654  0.00  0.00    +0.013 C 
ATOM      5  C   UNL     1     -36.359  25.803   4.198  0.00  0.00    +0.013 C 
ATOM      6  C   UNL     1     -36.975  23.503   3.793  0.00  0.00    +0.013 C 
ENDROOT
BRANCH   1   9
ATOM      7  O   UNL     1     -34.035  27.505   4.452  0.00  0.00    -0.241 OA
ATOM      8  O   UNL     1     -33.359  26.103   6.088  0.00  0.00    -0.241 OA
ATOM      9  C   UNL     1     -34.113  26.385   5.082  0.00  0.00    +0.388 C 
ENDBRANCH   1   9
BRANCH   2  12
ATOM     10  O   UNL     1     -35.395  21.001   3.143  0.00  0.00    -0.241 OA
ATOM     11  O   UNL     1     -35.078  21.106   5.375  0.00  0.00    -0.241 OA
ATOM     12  C   UNL     1     -35.379  21.656   4.252  0.00  0.00    +0.388 C 
ENDBRANCH   2  12
BRANCH   3  15
ATOM     13  O   UNL     1     -39.649  24.575   3.601  0.00  0.00    -0.241 OA
ATOM     14  O   UNL     1     -38.714  26.388   2.635  0.00  0.00    -0.241 OA
ATOM     15  C   UNL     1     -38.623  25.297   3.313  0.00  0.00    +0.388 C 
ENDBRANCH   3  15
TORSDOF 3
ENDMDL
MODEL 8
REMARK VINA RESULT:      -5.2      2.223      4.802
REMARK  Name = 5460732
REMARK  3 active torsions:
REMARK  status: ('A' for Active; 'I' for Inactive)
REMARK    1  A    between atoms: C_1  and  C_9
REMARK    2  A    between atoms: C_2  and  C_12
REMARK    3  A    between atoms: C_3  and  C_15
REMARK                            x       y       z     vdW  Elec       q    Type
REMARK                         _______ _______ _______ _____ _____    ______ ____
ROOT
ATOM      1  C   UNL     1     -35.049  23.088   4.717  0.00  0.00    +0.080 C 
ATOM      2  C   UNL     1     -34.296  25.378   4.560  0.00  0.00    +0.080 C 
ATOM      3  C   UNL     1     -34.833  24.142   2.553  0.00  0.00    +0.080 C 
ATOM      4  C   UNL     1     -34.620  24.263   5.332  0.00  0.00    +0.013 C 
ATOM      5  C   UNL     1     -35.157  23.028   3.327  0.00  0.00    +0.013 C 
ATOM      6  C   UNL     1     -34.404  25.318   3.170  0.00  0.00    +0.013 C 
ENDROOT
BRANCH   1   9
ATOM      7  O   UNL     1     -35.073  20.742   5.098  0.00  0.00    -0.241 OA
ATOM      8  O   UNL     1     -35.997  22.091   6.655  0.00  0.00    -0.241 OA
ATOM      9  C   UNL     1     -35.391  21.911   5.533  0.00  0.00    +0.388 C 
ENDBRANCH   1   9
BRANCH   2  12
ATOM     10  O   UNL     1     -33.608  26.602   6.477  0.00  0.00    -0.241 OA
ATOM     11  O   UNL     1     -33.691  27.675   4.492  0.00  0.00    -0.241 OA
ATOM     12  C   UNL     1     -33.841  26.617   5.210  0.00  0.00    +0.388 C 
ENDBRANCH   2  12
BRANCH   3  15
ATOM     13  O   UNL     1     -34.149  24.793   0.372  0.00  0.00    -0.241 OA
ATOM     14  O   UNL     1     -35.838  23.310   0.567  0.00  0.00    -0.241 OA
ATOM     15  C   UNL     1     -34.946  24.079   1.087  0.00  0.00    +0.388 C 
ENDBRANCH   3  15
TORSDOF 3
ENDMDL
MODEL 9
REMARK VINA RESULT:      -5.2      2.193      4.519
REMARK  Name = 5460732
REMARK  3 active torsions:
REMARK  status: ('A' for Active; 'I' for Inactive)
REMARK    1  A    between atoms: C_1  and  C_9
REMARK    2  A    between atoms: C_2  and  C_12
REMARK    3  A    between atoms: C_3  and  C_15
REMARK                            x       y       z     vdW  Elec       q    Type
REMARK                         _______ _______ _______ _____ _____    ______ ____
ROOT
ATOM      1  C   UNL     1     -34.918  24.094   2.502  0.00  0.00    +0.080 C 
ATOM      2  C   UNL     1     -34.355  25.370   4.475  0.00  0.00    +0.080 C 
ATOM      3  C   UNL     1     -35.088  23.077   4.687  0.00  0.00    +0.080 C 
ATOM      4  C   UNL     1     -34.485  25.283   3.089  0.00  0.00    +0.013 C 
ATOM      5  C   UNL     1     -35.219  22.991   3.301  0.00  0.00    +0.013 C 
ATOM      6  C   UNL     1     -34.656  24.266   5.274  0.00  0.00    +0.013 C 
ENDROOT
BRANCH   1   9
ATOM      7  O   UNL     1     -36.236  23.956   0.529  0.00  0.00    -0.241 OA
ATOM      8  O   UNL     1     -33.989  23.973   0.317  0.00  0.00    -0.241 OA
ATOM      9  C   UNL     1     -35.055  24.003   1.039  0.00  0.00    +0.388 C 
ENDBRANCH   1   9
BRANCH   2  12
ATOM     10  O   UNL     1     -33.782  27.673   4.354  0.00  0.00    -0.241 OA
ATOM     11  O   UNL     1     -33.636  26.635   6.353  0.00  0.00    -0.241 OA
ATOM     12  C   UNL     1     -33.901  26.625   5.094  0.00  0.00    +0.388 C 
ENDBRANCH   2  12
BRANCH   3  15
ATOM     13  O   UNL     1     -36.023  22.104   6.643  0.00  0.00    -0.241 OA
ATOM     14  O   UNL     1     -35.058  20.741   5.125  0.00  0.00    -0.241 OA
ATOM     15  C   UNL     1     -35.406  21.913   5.530  0.00  0.00    +0.388 C 
ENDBRANCH   3  15
TORSDOF 3
ENDMDL
