MODEL 1
REMARK VINA RESULT:      -5.2      0.000      0.000
REMARK  Name = 194466
REMARK  7 active torsions:
REMARK  status: ('A' for Active; 'I' for Inactive)
REMARK    1  A    between atoms: C_1  and  O_12
REMARK    2  A    between atoms: C_2  and  O_15
REMARK    3  A    between atoms: C_3  and  N_8
REMARK    4  A    between atoms: O_12  and  C_13
REMARK    5  A    between atoms: O_15  and  P_16
REMARK    6  A    between atoms: P_16  and  O_18
REMARK    7  A    between atoms: P_16  and  O_20
REMARK                            x       y       z     vdW  Elec       q    Type
REMARK                         _______ _______ _______ _____ _____    ______ ____
ROOT
ATOM      1  C   UNL     1     -35.979  24.298   5.090  0.00  0.00    +0.173 C 
ATOM      2  C   UNL     1     -36.806  24.912   4.150  0.00  0.00    +0.184 C 
ATOM      3  C   UNL     1     -35.286  26.788   4.040  0.00  0.00    +0.054 C 
ATOM      4  C   UNL     1     -36.459  26.157   3.626  0.00  0.00    +0.055 C 
ATOM      5  C   UNL     1     -34.805  24.927   5.506  0.00  0.00    +0.041 C 
ATOM      6  C   UNL     1     -34.460  26.172   4.981  0.00  0.00    +0.018 C 
ENDROOT
BRANCH   3   8
ATOM      7  O   UNL     1     -33.155  27.540   2.051  0.00  0.00    -0.275 OA
ATOM      8  N   UNL     1     -34.938  28.032   3.514  0.00  0.00    -0.284 N 
ATOM      9  C   UNL     1     -33.930  28.327   2.588  0.00  0.00    +0.227 C 
ATOM     10  C   UNL     1     -33.872  29.801   2.273  0.00  0.00    +0.095 C 
ATOM     11  H   UNL     1     -35.465  28.798   3.836  0.00  0.00    +0.155 HD
ENDBRANCH   3   8
BRANCH   1  12
ATOM     12  O   UNL     1     -36.308  23.082   5.611  0.00  0.00    -0.472 OA
BRANCH  12  13
ATOM     13  C   UNL     1     -35.290  22.386   6.327  0.00  0.00    +0.206 C 
ATOM     14  C   UNL     1     -34.884  21.159   5.540  0.00  0.00    +0.051 C 
ENDBRANCH  12  13
ENDBRANCH   1  12
BRANCH   2  15
ATOM     15  O   UNL     1     -37.955  24.308   3.738  0.00  0.00    -0.400 OA
BRANCH  15  16
ATOM     16  P   UNL     1     -38.084  23.320   2.462  0.00  0.00    +0.528 P 
ATOM     17  O   UNL     1     -37.511  23.850   1.180  0.00  0.00    -0.216 OA
BRANCH  16  18
ATOM     18  O   UNL     1     -37.461  21.920   2.982  0.00  0.00    -0.293 OA
ATOM     19  H   UNL     1     -36.862  22.090   3.727  0.00  0.00    +0.223 HD
ENDBRANCH  16  18
BRANCH  16  20
ATOM     20  O   UNL     1     -39.671  23.012   2.408  0.00  0.00    -0.293 OA
ATOM     21  H   UNL     1     -40.147  23.680   2.927  0.00  0.00    +0.223 HD
ENDBRANCH  16  20
ENDBRANCH  15  16
ENDBRANCH   2  15
TORSDOF 7
ENDMDL
MODEL 2
REMARK VINA RESULT:      -5.2      1.583      1.849
REMARK  Name = 194466
REMARK  7 active torsions:
REMARK  status: ('A' for Active; 'I' for Inactive)
REMARK    1  A    between atoms: C_1  and  O_12
REMARK    2  A    between atoms: C_2  and  O_15
REMARK    3  A    between atoms: C_3  and  N_8
REMARK    4  A    between atoms: O_12  and  C_13
REMARK    5  A    between atoms: O_15  and  P_16
REMARK    6  A    between atoms: P_16  and  O_18
REMARK    7  A    between atoms: P_16  and  O_20
REMARK                            x       y       z     vdW  Elec       q    Type
REMARK                         _______ _______ _______ _____ _____    ______ ____
ROOT
ATOM      1  C   UNL     1     -35.651  24.584   4.747  0.00  0.00    +0.173 C 
ATOM      2  C   UNL     1     -35.873  25.311   3.577  0.00  0.00    +0.184 C 
ATOM      3  C   UNL     1     -34.265  26.963   4.299  0.00  0.00    +0.054 C 
ATOM      4  C   UNL     1     -35.180  26.501   3.354  0.00  0.00    +0.055 C 
ATOM      5  C   UNL     1     -34.735  25.046   5.693  0.00  0.00    +0.041 C 
ATOM      6  C   UNL     1     -34.043  26.236   5.469  0.00  0.00    +0.018 C 
ENDROOT
BRANCH   3   8
ATOM      7  O   UNL     1     -31.353  27.440   3.697  0.00  0.00    -0.275 OA
ATOM      8  N   UNL     1     -33.569  28.152   4.075  0.00  0.00    -0.284 N 
ATOM      9  C   UNL     1     -32.205  28.317   3.800  0.00  0.00    +0.227 C 
ATOM     10  C   UNL     1     -31.842  29.769   3.621  0.00  0.00    +0.095 C 
ATOM     11  H   UNL     1     -34.103  28.977   4.117  0.00  0.00    +0.155 HD
ENDBRANCH   3   8
BRANCH   1  12
ATOM     12  O   UNL     1     -36.323  23.422   4.977  0.00  0.00    -0.472 OA
BRANCH  12  13
ATOM     13  C   UNL     1     -35.621  22.206   4.731  0.00  0.00    +0.206 C 
ATOM     14  C   UNL     1     -35.235  21.581   6.055  0.00  0.00    +0.051 C 
ENDBRANCH  12  13
ENDBRANCH   1  12
BRANCH   2  15
ATOM     15  O   UNL     1     -36.765  24.871   2.647  0.00  0.00    -0.400 OA
BRANCH  15  16
ATOM     16  P   UNL     1     -38.314  25.331   2.549  0.00  0.00    +0.528 P 
ATOM     17  O   UNL     1     -38.533  26.769   2.180  0.00  0.00    -0.216 OA
BRANCH  16  18
ATOM     18  O   UNL     1     -38.987  24.243   1.559  0.00  0.00    -0.293 OA
ATOM     19  H   UNL     1     -38.442  24.150   0.762  0.00  0.00    +0.223 HD
ENDBRANCH  16  18
BRANCH  16  20
ATOM     20  O   UNL     1     -38.902  24.915   3.998  0.00  0.00    -0.293 OA
ATOM     21  H   UNL     1     -38.808  25.662   4.611  0.00  0.00    +0.223 HD
ENDBRANCH  16  20
ENDBRANCH  15  16
ENDBRANCH   2  15
TORSDOF 7
ENDMDL
MODEL 3
REMARK VINA RESULT:      -5.1      3.617      5.881
REMARK  Name = 194466
REMARK  7 active torsions:
REMARK  status: ('A' for Active; 'I' for Inactive)
REMARK    1  A    between atoms: C_1  and  O_12
REMARK    2  A    between atoms: C_2  and  O_15
REMARK    3  A    between atoms: C_3  and  N_8
REMARK    4  A    between atoms: O_12  and  C_13
REMARK    5  A    between atoms: O_15  and  P_16
REMARK    6  A    between atoms: P_16  and  O_18
REMARK    7  A    between atoms: P_16  and  O_20
REMARK                            x       y       z     vdW  Elec       q    Type
REMARK                         _______ _______ _______ _____ _____    ______ ____
ROOT
ATOM      1  C   UNL     1     -37.570  23.374   3.347  0.00  0.00    +0.173 C 
ATOM      2  C   UNL     1     -36.419  23.153   4.102  0.00  0.00    +0.184 C 
ATOM      3  C   UNL     1     -35.865  21.263   2.702  0.00  0.00    +0.054 C 
ATOM      4  C   UNL     1     -35.566  22.097   3.779  0.00  0.00    +0.055 C 
ATOM      5  C   UNL     1     -37.870  22.541   2.270  0.00  0.00    +0.041 C 
ATOM      6  C   UNL     1     -37.017  21.485   1.948  0.00  0.00    +0.018 C 
ENDROOT
BRANCH   3   8
ATOM      7  O   UNL     1     -33.765  21.039   0.556  0.00  0.00    -0.275 OA
ATOM      8  N   UNL     1     -35.011  20.208   2.377  0.00  0.00    -0.284 N 
ATOM      9  C   UNL     1     -34.049  20.157   1.360  0.00  0.00    +0.227 C 
ATOM     10  C   UNL     1     -33.331  18.831   1.336  0.00  0.00    +0.095 C 
ATOM     11  H   UNL     1     -35.097  19.399   2.930  0.00  0.00    +0.155 HD
ENDBRANCH   3   8
BRANCH   1  12
ATOM     12  O   UNL     1     -38.412  24.401   3.654  0.00  0.00    -0.472 OA
BRANCH  12  13
ATOM     13  C   UNL     1     -39.109  25.015   2.572  0.00  0.00    +0.206 C 
ATOM     14  C   UNL     1     -38.305  26.197   2.074  0.00  0.00    +0.051 C 
ENDBRANCH  12  13
ENDBRANCH   1  12
BRANCH   2  15
ATOM     15  O   UNL     1     -36.116  23.959   5.157  0.00  0.00    -0.400 OA
BRANCH  15  16
ATOM     16  P   UNL     1     -35.451  25.431   5.046  0.00  0.00    +0.528 P 
ATOM     17  O   UNL     1     -34.331  25.701   6.008  0.00  0.00    -0.216 OA
BRANCH  16  18
ATOM     18  O   UNL     1     -35.080  25.579   3.479  0.00  0.00    -0.293 OA
ATOM     19  H   UNL     1     -34.155  25.320   3.340  0.00  0.00    +0.223 HD
ENDBRANCH  16  18
BRANCH  16  20
ATOM     20  O   UNL     1     -36.726  26.413   5.212  0.00  0.00    -0.293 OA
ATOM     21  H   UNL     1     -36.418  27.328   5.308  0.00  0.00    +0.223 HD
ENDBRANCH  16  20
ENDBRANCH  15  16
ENDBRANCH   2  15
TORSDOF 7
ENDMDL
MODEL 4
REMARK VINA RESULT:      -5.1      2.533      3.940
REMARK  Name = 194466
REMARK  7 active torsions:
REMARK  status: ('A' for Active; 'I' for Inactive)
REMARK    1  A    between atoms: C_1  and  O_12
REMARK    2  A    between atoms: C_2  and  O_15
REMARK    3  A    between atoms: C_3  and  N_8
REMARK    4  A    between atoms: O_12  and  C_13
REMARK    5  A    between atoms: O_15  and  P_16
REMARK    6  A    between atoms: P_16  and  O_18
REMARK    7  A    between atoms: P_16  and  O_20
REMARK                            x       y       z     vdW  Elec       q    Type
REMARK                         _______ _______ _______ _____ _____    ______ ____
ROOT
ATOM      1  C   UNL     1     -37.124  23.761   3.064  0.00  0.00    +0.173 C 
ATOM      2  C   UNL     1     -35.809  23.300   3.122  0.00  0.00    +0.184 C 
ATOM      3  C   UNL     1     -35.321  24.912   4.855  0.00  0.00    +0.054 C 
ATOM      4  C   UNL     1     -34.908  23.876   4.017  0.00  0.00    +0.055 C 
ATOM      5  C   UNL     1     -37.539  24.797   3.901  0.00  0.00    +0.041 C 
ATOM      6  C   UNL     1     -36.637  25.373   4.796  0.00  0.00    +0.018 C 
ENDROOT
BRANCH   3   8
ATOM      7  O   UNL     1     -33.739  27.468   4.669  0.00  0.00    -0.275 OA
ATOM      8  N   UNL     1     -34.421  25.487   5.753  0.00  0.00    -0.284 N 
ATOM      9  C   UNL     1     -33.707  26.684   5.613  0.00  0.00    +0.227 C 
ATOM     10  C   UNL     1     -32.833  26.957   6.812  0.00  0.00    +0.095 C 
ATOM     11  H   UNL     1     -34.268  24.989   6.587  0.00  0.00    +0.155 HD
ENDBRANCH   3   8
BRANCH   1  12
ATOM     12  O   UNL     1     -38.013  23.208   2.192  0.00  0.00    -0.472 OA
BRANCH  12  13
ATOM     13  C   UNL     1     -38.574  24.069   1.204  0.00  0.00    +0.206 C 
ATOM     14  C   UNL     1     -40.084  24.009   1.295  0.00  0.00    +0.051 C 
ENDBRANCH  12  13
ENDBRANCH   1  12
BRANCH   2  15
ATOM     15  O   UNL     1     -35.392  22.290   2.309  0.00  0.00    -0.400 OA
BRANCH  15  16
ATOM     16  P   UNL     1     -35.482  20.713   2.659  0.00  0.00    +0.528 P 
ATOM     17  O   UNL     1     -34.495  19.840   1.941  0.00  0.00    -0.216 OA
BRANCH  16  18
ATOM     18  O   UNL     1     -35.416  20.663   4.275  0.00  0.00    -0.293 OA
ATOM     19  H   UNL     1     -34.670  20.106   4.551  0.00  0.00    +0.223 HD
ENDBRANCH  16  18
BRANCH  16  20
ATOM     20  O   UNL     1     -37.032  20.366   2.349  0.00  0.00    -0.293 OA
ATOM     21  H   UNL     1     -37.265  20.694   1.466  0.00  0.00    +0.223 HD
ENDBRANCH  16  20
ENDBRANCH  15  16
ENDBRANCH   2  15
TORSDOF 7
ENDMDL
MODEL 5
REMARK VINA RESULT:      -5.1      4.029      5.713
REMARK  Name = 194466
REMARK  7 active torsions:
REMARK  status: ('A' for Active; 'I' for Inactive)
REMARK    1  A    between atoms: C_1  and  O_12
REMARK    2  A    between atoms: C_2  and  O_15
REMARK    3  A    between atoms: C_3  and  N_8
REMARK    4  A    between atoms: O_12  and  C_13
REMARK    5  A    between atoms: O_15  and  P_16
REMARK    6  A    between atoms: P_16  and  O_18
REMARK    7  A    between atoms: P_16  and  O_20
REMARK                            x       y       z     vdW  Elec       q    Type
REMARK                         _______ _______ _______ _____ _____    ______ ____
ROOT
ATOM      1  C   UNL     1     -36.078  22.618   3.478  0.00  0.00    +0.173 C 
ATOM      2  C   UNL     1     -37.380  22.993   3.147  0.00  0.00    +0.184 C 
ATOM      3  C   UNL     1     -37.558  21.078   1.684  0.00  0.00    +0.054 C 
ATOM      4  C   UNL     1     -38.120  22.222   2.249  0.00  0.00    +0.055 C 
ATOM      5  C   UNL     1     -35.515  21.473   2.914  0.00  0.00    +0.041 C 
ATOM      6  C   UNL     1     -36.256  20.704   2.016  0.00  0.00    +0.018 C 
ENDROOT
BRANCH   3   8
ATOM      7  O   UNL     1     -38.042  21.432  -1.267  0.00  0.00    -0.275 OA
ATOM      8  N   UNL     1     -38.298  20.305   0.788  0.00  0.00    -0.284 N 
ATOM      9  C   UNL     1     -38.492  20.518  -0.582  0.00  0.00    +0.227 C 
ATOM     10  C   UNL     1     -39.362  19.451  -1.197  0.00  0.00    +0.095 C 
ATOM     11  H   UNL     1     -38.740  19.511   1.168  0.00  0.00    +0.155 HD
ENDBRANCH   3   8
BRANCH   1  12
ATOM     12  O   UNL     1     -35.345  23.364   4.351  0.00  0.00    -0.472 OA
BRANCH  12  13
ATOM     13  C   UNL     1     -35.621  23.195   5.740  0.00  0.00    +0.206 C 
ATOM     14  C   UNL     1     -35.026  21.883   6.205  0.00  0.00    +0.051 C 
ENDBRANCH  12  13
ENDBRANCH   1  12
BRANCH   2  15
ATOM     15  O   UNL     1     -37.939  24.109   3.690  0.00  0.00    -0.400 OA
BRANCH  15  16
ATOM     16  P   UNL     1     -37.632  25.628   3.223  0.00  0.00    +0.528 P 
ATOM     17  O   UNL     1     -36.939  25.764   1.899  0.00  0.00    -0.216 OA
BRANCH  16  18
ATOM     18  O   UNL     1     -39.062  26.376   3.346  0.00  0.00    -0.293 OA
ATOM     19  H   UNL     1     -38.933  27.334   3.274  0.00  0.00    +0.223 HD
ENDBRANCH  16  18
BRANCH  16  20
ATOM     20  O   UNL     1     -36.803  26.226   4.477  0.00  0.00    -0.293 OA
ATOM     21  H   UNL     1     -35.852  26.125   4.312  0.00  0.00    +0.223 HD
ENDBRANCH  16  20
ENDBRANCH  15  16
ENDBRANCH   2  15
TORSDOF 7
ENDMDL
MODEL 6
REMARK VINA RESULT:      -5.0      3.722      5.695
REMARK  Name = 194466
REMARK  7 active torsions:
REMARK  status: ('A' for Active; 'I' for Inactive)
REMARK    1  A    between atoms: C_1  and  O_12
REMARK    2  A    between atoms: C_2  and  O_15
REMARK    3  A    between atoms: C_3  and  N_8
REMARK    4  A    between atoms: O_12  and  C_13
REMARK    5  A    between atoms: O_15  and  P_16
REMARK    6  A    between atoms: P_16  and  O_18
REMARK    7  A    between atoms: P_16  and  O_20
REMARK                            x       y       z     vdW  Elec       q    Type
REMARK                         _______ _______ _______ _____ _____    ______ ____
ROOT
ATOM      1  C   UNL     1     -37.277  22.828   3.044  0.00  0.00    +0.173 C 
ATOM      2  C   UNL     1     -37.479  22.077   1.886  0.00  0.00    +0.184 C 
ATOM      3  C   UNL     1     -35.546  20.731   2.421  0.00  0.00    +0.054 C 
ATOM      4  C   UNL     1     -36.613  21.029   1.575  0.00  0.00    +0.055 C 
ATOM      5  C   UNL     1     -36.209  22.531   3.891  0.00  0.00    +0.041 C 
ATOM      6  C   UNL     1     -35.344  21.482   3.579  0.00  0.00    +0.018 C 
ENDROOT
BRANCH   3   8
ATOM      7  O   UNL     1     -33.191  20.625   0.548  0.00  0.00    -0.275 OA
ATOM      8  N   UNL     1     -34.680  19.680   2.112  0.00  0.00    -0.284 N 
ATOM      9  C   UNL     1     -33.596  19.686   1.226  0.00  0.00    +0.227 C 
ATOM     10  C   UNL     1     -32.910  18.344   1.172  0.00  0.00    +0.095 C 
ATOM     11  H   UNL     1     -34.855  18.829   2.574  0.00  0.00    +0.155 HD
ENDBRANCH   3   8
BRANCH   1  12
ATOM     12  O   UNL     1     -38.114  23.856   3.357  0.00  0.00    -0.472 OA
BRANCH  12  13
ATOM     13  C   UNL     1     -37.515  25.119   3.637  0.00  0.00    +0.206 C 
ATOM     14  C   UNL     1     -37.827  26.075   2.506  0.00  0.00    +0.051 C 
ENDBRANCH  12  13
ENDBRANCH   1  12
BRANCH   2  15
ATOM     15  O   UNL     1     -38.517  22.359   1.050  0.00  0.00    -0.400 OA
BRANCH  15  16
ATOM     16  P   UNL     1     -39.815  21.420   0.824  0.00  0.00    +0.528 P 
ATOM     17  O   UNL     1     -39.623  20.281  -0.134  0.00  0.00    -0.216 OA
BRANCH  16  18
ATOM     18  O   UNL     1     -40.268  21.006   2.322  0.00  0.00    -0.293 OA
ATOM     19  H   UNL     1     -40.079  20.066   2.468  0.00  0.00    +0.223 HD
ENDBRANCH  16  18
BRANCH  16  20
ATOM     20  O   UNL     1     -40.953  22.482   0.382  0.00  0.00    -0.293 OA
ATOM     21  H   UNL     1     -41.073  22.444  -0.580  0.00  0.00    +0.223 HD
ENDBRANCH  16  20
ENDBRANCH  15  16
ENDBRANCH   2  15
TORSDOF 7
ENDMDL
MODEL 7
REMARK VINA RESULT:      -4.9      2.199      2.814
REMARK  Name = 194466
REMARK  7 active torsions:
REMARK  status: ('A' for Active; 'I' for Inactive)
REMARK    1  A    between atoms: C_1  and  O_12
REMARK    2  A    between atoms: C_2  and  O_15
REMARK    3  A    between atoms: C_3  and  N_8
REMARK    4  A    between atoms: O_12  and  C_13
REMARK    5  A    between atoms: O_15  and  P_16
REMARK    6  A    between atoms: P_16  and  O_18
REMARK    7  A    between atoms: P_16  and  O_20
REMARK                            x       y       z     vdW  Elec       q    Type
REMARK                         _______ _______ _______ _____ _____    ______ ____
ROOT
ATOM      1  C   UNL     1     -36.165  23.603   4.294  0.00  0.00    +0.173 C 
ATOM      2  C   UNL     1     -36.702  24.865   4.551  0.00  0.00    +0.184 C 
ATOM      3  C   UNL     1     -34.594  25.568   5.499  0.00  0.00    +0.054 C 
ATOM      4  C   UNL     1     -35.915  25.847   5.154  0.00  0.00    +0.055 C 
ATOM      5  C   UNL     1     -34.843  23.323   4.639  0.00  0.00    +0.041 C 
ATOM      6  C   UNL     1     -34.057  24.306   5.242  0.00  0.00    +0.018 C 
ENDROOT
BRANCH   3   8
ATOM      7  O   UNL     1     -32.363  27.245   4.370  0.00  0.00    -0.275 OA
ATOM      8  N   UNL     1     -33.805  26.550   6.100  0.00  0.00    -0.284 N 
ATOM      9  C   UNL     1     -32.773  27.302   5.525  0.00  0.00    +0.227 C 
ATOM     10  C   UNL     1     -32.165  28.265   6.512  0.00  0.00    +0.095 C 
ATOM     11  H   UNL     1     -33.998  26.737   7.047  0.00  0.00    +0.155 HD
ENDBRANCH   3   8
BRANCH   1  12
ATOM     12  O   UNL     1     -36.924  22.635   3.708  0.00  0.00    -0.472 OA
BRANCH  12  13
ATOM     13  C   UNL     1     -36.260  21.741   2.817  0.00  0.00    +0.206 C 
ATOM     14  C   UNL     1     -36.173  22.382   1.448  0.00  0.00    +0.051 C 
ENDBRANCH  12  13
ENDBRANCH   1  12
BRANCH   2  15
ATOM     15  O   UNL     1     -37.992  25.150   4.220  0.00  0.00    -0.400 OA
BRANCH  15  16
ATOM     16  P   UNL     1     -38.506  25.567   2.743  0.00  0.00    +0.528 P 
ATOM     17  O   UNL     1     -39.530  26.663   2.707  0.00  0.00    -0.216 OA
BRANCH  16  18
ATOM     18  O   UNL     1     -37.144  25.853   1.917  0.00  0.00    -0.293 OA
ATOM     19  H   UNL     1     -36.381  25.563   2.442  0.00  0.00    +0.223 HD
ENDBRANCH  16  18
BRANCH  16  20
ATOM     20  O   UNL     1     -39.013  24.158   2.130  0.00  0.00    -0.293 OA
ATOM     21  H   UNL     1     -39.409  24.310   1.257  0.00  0.00    +0.223 HD
ENDBRANCH  16  20
ENDBRANCH  15  16
ENDBRANCH   2  15
TORSDOF 7
ENDMDL
MODEL 8
REMARK VINA RESULT:      -4.7      3.536      5.171
REMARK  Name = 194466
REMARK  7 active torsions:
REMARK  status: ('A' for Active; 'I' for Inactive)
REMARK    1  A    between atoms: C_1  and  O_12
REMARK    2  A    between atoms: C_2  and  O_15
REMARK    3  A    between atoms: C_3  and  N_8
REMARK    4  A    between atoms: O_12  and  C_13
REMARK    5  A    between atoms: O_15  and  P_16
REMARK    6  A    between atoms: P_16  and  O_18
REMARK    7  A    between atoms: P_16  and  O_20
REMARK                            x       y       z     vdW  Elec       q    Type
REMARK                         _______ _______ _______ _____ _____    ______ ____
ROOT
ATOM      1  C   UNL     1     -37.205  23.209   2.467  0.00  0.00    +0.173 C 
ATOM      2  C   UNL     1     -37.016  24.434   3.106  0.00  0.00    +0.184 C 
ATOM      3  C   UNL     1     -39.410  24.730   3.246  0.00  0.00    +0.054 C 
ATOM      4  C   UNL     1     -38.119  25.195   3.495  0.00  0.00    +0.055 C 
ATOM      5  C   UNL     1     -38.496  22.743   2.217  0.00  0.00    +0.041 C 
ATOM      6  C   UNL     1     -39.598  23.504   2.607  0.00  0.00    +0.018 C 
ENDROOT
BRANCH   3   8
ATOM      7  O   UNL     1     -40.800  27.015   1.865  0.00  0.00    -0.275 OA
ATOM      8  N   UNL     1     -40.514  25.488   3.638  0.00  0.00    -0.284 N 
ATOM      9  C   UNL     1     -41.121  26.548   2.953  0.00  0.00    +0.227 C 
ATOM     10  C   UNL     1     -42.295  27.108   3.717  0.00  0.00    +0.095 C 
ATOM     11  H   UNL     1     -40.914  25.249   4.505  0.00  0.00    +0.155 HD
ENDBRANCH   3   8
BRANCH   1  12
ATOM     12  O   UNL     1     -36.136  22.459   2.079  0.00  0.00    -0.472 OA
BRANCH  12  13
ATOM     13  C   UNL     1     -35.777  21.360   2.914  0.00  0.00    +0.206 C 
ATOM     14  C   UNL     1     -35.007  20.347   2.094  0.00  0.00    +0.051 C 
ENDBRANCH  12  13
ENDBRANCH   1  12
BRANCH   2  15
ATOM     15  O   UNL     1     -35.760  24.900   3.353  0.00  0.00    -0.400 OA
BRANCH  15  16
ATOM     16  P   UNL     1     -35.036  24.907   4.801  0.00  0.00    +0.528 P 
ATOM     17  O   UNL     1     -33.557  24.651   4.779  0.00  0.00    -0.216 OA
BRANCH  16  18
ATOM     18  O   UNL     1     -35.495  26.310   5.465  0.00  0.00    -0.293 OA
ATOM     19  H   UNL     1     -36.464  26.356   5.484  0.00  0.00    +0.223 HD
ENDBRANCH  16  18
BRANCH  16  20
ATOM     20  O   UNL     1     -35.892  23.815   5.633  0.00  0.00    -0.293 OA
ATOM     21  H   UNL     1     -35.286  23.242   6.130  0.00  0.00    +0.223 HD
ENDBRANCH  16  20
ENDBRANCH  15  16
ENDBRANCH   2  15
TORSDOF 7
ENDMDL
MODEL 9
REMARK VINA RESULT:      -4.7      2.374      3.852
REMARK  Name = 194466
REMARK  7 active torsions:
REMARK  status: ('A' for Active; 'I' for Inactive)
REMARK    1  A    between atoms: C_1  and  O_12
REMARK    2  A    between atoms: C_2  and  O_15
REMARK    3  A    between atoms: C_3  and  N_8
REMARK    4  A    between atoms: O_12  and  C_13
REMARK    5  A    between atoms: O_15  and  P_16
REMARK    6  A    between atoms: P_16  and  O_18
REMARK    7  A    between atoms: P_16  and  O_20
REMARK                            x       y       z     vdW  Elec       q    Type
REMARK                         _______ _______ _______ _____ _____    ______ ____
ROOT
ATOM      1  C   UNL     1     -35.502  25.271   2.388  0.00  0.00    +0.173 C 
ATOM      2  C   UNL     1     -34.819  24.646   3.431  0.00  0.00    +0.184 C 
ATOM      3  C   UNL     1     -34.114  26.803   4.262  0.00  0.00    +0.054 C 
ATOM      4  C   UNL     1     -34.124  25.412   4.368  0.00  0.00    +0.055 C 
ATOM      5  C   UNL     1     -35.492  26.661   2.281  0.00  0.00    +0.041 C 
ATOM      6  C   UNL     1     -34.798  27.427   3.218  0.00  0.00    +0.018 C 
ENDROOT
BRANCH   3   8
ATOM      7  O   UNL     1     -31.266  27.780   4.269  0.00  0.00    -0.275 OA
ATOM      8  N   UNL     1     -33.422  27.570   5.200  0.00  0.00    -0.284 N 
ATOM      9  C   UNL     1     -32.089  27.997   5.153  0.00  0.00    +0.227 C 
ATOM     10  C   UNL     1     -31.720  28.811   6.367  0.00  0.00    +0.095 C 
ATOM     11  H   UNL     1     -33.935  27.845   5.993  0.00  0.00    +0.155 HD
ENDBRANCH   3   8
BRANCH   1  12
ATOM     12  O   UNL     1     -36.181  24.533   1.466  0.00  0.00    -0.472 OA
BRANCH  12  13
ATOM     13  C   UNL     1     -37.167  25.211   0.691  0.00  0.00    +0.206 C 
ATOM     14  C   UNL     1     -38.542  24.776   1.151  0.00  0.00    +0.051 C 
ENDBRANCH  12  13
ENDBRANCH   1  12
BRANCH   2  15
ATOM     15  O   UNL     1     -34.819  23.288   3.545  0.00  0.00    -0.400 OA
BRANCH  15  16
ATOM     16  P   UNL     1     -35.868  22.427   4.426  0.00  0.00    +0.528 P 
ATOM     17  O   UNL     1     -35.985  22.836   5.865  0.00  0.00    -0.216 OA
BRANCH  16  18
ATOM     18  O   UNL     1     -37.240  22.479   3.570  0.00  0.00    -0.293 OA
ATOM     19  H   UNL     1     -37.900  21.899   3.981  0.00  0.00    +0.223 HD
ENDBRANCH  16  18
BRANCH  16  20
ATOM     20  O   UNL     1     -35.359  20.907   4.202  0.00  0.00    -0.293 OA
ATOM     21  H   UNL     1     -34.896  20.602   4.998  0.00  0.00    +0.223 HD
ENDBRANCH  16  20
ENDBRANCH  15  16
ENDBRANCH   2  15
TORSDOF 7
ENDMDL
