MODEL 1
REMARK VINA RESULT:      -6.0      0.000      0.000
REMARK  Name = 193030
REMARK  7 active torsions:
REMARK  status: ('A' for Active; 'I' for Inactive)
REMARK    1  A    between atoms: N_1  and  C1*_11
REMARK    2  A    between atoms: C_5  and  C_25
REMARK    3  A    between atoms: C2*_12  and  O2*_15
REMARK    4  A    between atoms: C3*_13  and  O3*_17
REMARK    5  A    between atoms: C4*_14  and  C5*_19
REMARK    6  A    between atoms: C5*_19  and  O5*_20
REMARK    7  A    between atoms: C_25  and  O_28
REMARK                            x       y       z     vdW  Elec       q    Type
REMARK                         _______ _______ _______ _____ _____    ______ ____
ROOT
ATOM      1  N   UNL     1     -37.121  23.348   3.186  0.00  0.00    -0.222 N 
ATOM      2  N   UNL     1     -35.975  21.432   3.235  0.00  0.00    -0.383 NA
ATOM      3  N   UNL     1     -38.584  22.906   1.296  0.00  0.00    -0.227 NA
ATOM      4  N   UNL     1     -38.172  20.693   0.352  0.00  0.00    -0.227 NA
ATOM      5  C   UNL     1     -36.141  22.610   3.799  0.00  0.00    +0.191 C 
ATOM      6  C   UNL     1     -37.611  22.583   2.164  0.00  0.00    +0.169 C 
ATOM      7  C   UNL     1     -36.889  21.401   2.212  0.00  0.00    +0.195 C 
ATOM      8  C   UNL     1     -37.200  20.435   1.260  0.00  0.00    +0.155 C 
ATOM      9  C   UNL     1     -38.794  21.895   0.426  0.00  0.00    +0.253 C 
ATOM     10  N   UNL     1     -36.517  19.206   1.235  0.00  0.00    -0.341 N 
ATOM     11  H   UNL     1     -36.745  18.531   0.556  0.00  0.00    +0.144 HD
ATOM     12  H   UNL     1     -35.811  19.023   1.895  0.00  0.00    +0.144 HD
ENDROOT
BRANCH   1  14
ATOM     13  O4* UNL     1     -39.006  24.727   3.612  0.00  0.00    -0.333 OA
ATOM     14  C1* UNL     1     -37.564  24.694   3.550  0.00  0.00    +0.229 C 
ATOM     15  C2* UNL     1     -37.119  25.774   2.562  0.00  0.00    +0.187 C 
ATOM     16  C3* UNL     1     -38.387  26.054   1.776  0.00  0.00    +0.171 C 
ATOM     17  C4* UNL     1     -39.468  25.832   2.819  0.00  0.00    +0.175 C 
BRANCH  15  18
ATOM     18  O2* UNL     1     -36.695  26.928   3.286  0.00  0.00    -0.378 OA
ATOM     19  H2* UNL     1     -35.725  26.958   3.308  0.00  0.00    +0.211 HD
ENDBRANCH  15  18
BRANCH  16  20
ATOM     20  O3* UNL     1     -38.434  27.355   1.231  0.00  0.00    -0.379 OA
ATOM     21  H3* UNL     1     -39.043  27.902   1.753  0.00  0.00    +0.211 HD
ENDBRANCH  16  20
BRANCH  17  22
ATOM     22  C5* UNL     1     -40.826  25.505   2.223  0.00  0.00    +0.169 C 
BRANCH  22  23
ATOM     23  O5* UNL     1     -40.653  25.172   0.857  0.00  0.00    -0.379 OA
ATOM     24  H5* UNL     1     -41.087  24.324   0.673  0.00  0.00    +0.211 HD
ENDBRANCH  22  23
ENDBRANCH  17  22
ENDBRANCH   1  14
BRANCH   5  25
ATOM     25  C   UNL     1     -35.384  23.127   4.958  0.00  0.00    +0.148 C 
ATOM     26  C   UNL     1     -34.799  22.024   5.883  0.00  0.00    +0.038 C 
ATOM     27  C   UNL     1     -34.236  24.085   4.543  0.00  0.00    +0.038 C 
BRANCH  25  28
ATOM     28  O   UNL     1     -36.231  23.930   5.823  0.00  0.00    -0.379 OA
ATOM     29  H   UNL     1     -35.928  24.852   5.807  0.00  0.00    +0.211 HD
ENDBRANCH  25  28
ENDBRANCH   5  25
TORSDOF 7
ENDMDL
MODEL 2
REMARK VINA RESULT:      -5.8      2.831      4.728
REMARK  Name = 193030
REMARK  7 active torsions:
REMARK  status: ('A' for Active; 'I' for Inactive)
REMARK    1  A    between atoms: N_1  and  C1*_11
REMARK    2  A    between atoms: C_5  and  C_25
REMARK    3  A    between atoms: C2*_12  and  O2*_15
REMARK    4  A    between atoms: C3*_13  and  O3*_17
REMARK    5  A    between atoms: C4*_14  and  C5*_19
REMARK    6  A    between atoms: C5*_19  and  O5*_20
REMARK    7  A    between atoms: C_25  and  O_28
REMARK                            x       y       z     vdW  Elec       q    Type
REMARK                         _______ _______ _______ _____ _____    ______ ____
ROOT
ATOM      1  N   UNL     1     -36.917  23.172   2.839  0.00  0.00    -0.222 N 
ATOM      2  N   UNL     1     -37.809  24.764   4.126  0.00  0.00    -0.383 NA
ATOM      3  N   UNL     1     -38.770  22.787   1.314  0.00  0.00    -0.227 NA
ATOM      4  N   UNL     1     -40.668  24.230   1.840  0.00  0.00    -0.227 NA
ATOM      5  C   UNL     1     -36.746  24.020   3.903  0.00  0.00    +0.191 C 
ATOM      6  C   UNL     1     -38.176  23.396   2.353  0.00  0.00    +0.169 C 
ATOM      7  C   UNL     1     -38.711  24.385   3.163  0.00  0.00    +0.195 C 
ATOM      8  C   UNL     1     -40.007  24.801   2.875  0.00  0.00    +0.155 C 
ATOM      9  C   UNL     1     -40.018  23.273   1.135  0.00  0.00    +0.253 C 
ATOM     10  N   UNL     1     -40.627  25.800   3.646  0.00  0.00    -0.341 N 
ATOM     11  H   UNL     1     -41.545  26.086   3.433  0.00  0.00    +0.144 HD
ATOM     12  H   UNL     1     -40.145  26.212   4.398  0.00  0.00    +0.144 HD
ENDROOT
BRANCH   1  14
ATOM     13  O4* UNL     1     -35.859  22.345   0.881  0.00  0.00    -0.333 OA
ATOM     14  C1* UNL     1     -35.945  22.211   2.316  0.00  0.00    +0.229 C 
ATOM     15  C2* UNL     1     -36.297  20.754   2.625  0.00  0.00    +0.187 C 
ATOM     16  C3* UNL     1     -36.836  20.250   1.299  0.00  0.00    +0.171 C 
ATOM     17  C4* UNL     1     -36.017  21.042   0.295  0.00  0.00    +0.175 C 
BRANCH  15  18
ATOM     18  O2* UNL     1     -35.111  20.054   3.000  0.00  0.00    -0.378 OA
ATOM     19  H2* UNL     1     -35.340  19.333   3.607  0.00  0.00    +0.211 HD
ENDBRANCH  15  18
BRANCH  16  20
ATOM     20  O3* UNL     1     -36.688  18.857   1.125  0.00  0.00    -0.379 OA
ATOM     21  H3* UNL     1     -36.816  18.410   1.977  0.00  0.00    +0.211 HD
ENDBRANCH  16  20
BRANCH  17  22
ATOM     22  C5* UNL     1     -36.681  21.167  -1.064  0.00  0.00    +0.169 C 
BRANCH  22  23
ATOM     23  O5* UNL     1     -38.038  20.777  -0.943  0.00  0.00    -0.379 OA
ATOM     24  H5* UNL     1     -38.094  19.810  -0.904  0.00  0.00    +0.211 HD
ENDBRANCH  22  23
ENDBRANCH  17  22
ENDBRANCH   1  14
BRANCH   5  25
ATOM     25  C   UNL     1     -35.490  24.054   4.680  0.00  0.00    +0.148 C 
ATOM     26  C   UNL     1     -35.345  25.292   5.609  0.00  0.00    +0.038 C 
ATOM     27  C   UNL     1     -35.276  22.772   5.527  0.00  0.00    +0.038 C 
BRANCH  25  28
ATOM     28  O   UNL     1     -34.332  24.107   3.804  0.00  0.00    -0.379 OA
ATOM     29  H   UNL     1     -33.527  24.206   4.338  0.00  0.00    +0.211 HD
ENDBRANCH  25  28
ENDBRANCH   5  25
TORSDOF 7
ENDMDL
MODEL 3
REMARK VINA RESULT:      -5.8      2.462      4.916
REMARK  Name = 193030
REMARK  7 active torsions:
REMARK  status: ('A' for Active; 'I' for Inactive)
REMARK    1  A    between atoms: N_1  and  C1*_11
REMARK    2  A    between atoms: C_5  and  C_25
REMARK    3  A    between atoms: C2*_12  and  O2*_15
REMARK    4  A    between atoms: C3*_13  and  O3*_17
REMARK    5  A    between atoms: C4*_14  and  C5*_19
REMARK    6  A    between atoms: C5*_19  and  O5*_20
REMARK    7  A    between atoms: C_25  and  O_28
REMARK                            x       y       z     vdW  Elec       q    Type
REMARK                         _______ _______ _______ _____ _____    ______ ____
ROOT
ATOM      1  N   UNL     1     -36.708  24.494   2.719  0.00  0.00    -0.222 N 
ATOM      2  N   UNL     1     -38.075  26.173   2.172  0.00  0.00    -0.383 NA
ATOM      3  N   UNL     1     -38.233  22.620   2.463  0.00  0.00    -0.227 NA
ATOM      4  N   UNL     1     -40.449  23.366   1.762  0.00  0.00    -0.227 NA
ATOM      5  C   UNL     1     -36.856  25.847   2.549  0.00  0.00    +0.191 C 
ATOM      6  C   UNL     1     -37.917  23.924   2.429  0.00  0.00    +0.169 C 
ATOM      7  C   UNL     1     -38.748  24.980   2.092  0.00  0.00    +0.195 C 
ATOM      8  C   UNL     1     -40.059  24.663   1.749  0.00  0.00    +0.155 C 
ATOM      9  C   UNL     1     -39.525  22.439   2.113  0.00  0.00    +0.253 C 
ATOM     10  N   UNL     1     -40.972  25.672   1.394  0.00  0.00    -0.341 N 
ATOM     11  H   UNL     1     -41.897  25.436   1.154  0.00  0.00    +0.144 HD
ATOM     12  H   UNL     1     -40.686  26.614   1.387  0.00  0.00    +0.144 HD
ENDROOT
BRANCH   1  14
ATOM     13  O4* UNL     1     -35.242  22.693   2.224  0.00  0.00    -0.333 OA
ATOM     14  C1* UNL     1     -35.493  23.789   3.131  0.00  0.00    +0.229 C 
ATOM     15  C2* UNL     1     -35.570  23.211   4.545  0.00  0.00    +0.187 C 
ATOM     16  C3* UNL     1     -35.805  21.734   4.292  0.00  0.00    +0.171 C 
ATOM     17  C4* UNL     1     -35.041  21.501   3.001  0.00  0.00    +0.175 C 
BRANCH  15  18
ATOM     18  O2* UNL     1     -34.327  23.430   5.210  0.00  0.00    -0.378 OA
ATOM     19  H2* UNL     1     -34.272  22.858   5.991  0.00  0.00    +0.211 HD
ENDBRANCH  15  18
BRANCH  16  20
ATOM     20  O3* UNL     1     -35.345  20.904   5.338  0.00  0.00    -0.379 OA
ATOM     21  H3* UNL     1     -36.060  20.766   5.979  0.00  0.00    +0.211 HD
ENDBRANCH  16  20
BRANCH  17  22
ATOM     22  C5* UNL     1     -35.525  20.292   2.220  0.00  0.00    +0.169 C 
BRANCH  22  23
ATOM     23  O5* UNL     1     -36.765  19.871   2.760  0.00  0.00    -0.379 OA
ATOM     24  H5* UNL     1     -36.739  18.914   2.921  0.00  0.00    +0.211 HD
ENDBRANCH  22  23
ENDBRANCH  17  22
ENDBRANCH   1  14
BRANCH   5  25
ATOM     25  C   UNL     1     -35.742  26.790   2.778  0.00  0.00    +0.148 C 
ATOM     26  C   UNL     1     -34.349  26.252   2.347  0.00  0.00    +0.038 C 
ATOM     27  C   UNL     1     -35.973  28.164   2.097  0.00  0.00    +0.038 C 
BRANCH  25  28
ATOM     28  O   UNL     1     -35.601  27.104   4.189  0.00  0.00    -0.379 OA
ATOM     29  H   UNL     1     -34.866  26.591   4.563  0.00  0.00    +0.211 HD
ENDBRANCH  25  28
ENDBRANCH   5  25
TORSDOF 7
ENDMDL
MODEL 4
REMARK VINA RESULT:      -5.5      2.840      6.325
REMARK  Name = 193030
REMARK  7 active torsions:
REMARK  status: ('A' for Active; 'I' for Inactive)
REMARK    1  A    between atoms: N_1  and  C1*_11
REMARK    2  A    between atoms: C_5  and  C_25
REMARK    3  A    between atoms: C2*_12  and  O2*_15
REMARK    4  A    between atoms: C3*_13  and  O3*_17
REMARK    5  A    between atoms: C4*_14  and  C5*_19
REMARK    6  A    between atoms: C5*_19  and  O5*_20
REMARK    7  A    between atoms: C_25  and  O_28
REMARK                            x       y       z     vdW  Elec       q    Type
REMARK                         _______ _______ _______ _____ _____    ______ ____
ROOT
ATOM      1  N   UNL     1     -36.640  25.499   3.262  0.00  0.00    -0.222 N 
ATOM      2  N   UNL     1     -36.463  27.395   2.097  0.00  0.00    -0.383 NA
ATOM      3  N   UNL     1     -34.610  25.639   4.590  0.00  0.00    -0.227 NA
ATOM      4  N   UNL     1     -33.358  27.673   4.088  0.00  0.00    -0.227 NA
ATOM      5  C   UNL     1     -37.194  26.321   2.314  0.00  0.00    +0.191 C 
ATOM      6  C   UNL     1     -35.479  26.093   3.673  0.00  0.00    +0.169 C 
ATOM      7  C   UNL     1     -35.389  27.266   2.940  0.00  0.00    +0.195 C 
ATOM      8  C   UNL     1     -34.277  28.069   3.175  0.00  0.00    +0.155 C 
ATOM      9  C   UNL     1     -33.579  26.500   4.729  0.00  0.00    +0.253 C 
ATOM     10  N   UNL     1     -34.104  29.277   2.475  0.00  0.00    -0.341 N 
ATOM     11  H   UNL     1     -33.313  29.836   2.649  0.00  0.00    +0.144 HD
ATOM     12  H   UNL     1     -34.773  29.561   1.812  0.00  0.00    +0.144 HD
ENDROOT
BRANCH   1  14
ATOM     13  O4* UNL     1     -36.704  23.980   5.086  0.00  0.00    -0.333 OA
ATOM     14  C1* UNL     1     -37.182  24.228   3.746  0.00  0.00    +0.229 C 
ATOM     15  C2* UNL     1     -36.789  23.026   2.885  0.00  0.00    +0.187 C 
ATOM     16  C3* UNL     1     -35.701  22.363   3.709  0.00  0.00    +0.171 C 
ATOM     17  C4* UNL     1     -36.150  22.655   5.130  0.00  0.00    +0.175 C 
BRANCH  15  18
ATOM     18  O2* UNL     1     -37.918  22.168   2.733  0.00  0.00    -0.378 OA
ATOM     19  H2* UNL     1     -38.486  22.503   2.021  0.00  0.00    +0.211 HD
ENDBRANCH  15  18
BRANCH  16  20
ATOM     20  O3* UNL     1     -35.577  20.978   3.466  0.00  0.00    -0.379 OA
ATOM     21  H3* UNL     1     -36.248  20.499   3.978  0.00  0.00    +0.211 HD
ENDBRANCH  16  20
BRANCH  17  22
ATOM     22  C5* UNL     1     -35.021  22.604   6.144  0.00  0.00    +0.169 C 
BRANCH  22  23
ATOM     23  O5* UNL     1     -34.536  21.275   6.217  0.00  0.00    -0.379 OA
ATOM     24  H5* UNL     1     -34.515  20.989   7.144  0.00  0.00    +0.211 HD
ENDBRANCH  22  23
ENDBRANCH  17  22
ENDBRANCH   1  14
BRANCH   5  25
ATOM     25  C   UNL     1     -38.468  25.993   1.643  0.00  0.00    +0.148 C 
ATOM     26  C   UNL     1     -38.335  24.962   0.488  0.00  0.00    +0.038 C 
ATOM     27  C   UNL     1     -39.553  25.492   2.631  0.00  0.00    +0.038 C 
BRANCH  25  28
ATOM     28  O   UNL     1     -39.054  27.171   1.026  0.00  0.00    -0.379 OA
ATOM     29  H   UNL     1     -38.957  27.114   0.062  0.00  0.00    +0.211 HD
ENDBRANCH  25  28
ENDBRANCH   5  25
TORSDOF 7
ENDMDL
MODEL 5
REMARK VINA RESULT:      -5.4      2.085      4.290
REMARK  Name = 193030
REMARK  7 active torsions:
REMARK  status: ('A' for Active; 'I' for Inactive)
REMARK    1  A    between atoms: N_1  and  C1*_11
REMARK    2  A    between atoms: C_5  and  C_25
REMARK    3  A    between atoms: C2*_12  and  O2*_15
REMARK    4  A    between atoms: C3*_13  and  O3*_17
REMARK    5  A    between atoms: C4*_14  and  C5*_19
REMARK    6  A    between atoms: C5*_19  and  O5*_20
REMARK    7  A    between atoms: C_25  and  O_28
REMARK                            x       y       z     vdW  Elec       q    Type
REMARK                         _______ _______ _______ _____ _____    ______ ____
ROOT
ATOM      1  N   UNL     1     -36.771  22.874   2.367  0.00  0.00    -0.222 N 
ATOM      2  N   UNL     1     -35.923  21.078   3.388  0.00  0.00    -0.383 NA
ATOM      3  N   UNL     1     -36.327  24.560   4.060  0.00  0.00    -0.227 NA
ATOM      4  N   UNL     1     -35.216  23.593   6.007  0.00  0.00    -0.227 NA
ATOM      5  C   UNL     1     -36.523  21.527   2.305  0.00  0.00    +0.191 C 
ATOM      6  C   UNL     1     -36.296  23.309   3.574  0.00  0.00    +0.169 C 
ATOM      7  C   UNL     1     -35.774  22.182   4.190  0.00  0.00    +0.195 C 
ATOM      8  C   UNL     1     -35.218  22.357   5.453  0.00  0.00    +0.155 C 
ATOM      9  C   UNL     1     -35.762  24.602   5.286  0.00  0.00    +0.253 C 
ATOM     10  N   UNL     1     -34.667  21.268   6.151  0.00  0.00    -0.341 N 
ATOM     11  H   UNL     1     -34.277  21.403   7.045  0.00  0.00    +0.144 HD
ATOM     12  H   UNL     1     -34.672  20.371   5.746  0.00  0.00    +0.144 HD
ENDROOT
BRANCH   1  14
ATOM     13  O4* UNL     1     -36.539  24.775   0.964  0.00  0.00    -0.333 OA
ATOM     14  C1* UNL     1     -37.420  23.696   1.344  0.00  0.00    +0.229 C 
ATOM     15  C2* UNL     1     -38.741  24.316   1.802  0.00  0.00    +0.187 C 
ATOM     16  C3* UNL     1     -38.358  25.757   2.080  0.00  0.00    +0.171 C 
ATOM     17  C4* UNL     1     -37.274  26.007   1.046  0.00  0.00    +0.175 C 
BRANCH  15  18
ATOM     18  O2* UNL     1     -39.693  24.228   0.744  0.00  0.00    -0.378 OA
ATOM     19  H2* UNL     1     -40.578  24.085   1.115  0.00  0.00    +0.211 HD
ENDBRANCH  15  18
BRANCH  16  20
ATOM     20  O3* UNL     1     -39.435  26.660   1.948  0.00  0.00    -0.379 OA
ATOM     21  H3* UNL     1     -39.135  27.555   2.174  0.00  0.00    +0.211 HD
ENDBRANCH  16  20
BRANCH  17  22
ATOM     22  C5* UNL     1     -36.335  27.141   1.417  0.00  0.00    +0.169 C 
BRANCH  22  23
ATOM     23  O5* UNL     1     -36.413  27.356   2.815  0.00  0.00    -0.379 OA
ATOM     24  H5* UNL     1     -35.525  27.531   3.165  0.00  0.00    +0.211 HD
ENDBRANCH  22  23
ENDBRANCH  17  22
ENDBRANCH   1  14
BRANCH   5  25
ATOM     25  C   UNL     1     -36.905  20.715   1.131  0.00  0.00    +0.148 C 
ATOM     26  C   UNL     1     -38.397  20.852   0.717  0.00  0.00    +0.038 C 
ATOM     27  C   UNL     1     -36.019  21.002  -0.109  0.00  0.00    +0.038 C 
BRANCH  25  28
ATOM     28  O   UNL     1     -36.718  19.297   1.390  0.00  0.00    -0.379 OA
ATOM     29  H   UNL     1     -36.316  19.179   2.266  0.00  0.00    +0.211 HD
ENDBRANCH  25  28
ENDBRANCH   5  25
TORSDOF 7
ENDMDL
MODEL 6
REMARK VINA RESULT:      -5.4      3.039      4.214
REMARK  Name = 193030
REMARK  7 active torsions:
REMARK  status: ('A' for Active; 'I' for Inactive)
REMARK    1  A    between atoms: N_1  and  C1*_11
REMARK    2  A    between atoms: C_5  and  C_25
REMARK    3  A    between atoms: C2*_12  and  O2*_15
REMARK    4  A    between atoms: C3*_13  and  O3*_17
REMARK    5  A    between atoms: C4*_14  and  C5*_19
REMARK    6  A    between atoms: C5*_19  and  O5*_20
REMARK    7  A    between atoms: C_25  and  O_28
REMARK                            x       y       z     vdW  Elec       q    Type
REMARK                         _______ _______ _______ _____ _____    ______ ____
ROOT
ATOM      1  N   UNL     1     -35.375  23.088   2.081  0.00  0.00    -0.222 N 
ATOM      2  N   UNL     1     -34.006  22.152   0.586  0.00  0.00    -0.383 NA
ATOM      3  N   UNL     1     -35.025  25.433   1.549  0.00  0.00    -0.227 NA
ATOM      4  N   UNL     1     -33.428  25.702  -0.277  0.00  0.00    -0.227 NA
ATOM      5  C   UNL     1     -34.858  21.927   1.564  0.00  0.00    +0.191 C 
ATOM      6  C   UNL     1     -34.810  24.118   1.381  0.00  0.00    +0.169 C 
ATOM      7  C   UNL     1     -33.967  23.517   0.460  0.00  0.00    +0.195 C 
ATOM      8  C   UNL     1     -33.261  24.362  -0.390  0.00  0.00    +0.155 C 
ATOM      9  C   UNL     1     -34.287  26.147   0.672  0.00  0.00    +0.253 C 
ATOM     10  N   UNL     1     -32.383  23.838  -1.355  0.00  0.00    -0.341 N 
ATOM     11  H   UNL     1     -31.887  24.446  -1.951  0.00  0.00    +0.144 HD
ATOM     12  H   UNL     1     -32.262  22.865  -1.433  0.00  0.00    +0.144 HD
ENDROOT
BRANCH   1  14
ATOM     13  O4* UNL     1     -37.551  23.827   2.677  0.00  0.00    -0.333 OA
ATOM     14  C1* UNL     1     -36.344  23.209   3.172  0.00  0.00    +0.229 C 
ATOM     15  C2* UNL     1     -35.841  24.049   4.347  0.00  0.00    +0.187 C 
ATOM     16  C3* UNL     1     -36.568  25.366   4.154  0.00  0.00    +0.171 C 
ATOM     17  C4* UNL     1     -37.887  24.921   3.545  0.00  0.00    +0.175 C 
BRANCH  15  18
ATOM     18  O2* UNL     1     -36.224  23.422   5.570  0.00  0.00    -0.378 OA
ATOM     19  H2* UNL     1     -37.017  22.882   5.423  0.00  0.00    +0.211 HD
ENDBRANCH  15  18
BRANCH  16  20
ATOM     20  O3* UNL     1     -36.754  26.088   5.353  0.00  0.00    -0.379 OA
ATOM     21  H3* UNL     1     -37.531  25.743   5.820  0.00  0.00    +0.211 HD
ENDBRANCH  16  20
BRANCH  17  22
ATOM     22  C5* UNL     1     -38.585  26.011   2.752  0.00  0.00    +0.169 C 
BRANCH  22  23
ATOM     23  O5* UNL     1     -37.634  27.003   2.408  0.00  0.00    -0.379 OA
ATOM     24  H5* UNL     1     -38.095  27.802   2.108  0.00  0.00    +0.211 HD
ENDBRANCH  22  23
ENDBRANCH  17  22
ENDBRANCH   1  14
BRANCH   5  25
ATOM     25  C   UNL     1     -35.247  20.600   2.083  0.00  0.00    +0.148 C 
ATOM     26  C   UNL     1     -36.639  20.105   1.599  0.00  0.00    +0.038 C 
ATOM     27  C   UNL     1     -34.196  19.504   1.768  0.00  0.00    +0.038 C 
BRANCH  25  28
ATOM     28  O   UNL     1     -35.338  20.609   3.533  0.00  0.00    -0.379 OA
ATOM     29  H   UNL     1     -34.669  20.011   3.903  0.00  0.00    +0.211 HD
ENDBRANCH  25  28
ENDBRANCH   5  25
TORSDOF 7
ENDMDL
MODEL 7
REMARK VINA RESULT:      -5.4      1.826      4.692
REMARK  Name = 193030
REMARK  7 active torsions:
REMARK  status: ('A' for Active; 'I' for Inactive)
REMARK    1  A    between atoms: N_1  and  C1*_11
REMARK    2  A    between atoms: C_5  and  C_25
REMARK    3  A    between atoms: C2*_12  and  O2*_15
REMARK    4  A    between atoms: C3*_13  and  O3*_17
REMARK    5  A    between atoms: C4*_14  and  C5*_19
REMARK    6  A    between atoms: C5*_19  and  O5*_20
REMARK    7  A    between atoms: C_25  and  O_28
REMARK                            x       y       z     vdW  Elec       q    Type
REMARK                         _______ _______ _______ _____ _____    ______ ____
ROOT
ATOM      1  N   UNL     1     -37.366  24.566   2.783  0.00  0.00    -0.222 N 
ATOM      2  N   UNL     1     -38.891  23.314   1.738  0.00  0.00    -0.383 NA
ATOM      3  N   UNL     1     -35.629  22.901   3.126  0.00  0.00    -0.227 NA
ATOM      4  N   UNL     1     -36.288  20.730   2.225  0.00  0.00    -0.227 NA
ATOM      5  C   UNL     1     -38.606  24.514   2.199  0.00  0.00    +0.191 C 
ATOM      6  C   UNL     1     -36.829  23.312   2.685  0.00  0.00    +0.169 C 
ATOM      7  C   UNL     1     -37.788  22.552   2.034  0.00  0.00    +0.195 C 
ATOM      8  C   UNL     1     -37.483  21.214   1.806  0.00  0.00    +0.155 C 
ATOM      9  C   UNL     1     -35.449  21.591   2.849  0.00  0.00    +0.253 C 
ATOM     10  N   UNL     1     -38.398  20.371   1.153  0.00  0.00    -0.341 N 
ATOM     11  H   UNL     1     -38.171  19.425   0.998  0.00  0.00    +0.144 HD
ATOM     12  H   UNL     1     -39.265  20.725   0.852  0.00  0.00    +0.144 HD
ENDROOT
BRANCH   1  14
ATOM     13  O4* UNL     1     -35.579  26.120   2.618  0.00  0.00    -0.333 OA
ATOM     14  C1* UNL     1     -36.733  25.734   3.396  0.00  0.00    +0.229 C 
ATOM     15  C2* UNL     1     -36.262  25.494   4.832  0.00  0.00    +0.187 C 
ATOM     16  C3* UNL     1     -34.764  25.324   4.671  0.00  0.00    +0.171 C 
ATOM     17  C4* UNL     1     -34.457  26.249   3.506  0.00  0.00    +0.175 C 
BRANCH  15  18
ATOM     18  O2* UNL     1     -36.571  26.639   5.625  0.00  0.00    -0.378 OA
ATOM     19  H2* UNL     1     -36.504  27.439   5.079  0.00  0.00    +0.211 HD
ENDBRANCH  15  18
BRANCH  16  20
ATOM     20  O3* UNL     1     -34.032  25.668   5.828  0.00  0.00    -0.379 OA
ATOM     21  H3* UNL     1     -33.441  24.936   6.066  0.00  0.00    +0.211 HD
ENDBRANCH  16  20
BRANCH  17  22
ATOM     22  C5* UNL     1     -33.177  25.892   2.771  0.00  0.00    +0.169 C 
BRANCH  22  23
ATOM     23  O5* UNL     1     -32.078  26.415   3.495  0.00  0.00    -0.379 OA
ATOM     24  H5* UNL     1     -31.621  25.693   3.955  0.00  0.00    +0.211 HD
ENDBRANCH  22  23
ENDBRANCH  17  22
ENDBRANCH   1  14
BRANCH   5  25
ATOM     25  C   UNL     1     -39.484  25.699   2.121  0.00  0.00    +0.148 C 
ATOM     26  C   UNL     1     -39.077  26.727   1.029  0.00  0.00    +0.038 C 
ATOM     27  C   UNL     1     -40.975  25.326   1.919  0.00  0.00    +0.038 C 
BRANCH  25  28
ATOM     28  O   UNL     1     -39.463  26.450   3.366  0.00  0.00    -0.379 OA
ATOM     29  H   UNL     1     -39.387  25.834   4.113  0.00  0.00    +0.211 HD
ENDBRANCH  25  28
ENDBRANCH   5  25
TORSDOF 7
ENDMDL
MODEL 8
REMARK VINA RESULT:      -5.3      1.701      4.501
REMARK  Name = 193030
REMARK  7 active torsions:
REMARK  status: ('A' for Active; 'I' for Inactive)
REMARK    1  A    between atoms: N_1  and  C1*_11
REMARK    2  A    between atoms: C_5  and  C_25
REMARK    3  A    between atoms: C2*_12  and  O2*_15
REMARK    4  A    between atoms: C3*_13  and  O3*_17
REMARK    5  A    between atoms: C4*_14  and  C5*_19
REMARK    6  A    between atoms: C5*_19  and  O5*_20
REMARK    7  A    between atoms: C_25  and  O_28
REMARK                            x       y       z     vdW  Elec       q    Type
REMARK                         _______ _______ _______ _____ _____    ______ ____
ROOT
ATOM      1  N   UNL     1     -37.316  23.640   1.607  0.00  0.00    -0.222 N 
ATOM      2  N   UNL     1     -37.895  21.807   0.469  0.00  0.00    -0.383 NA
ATOM      3  N   UNL     1     -35.797  22.656   3.229  0.00  0.00    -0.227 NA
ATOM      4  N   UNL     1     -35.592  20.246   2.907  0.00  0.00    -0.227 NA
ATOM      5  C   UNL     1     -38.055  23.110   0.581  0.00  0.00    +0.191 C 
ATOM      6  C   UNL     1     -36.640  22.601   2.186  0.00  0.00    +0.169 C 
ATOM      7  C   UNL     1     -37.011  21.476   1.466  0.00  0.00    +0.195 C 
ATOM      8  C   UNL     1     -36.452  20.265   1.861  0.00  0.00    +0.155 C 
ATOM      9  C   UNL     1     -35.322  21.425   3.517  0.00  0.00    +0.253 C 
ATOM     10  N   UNL     1     -36.773  19.073   1.187  0.00  0.00    -0.341 N 
ATOM     11  H   UNL     1     -36.372  18.222   1.476  0.00  0.00    +0.144 HD
ATOM     12  H   UNL     1     -37.400  19.091   0.428  0.00  0.00    +0.144 HD
ENDROOT
BRANCH   1  14
ATOM     13  O4* UNL     1     -35.884  25.493   1.996  0.00  0.00    -0.333 OA
ATOM     14  C1* UNL     1     -37.257  25.045   2.012  0.00  0.00    +0.229 C 
ATOM     15  C2* UNL     1     -37.811  25.303   3.414  0.00  0.00    +0.187 C 
ATOM     16  C3* UNL     1     -36.554  25.475   4.246  0.00  0.00    +0.171 C 
ATOM     17  C4* UNL     1     -35.598  26.117   3.258  0.00  0.00    +0.175 C 
BRANCH  15  18
ATOM     18  O2* UNL     1     -38.588  26.499   3.399  0.00  0.00    -0.378 OA
ATOM     19  H2* UNL     1     -39.008  26.602   2.530  0.00  0.00    +0.211 HD
ENDBRANCH  15  18
BRANCH  16  20
ATOM     20  O3* UNL     1     -36.746  26.272   5.395  0.00  0.00    -0.379 OA
ATOM     21  H3* UNL     1     -36.427  27.172   5.220  0.00  0.00    +0.211 HD
ENDBRANCH  16  20
BRANCH  17  22
ATOM     22  C5* UNL     1     -34.135  25.914   3.611  0.00  0.00    +0.169 C 
BRANCH  22  23
ATOM     23  O5* UNL     1     -34.039  24.858   4.551  0.00  0.00    -0.379 OA
ATOM     24  H5* UNL     1     -34.216  24.014   4.109  0.00  0.00    +0.211 HD
ENDBRANCH  22  23
ENDBRANCH  17  22
ENDBRANCH   1  14
BRANCH   5  25
ATOM     25  C   UNL     1     -38.920  23.949  -0.274  0.00  0.00    +0.148 C 
ATOM     26  C   UNL     1     -38.159  25.033  -1.086  0.00  0.00    +0.038 C 
ATOM     27  C   UNL     1     -39.784  23.113  -1.254  0.00  0.00    +0.038 C 
BRANCH  25  28
ATOM     28  O   UNL     1     -39.886  24.687   0.521  0.00  0.00    -0.379 OA
ATOM     29  H   UNL     1     -39.483  24.940   1.367  0.00  0.00    +0.211 HD
ENDBRANCH  25  28
ENDBRANCH   5  25
TORSDOF 7
ENDMDL
MODEL 9
REMARK VINA RESULT:      -5.3      2.530      5.685
REMARK  Name = 193030
REMARK  7 active torsions:
REMARK  status: ('A' for Active; 'I' for Inactive)
REMARK    1  A    between atoms: N_1  and  C1*_11
REMARK    2  A    between atoms: C_5  and  C_25
REMARK    3  A    between atoms: C2*_12  and  O2*_15
REMARK    4  A    between atoms: C3*_13  and  O3*_17
REMARK    5  A    between atoms: C4*_14  and  C5*_19
REMARK    6  A    between atoms: C5*_19  and  O5*_20
REMARK    7  A    between atoms: C_25  and  O_28
REMARK                            x       y       z     vdW  Elec       q    Type
REMARK                         _______ _______ _______ _____ _____    ______ ____
ROOT
ATOM      1  N   UNL     1     -38.482  23.694   2.181  0.00  0.00    -0.222 N 
ATOM      2  N   UNL     1     -38.631  25.612   3.315  0.00  0.00    -0.383 NA
ATOM      3  N   UNL     1     -36.431  22.808   3.137  0.00  0.00    -0.227 NA
ATOM      4  N   UNL     1     -35.505  24.322   4.813  0.00  0.00    -0.227 NA
ATOM      5  C   UNL     1     -39.191  24.848   2.401  0.00  0.00    +0.191 C 
ATOM      6  C   UNL     1     -37.398  23.731   3.015  0.00  0.00    +0.169 C 
ATOM      7  C   UNL     1     -37.510  24.926   3.708  0.00  0.00    +0.195 C 
ATOM      8  C   UNL     1     -36.514  25.209   4.637  0.00  0.00    +0.155 C 
ATOM      9  C   UNL     1     -35.526  23.194   4.063  0.00  0.00    +0.253 C 
ATOM     10  N   UNL     1     -36.547  26.398   5.386  0.00  0.00    -0.341 N 
ATOM     11  H   UNL     1     -35.836  26.589   6.039  0.00  0.00    +0.144 HD
ATOM     12  H   UNL     1     -37.281  27.041   5.254  0.00  0.00    +0.144 HD
ENDROOT
BRANCH   1  14
ATOM     13  O4* UNL     1     -38.348  21.362   1.759  0.00  0.00    -0.333 OA
ATOM     14  C1* UNL     1     -38.815  22.625   1.238  0.00  0.00    +0.229 C 
ATOM     15  C2* UNL     1     -38.191  22.813  -0.146  0.00  0.00    +0.187 C 
ATOM     16  C3* UNL     1     -37.036  21.831  -0.131  0.00  0.00    +0.171 C 
ATOM     17  C4* UNL     1     -37.577  20.709   0.738  0.00  0.00    +0.175 C 
BRANCH  15  18
ATOM     18  O2* UNL     1     -39.151  22.468  -1.144  0.00  0.00    -0.378 OA
ATOM     19  H2* UNL     1     -40.044  22.530  -0.769  0.00  0.00    +0.211 HD
ENDBRANCH  15  18
BRANCH  16  20
ATOM     20  O3* UNL     1     -36.668  21.376  -1.416  0.00  0.00    -0.379 OA
ATOM     21  H3* UNL     1     -35.887  20.805  -1.345  0.00  0.00    +0.211 HD
ENDBRANCH  16  20
BRANCH  17  22
ATOM     22  C5* UNL     1     -36.492  19.861   1.376  0.00  0.00    +0.169 C 
BRANCH  22  23
ATOM     23  O5* UNL     1     -36.715  19.817   2.775  0.00  0.00    -0.379 OA
ATOM     24  H5* UNL     1     -36.950  20.703   3.093  0.00  0.00    +0.211 HD
ENDBRANCH  22  23
ENDBRANCH  17  22
ENDBRANCH   1  14
BRANCH   5  25
ATOM     25  C   UNL     1     -40.437  25.151   1.667  0.00  0.00    +0.148 C 
ATOM     26  C   UNL     1     -41.422  26.076   2.433  0.00  0.00    +0.038 C 
ATOM     27  C   UNL     1     -40.171  25.762   0.266  0.00  0.00    +0.038 C 
BRANCH  25  28
ATOM     28  O   UNL     1     -41.194  23.941   1.396  0.00  0.00    -0.379 OA
ATOM     29  H   UNL     1     -42.063  24.000   1.826  0.00  0.00    +0.211 HD
ENDBRANCH  25  28
ENDBRANCH   5  25
TORSDOF 7
ENDMDL
