MODEL 1
REMARK VINA RESULT:      -5.9      0.000      0.000
REMARK  Name = 5004084
REMARK  5 active torsions:
REMARK  status: ('A' for Active; 'I' for Inactive)
REMARK    1  A    between atoms: C_2  and  C_4
REMARK    2  A    between atoms: C_2  and  O_13
REMARK    3  A    between atoms: C_4  and  O_5
REMARK    4  A    between atoms: O_5  and  N_8
REMARK    5  A    between atoms: O_13  and  N_16
REMARK                            x       y       z     vdW  Elec       q    Type
REMARK                         _______ _______ _______ _____ _____    ______ ____
ROOT
ATOM      1  O   UNL     1     -33.003  27.162   7.133  0.00  0.00    -0.235 OA
ATOM      2  C   UNL     1     -33.101  26.931   5.943  0.00  0.00    +0.442 C 
ENDROOT
BRANCH   2   4
ATOM      3  O   UNL     1     -35.360  26.604   5.213  0.00  0.00    -0.235 OA
ATOM      4  C   UNL     1     -34.250  26.131   5.365  0.00  0.00    +0.442 C 
BRANCH   4   5
ATOM      5  O   UNL     1     -33.808  24.888   5.084  0.00  0.00    -0.327 OA
BRANCH   5   8
ATOM      6  O   UNL     1     -33.856  24.928   2.213  0.00  0.00    -0.267 OA
ATOM      7  O   UNL     1     -35.845  23.046   5.921  0.00  0.00    -0.267 OA
ATOM      8  N   UNL     1     -34.714  24.200   4.249  0.00  0.00    -0.054 N 
ATOM      9  C   UNL     1     -35.780  23.465   2.352  0.00  0.00    +0.066 C 
ATOM     10  C   UNL     1     -36.440  22.840   3.583  0.00  0.00    +0.066 C 
ATOM     11  C   UNL     1     -34.649  24.296   2.895  0.00  0.00    +0.287 C 
ATOM     12  C   UNL     1     -35.647  23.352   4.756  0.00  0.00    +0.287 C 
ENDBRANCH   5   8
ENDBRANCH   4   5
ENDBRANCH   2   4
BRANCH   2  13
ATOM     13  O   UNL     1     -32.262  27.313   4.944  0.00  0.00    -0.327 OA
BRANCH  13  16
ATOM     14  O   UNL     1     -29.656  27.611   6.068  0.00  0.00    -0.267 OA
ATOM     15  O   UNL     1     -33.245  29.920   4.329  0.00  0.00    -0.267 OA
ATOM     16  N   UNL     1     -31.625  28.509   5.217  0.00  0.00    -0.054 N 
ATOM     17  C   UNL     1     -30.037  29.998   5.945  0.00  0.00    +0.066 C 
ATOM     18  C   UNL     1     -31.229  30.765   5.369  0.00  0.00    +0.066 C 
ATOM     19  C   UNL     1     -30.381  28.545   5.762  0.00  0.00    +0.287 C 
ATOM     20  C   UNL     1     -32.181  29.704   4.890  0.00  0.00    +0.287 C 
ENDBRANCH  13  16
ENDBRANCH   2  13
TORSDOF 5
ENDMDL
MODEL 2
REMARK VINA RESULT:      -5.8      4.927      7.165
REMARK  Name = 5004084
REMARK  5 active torsions:
REMARK  status: ('A' for Active; 'I' for Inactive)
REMARK    1  A    between atoms: C_2  and  C_4
REMARK    2  A    between atoms: C_2  and  O_13
REMARK    3  A    between atoms: C_4  and  O_5
REMARK    4  A    between atoms: O_5  and  N_8
REMARK    5  A    between atoms: O_13  and  N_16
REMARK                            x       y       z     vdW  Elec       q    Type
REMARK                         _______ _______ _______ _____ _____    ______ ____
ROOT
ATOM      1  O   UNL     1     -38.306  22.251   2.594  0.00  0.00    -0.235 OA
ATOM      2  C   UNL     1     -37.697  23.279   2.823  0.00  0.00    +0.442 C 
ENDROOT
BRANCH   2   4
ATOM      3  O   UNL     1     -37.825  25.671   2.779  0.00  0.00    -0.235 OA
ATOM      4  C   UNL     1     -38.393  24.614   2.979  0.00  0.00    +0.442 C 
BRANCH   4   5
ATOM      5  O   UNL     1     -39.669  24.392   3.356  0.00  0.00    -0.327 OA
BRANCH   5   8
ATOM      6  O   UNL     1     -40.784  23.226   0.981  0.00  0.00    -0.267 OA
ATOM      7  O   UNL     1     -40.894  26.971   3.667  0.00  0.00    -0.267 OA
ATOM      8  N   UNL     1     -40.579  25.003   2.468  0.00  0.00    -0.054 N 
ATOM      9  C   UNL     1     -41.950  25.322   0.653  0.00  0.00    +0.066 C 
ATOM     10  C   UNL     1     -41.986  26.565   1.545  0.00  0.00    +0.066 C 
ATOM     11  C   UNL     1     -41.040  24.357   1.364  0.00  0.00    +0.287 C 
ATOM     12  C   UNL     1     -41.094  26.236   2.712  0.00  0.00    +0.287 C 
ENDBRANCH   5   8
ENDBRANCH   4   5
ENDBRANCH   2   4
BRANCH   2  13
ATOM     13  O   UNL     1     -36.356  23.439   2.978  0.00  0.00    -0.327 OA
BRANCH  13  16
ATOM     14  O   UNL     1     -35.428  20.763   3.322  0.00  0.00    -0.267 OA
ATOM     15  O   UNL     1     -35.989  24.812   5.453  0.00  0.00    -0.267 OA
ATOM     16  N   UNL     1     -35.889  22.885   4.155  0.00  0.00    -0.054 N 
ATOM     17  C   UNL     1     -35.077  21.341   5.646  0.00  0.00    +0.066 C 
ATOM     18  C   UNL     1     -35.264  22.685   6.354  0.00  0.00    +0.066 C 
ATOM     19  C   UNL     1     -35.475  21.593   4.217  0.00  0.00    +0.287 C 
ATOM     20  C   UNL     1     -35.756  23.623   5.287  0.00  0.00    +0.287 C 
ENDBRANCH  13  16
ENDBRANCH   2  13
TORSDOF 5
ENDMDL
MODEL 3
REMARK VINA RESULT:      -5.8      0.083      6.456
REMARK  Name = 5004084
REMARK  5 active torsions:
REMARK  status: ('A' for Active; 'I' for Inactive)
REMARK    1  A    between atoms: C_2  and  C_4
REMARK    2  A    between atoms: C_2  and  O_13
REMARK    3  A    between atoms: C_4  and  O_5
REMARK    4  A    between atoms: O_5  and  N_8
REMARK    5  A    between atoms: O_13  and  N_16
REMARK                            x       y       z     vdW  Elec       q    Type
REMARK                         _______ _______ _______ _____ _____    ______ ____
ROOT
ATOM      1  O   UNL     1     -35.340  26.567   5.231  0.00  0.00    -0.235 OA
ATOM      2  C   UNL     1     -34.225  26.109   5.395  0.00  0.00    +0.442 C 
ENDROOT
BRANCH   2   4
ATOM      3  O   UNL     1     -32.997  27.186   7.148  0.00  0.00    -0.235 OA
ATOM      4  C   UNL     1     -33.087  26.931   5.963  0.00  0.00    +0.442 C 
BRANCH   4   5
ATOM      5  O   UNL     1     -32.268  27.285   4.951  0.00  0.00    -0.327 OA
BRANCH   5   8
ATOM      6  O   UNL     1     -29.643  27.627   6.063  0.00  0.00    -0.267 OA
ATOM      7  O   UNL     1     -33.255  29.911   4.334  0.00  0.00    -0.267 OA
ATOM      8  N   UNL     1     -31.622  28.511   5.220  0.00  0.00    -0.054 N 
ATOM      9  C   UNL     1     -30.037  30.012   5.932  0.00  0.00    +0.066 C 
ATOM     10  C   UNL     1     -31.236  30.770   5.357  0.00  0.00    +0.066 C 
ATOM     11  C   UNL     1     -30.375  28.556   5.758  0.00  0.00    +0.287 C 
ATOM     12  C   UNL     1     -32.188  29.702   4.890  0.00  0.00    +0.287 C 
ENDBRANCH   5   8
ENDBRANCH   4   5
ENDBRANCH   2   4
BRANCH   2  13
ATOM     13  O   UNL     1     -33.791  24.850   5.124  0.00  0.00    -0.327 OA
BRANCH  13  16
ATOM     14  O   UNL     1     -35.921  23.107   5.879  0.00  0.00    -0.267 OA
ATOM     15  O   UNL     1     -33.821  25.078   2.279  0.00  0.00    -0.267 OA
ATOM     16  N   UNL     1     -34.633  24.173   4.262  0.00  0.00    -0.054 N 
ATOM     17  C   UNL     1     -36.292  22.777   3.510  0.00  0.00    +0.066 C 
ATOM     18  C   UNL     1     -35.595  23.431   2.315  0.00  0.00    +0.066 C 
ATOM     19  C   UNL     1     -35.617  23.357   4.722  0.00  0.00    +0.287 C 
ATOM     20  C   UNL     1     -34.564  24.346   2.917  0.00  0.00    +0.287 C 
ENDBRANCH  13  16
ENDBRANCH   2  13
TORSDOF 5
ENDMDL
MODEL 4
REMARK VINA RESULT:      -5.8      0.092      6.459
REMARK  Name = 5004084
REMARK  5 active torsions:
REMARK  status: ('A' for Active; 'I' for Inactive)
REMARK    1  A    between atoms: C_2  and  C_4
REMARK    2  A    between atoms: C_2  and  O_13
REMARK    3  A    between atoms: C_4  and  O_5
REMARK    4  A    between atoms: O_5  and  N_8
REMARK    5  A    between atoms: O_13  and  N_16
REMARK                            x       y       z     vdW  Elec       q    Type
REMARK                         _______ _______ _______ _____ _____    ______ ____
ROOT
ATOM      1  O   UNL     1     -35.333  26.657   5.245  0.00  0.00    -0.235 OA
ATOM      2  C   UNL     1     -34.231  26.168   5.409  0.00  0.00    +0.442 C 
ENDROOT
BRANCH   2   4
ATOM      3  O   UNL     1     -32.981  27.208   7.168  0.00  0.00    -0.235 OA
ATOM      4  C   UNL     1     -33.073  26.955   5.982  0.00  0.00    +0.442 C 
BRANCH   4   5
ATOM      5  O   UNL     1     -32.239  27.286   4.975  0.00  0.00    -0.327 OA
BRANCH   5   8
ATOM      6  O   UNL     1     -33.224  29.932   4.452  0.00  0.00    -0.267 OA
ATOM      7  O   UNL     1     -29.709  27.591   6.298  0.00  0.00    -0.267 OA
ATOM      8  N   UNL     1     -31.570  28.500   5.241  0.00  0.00    -0.054 N 
ATOM      9  C   UNL     1     -31.123  30.751   5.331  0.00  0.00    +0.066 C 
ATOM     10  C   UNL     1     -29.956  29.974   5.945  0.00  0.00    +0.066 C 
ATOM     11  C   UNL     1     -32.130  29.702   4.944  0.00  0.00    +0.287 C 
ATOM     12  C   UNL     1     -30.366  28.527   5.871  0.00  0.00    +0.287 C 
ENDBRANCH   5   8
ENDBRANCH   4   5
ENDBRANCH   2   4
BRANCH   2  13
ATOM     13  O   UNL     1     -33.831  24.898   5.132  0.00  0.00    -0.327 OA
BRANCH  13  16
ATOM     14  O   UNL     1     -33.807  24.996   2.281  0.00  0.00    -0.267 OA
ATOM     15  O   UNL     1     -35.870  23.065   5.922  0.00  0.00    -0.267 OA
ATOM     16  N   UNL     1     -34.704  24.239   4.288  0.00  0.00    -0.054 N 
ATOM     17  C   UNL     1     -35.738  23.538   2.362  0.00  0.00    +0.066 C 
ATOM     18  C   UNL     1     -36.424  22.898   3.571  0.00  0.00    +0.066 C 
ATOM     19  C   UNL     1     -34.615  24.357   2.938  0.00  0.00    +0.287 C 
ATOM     20  C   UNL     1     -35.649  23.388   4.764  0.00  0.00    +0.287 C 
ENDBRANCH  13  16
ENDBRANCH   2  13
TORSDOF 5
ENDMDL
MODEL 5
REMARK VINA RESULT:      -5.8      0.117      6.417
REMARK  Name = 5004084
REMARK  5 active torsions:
REMARK  status: ('A' for Active; 'I' for Inactive)
REMARK    1  A    between atoms: C_2  and  C_4
REMARK    2  A    between atoms: C_2  and  O_13
REMARK    3  A    between atoms: C_4  and  O_5
REMARK    4  A    between atoms: O_5  and  N_8
REMARK    5  A    between atoms: O_13  and  N_16
REMARK                            x       y       z     vdW  Elec       q    Type
REMARK                         _______ _______ _______ _____ _____    ______ ____
ROOT
ATOM      1  O   UNL     1     -35.312  26.593   5.230  0.00  0.00    -0.235 OA
ATOM      2  C   UNL     1     -34.197  26.133   5.389  0.00  0.00    +0.442 C 
ENDROOT
BRANCH   2   4
ATOM      3  O   UNL     1     -32.986  27.211   7.153  0.00  0.00    -0.235 OA
ATOM      4  C   UNL     1     -33.060  26.947   5.969  0.00  0.00    +0.442 C 
BRANCH   4   5
ATOM      5  O   UNL     1     -32.222  27.286   4.968  0.00  0.00    -0.327 OA
BRANCH   5   8
ATOM      6  O   UNL     1     -33.218  29.931   4.466  0.00  0.00    -0.267 OA
ATOM      7  O   UNL     1     -29.693  27.590   6.294  0.00  0.00    -0.267 OA
ATOM      8  N   UNL     1     -31.559  28.500   5.243  0.00  0.00    -0.054 N 
ATOM      9  C   UNL     1     -31.121  30.752   5.353  0.00  0.00    +0.066 C 
ATOM     10  C   UNL     1     -29.950  29.975   5.960  0.00  0.00    +0.066 C 
ATOM     11  C   UNL     1     -32.124  29.702   4.957  0.00  0.00    +0.287 C 
ATOM     12  C   UNL     1     -30.355  28.527   5.874  0.00  0.00    +0.287 C 
ENDBRANCH   5   8
ENDBRANCH   4   5
ENDBRANCH   2   4
BRANCH   2  13
ATOM     13  O   UNL     1     -33.763  24.877   5.103  0.00  0.00    -0.327 OA
BRANCH  13  16
ATOM     14  O   UNL     1     -35.895  23.148   5.881  0.00  0.00    -0.267 OA
ATOM     15  O   UNL     1     -33.818  25.098   2.258  0.00  0.00    -0.267 OA
ATOM     16  N   UNL     1     -34.617  24.203   4.250  0.00  0.00    -0.054 N 
ATOM     17  C   UNL     1     -36.290  22.814   3.517  0.00  0.00    +0.066 C 
ATOM     18  C   UNL     1     -35.600  23.461   2.313  0.00  0.00    +0.066 C 
ATOM     19  C   UNL     1     -35.600  23.393   4.722  0.00  0.00    +0.287 C 
ATOM     20  C   UNL     1     -34.559  24.372   2.904  0.00  0.00    +0.287 C 
ENDBRANCH  13  16
ENDBRANCH   2  13
TORSDOF 5
ENDMDL
MODEL 6
REMARK VINA RESULT:      -5.7      0.234      1.717
REMARK  Name = 5004084
REMARK  5 active torsions:
REMARK  status: ('A' for Active; 'I' for Inactive)
REMARK    1  A    between atoms: C_2  and  C_4
REMARK    2  A    between atoms: C_2  and  O_13
REMARK    3  A    between atoms: C_4  and  O_5
REMARK    4  A    between atoms: O_5  and  N_8
REMARK    5  A    between atoms: O_13  and  N_16
REMARK                            x       y       z     vdW  Elec       q    Type
REMARK                         _______ _______ _______ _____ _____    ______ ____
ROOT
ATOM      1  O   UNL     1     -32.973  27.261   7.128  0.00  0.00    -0.235 OA
ATOM      2  C   UNL     1     -33.011  26.985   5.944  0.00  0.00    +0.442 C 
ENDROOT
BRANCH   2   4
ATOM      3  O   UNL     1     -35.269  26.526   5.288  0.00  0.00    -0.235 OA
ATOM      4  C   UNL     1     -34.117  26.143   5.344  0.00  0.00    +0.442 C 
BRANCH   4   5
ATOM      5  O   UNL     1     -33.587  24.975   4.924  0.00  0.00    -0.327 OA
BRANCH   5   8
ATOM      6  O   UNL     1     -34.050  24.991   2.091  0.00  0.00    -0.267 OA
ATOM      7  O   UNL     1     -35.310  22.964   6.034  0.00  0.00    -0.267 OA
ATOM      8  N   UNL     1     -34.538  24.203   4.224  0.00  0.00    -0.054 N 
ATOM      9  C   UNL     1     -35.795  23.364   2.495  0.00  0.00    +0.066 C 
ATOM     10  C   UNL     1     -36.214  22.691   3.805  0.00  0.00    +0.066 C 
ATOM     11  C   UNL     1     -34.677  24.296   2.875  0.00  0.00    +0.287 C 
ATOM     12  C   UNL     1     -35.309  23.279   4.854  0.00  0.00    +0.287 C 
ENDBRANCH   5   8
ENDBRANCH   4   5
ENDBRANCH   2   4
BRANCH   2  13
ATOM     13  O   UNL     1     -32.133  27.348   4.972  0.00  0.00    -0.327 OA
BRANCH  13  16
ATOM     14  O   UNL     1     -33.131  29.977   4.492  0.00  0.00    -0.267 OA
ATOM     15  O   UNL     1     -29.626  27.601   6.313  0.00  0.00    -0.267 OA
ATOM     16  N   UNL     1     -31.481  28.531   5.263  0.00  0.00    -0.054 N 
ATOM     17  C   UNL     1     -31.037  30.779   5.403  0.00  0.00    +0.066 C 
ATOM     18  C   UNL     1     -29.872  29.990   6.007  0.00  0.00    +0.066 C 
ATOM     19  C   UNL     1     -32.040  29.738   4.987  0.00  0.00    +0.287 C 
ATOM     20  C   UNL     1     -30.282  28.546   5.901  0.00  0.00    +0.287 C 
ENDBRANCH  13  16
ENDBRANCH   2  13
TORSDOF 5
ENDMDL
MODEL 7
REMARK VINA RESULT:      -5.7      1.322      2.455
REMARK  Name = 5004084
REMARK  5 active torsions:
REMARK  status: ('A' for Active; 'I' for Inactive)
REMARK    1  A    between atoms: C_2  and  C_4
REMARK    2  A    between atoms: C_2  and  O_13
REMARK    3  A    between atoms: C_4  and  O_5
REMARK    4  A    between atoms: O_5  and  N_8
REMARK    5  A    between atoms: O_13  and  N_16
REMARK                            x       y       z     vdW  Elec       q    Type
REMARK                         _______ _______ _______ _____ _____    ______ ____
ROOT
ATOM      1  O   UNL     1     -34.762  27.753   3.757  0.00  0.00    -0.235 OA
ATOM      2  C   UNL     1     -33.868  26.967   4.011  0.00  0.00    +0.442 C 
ENDROOT
BRANCH   2   4
ATOM      3  O   UNL     1     -33.321  24.795   4.860  0.00  0.00    -0.235 OA
ATOM      4  C   UNL     1     -34.133  25.505   4.299  0.00  0.00    +0.442 C 
BRANCH   4   5
ATOM      5  O   UNL     1     -35.360  25.192   3.835  0.00  0.00    -0.327 OA
BRANCH   5   8
ATOM      6  O   UNL     1     -36.312  22.882   5.249  0.00  0.00    -0.267 OA
ATOM      7  O   UNL     1     -34.671  24.317   1.188  0.00  0.00    -0.267 OA
ATOM      8  N   UNL     1     -35.402  23.868   3.350  0.00  0.00    -0.054 N 
ATOM      9  C   UNL     1     -35.728  21.595   3.284  0.00  0.00    +0.066 C 
ATOM     10  C   UNL     1     -35.183  22.072   1.936  0.00  0.00    +0.066 C 
ATOM     11  C   UNL     1     -35.869  22.844   4.112  0.00  0.00    +0.287 C 
ATOM     12  C   UNL     1     -35.045  23.564   2.074  0.00  0.00    +0.287 C 
ENDBRANCH   5   8
ENDBRANCH   4   5
ENDBRANCH   2   4
BRANCH   2  13
ATOM     13  O   UNL     1     -32.533  27.215   4.085  0.00  0.00    -0.327 OA
BRANCH  13  16
ATOM     14  O   UNL     1     -32.187  27.002   6.909  0.00  0.00    -0.267 OA
ATOM     15  O   UNL     1     -31.985  29.916   3.344  0.00  0.00    -0.267 OA
ATOM     16  N   UNL     1     -32.234  28.252   4.949  0.00  0.00    -0.054 N 
ATOM     17  C   UNL     1     -31.812  29.393   6.895  0.00  0.00    +0.066 C 
ATOM     18  C   UNL     1     -31.746  30.361   5.711  0.00  0.00    +0.066 C 
ATOM     19  C   UNL     1     -32.097  28.048   6.285  0.00  0.00    +0.287 C 
ATOM     20  C   UNL     1     -31.995  29.510   4.496  0.00  0.00    +0.287 C 
ENDBRANCH  13  16
ENDBRANCH   2  13
TORSDOF 5
ENDMDL
MODEL 8
REMARK VINA RESULT:      -5.6      1.338      6.676
REMARK  Name = 5004084
REMARK  5 active torsions:
REMARK  status: ('A' for Active; 'I' for Inactive)
REMARK    1  A    between atoms: C_2  and  C_4
REMARK    2  A    between atoms: C_2  and  O_13
REMARK    3  A    between atoms: C_4  and  O_5
REMARK    4  A    between atoms: O_5  and  N_8
REMARK    5  A    between atoms: O_13  and  N_16
REMARK                            x       y       z     vdW  Elec       q    Type
REMARK                         _______ _______ _______ _____ _____    ______ ____
ROOT
ATOM      1  O   UNL     1     -33.325  24.776   4.766  0.00  0.00    -0.235 OA
ATOM      2  C   UNL     1     -34.149  25.486   4.220  0.00  0.00    +0.442 C 
ENDROOT
BRANCH   2   4
ATOM      3  O   UNL     1     -34.813  27.742   3.760  0.00  0.00    -0.235 OA
ATOM      4  C   UNL     1     -33.906  26.958   3.963  0.00  0.00    +0.442 C 
BRANCH   4   5
ATOM      5  O   UNL     1     -32.577  27.187   4.006  0.00  0.00    -0.327 OA
BRANCH   5   8
ATOM      6  O   UNL     1     -32.139  27.000   6.837  0.00  0.00    -0.267 OA
ATOM      7  O   UNL     1     -32.097  29.922   3.273  0.00  0.00    -0.267 OA
ATOM      8  N   UNL     1     -32.268  28.250   4.881  0.00  0.00    -0.054 N 
ATOM      9  C   UNL     1     -31.812  29.398   6.817  0.00  0.00    +0.066 C 
ATOM     10  C   UNL     1     -31.798  30.369   5.633  0.00  0.00    +0.066 C 
ATOM     11  C   UNL     1     -32.087  28.048   6.212  0.00  0.00    +0.287 C 
ATOM     12  C   UNL     1     -32.066  29.514   4.423  0.00  0.00    +0.287 C 
ENDBRANCH   5   8
ENDBRANCH   4   5
ENDBRANCH   2   4
BRANCH   2  13
ATOM     13  O   UNL     1     -35.377  25.136   3.754  0.00  0.00    -0.327 OA
BRANCH  13  16
ATOM     14  O   UNL     1     -36.312  22.876   5.223  0.00  0.00    -0.267 OA
ATOM     15  O   UNL     1     -34.704  24.247   1.127  0.00  0.00    -0.267 OA
ATOM     16  N   UNL     1     -35.419  23.831   3.301  0.00  0.00    -0.054 N 
ATOM     17  C   UNL     1     -35.739  21.558   3.276  0.00  0.00    +0.066 C 
ATOM     18  C   UNL     1     -35.205  22.013   1.915  0.00  0.00    +0.066 C 
ATOM     19  C   UNL     1     -35.877  22.820   4.084  0.00  0.00    +0.287 C 
ATOM     20  C   UNL     1     -35.070  23.507   2.029  0.00  0.00    +0.287 C 
ENDBRANCH  13  16
ENDBRANCH   2  13
TORSDOF 5
ENDMDL
MODEL 9
REMARK VINA RESULT:      -5.6      1.333      6.473
REMARK  Name = 5004084
REMARK  5 active torsions:
REMARK  status: ('A' for Active; 'I' for Inactive)
REMARK    1  A    between atoms: C_2  and  C_4
REMARK    2  A    between atoms: C_2  and  O_13
REMARK    3  A    between atoms: C_4  and  O_5
REMARK    4  A    between atoms: O_5  and  N_8
REMARK    5  A    between atoms: O_13  and  N_16
REMARK                            x       y       z     vdW  Elec       q    Type
REMARK                         _______ _______ _______ _____ _____    ______ ____
ROOT
ATOM      1  O   UNL     1     -33.304  24.766   4.753  0.00  0.00    -0.235 OA
ATOM      2  C   UNL     1     -34.129  25.485   4.221  0.00  0.00    +0.442 C 
ENDROOT
BRANCH   2   4
ATOM      3  O   UNL     1     -34.799  27.747   3.804  0.00  0.00    -0.235 OA
ATOM      4  C   UNL     1     -33.889  26.961   3.990  0.00  0.00    +0.442 C 
BRANCH   4   5
ATOM      5  O   UNL     1     -32.561  27.192   4.033  0.00  0.00    -0.327 OA
BRANCH   5   8
ATOM      6  O   UNL     1     -32.265  29.971   3.376  0.00  0.00    -0.267 OA
ATOM      7  O   UNL     1     -32.273  26.979   6.882  0.00  0.00    -0.267 OA
ATOM      8  N   UNL     1     -32.251  28.238   4.927  0.00  0.00    -0.054 N 
ATOM      9  C   UNL     1     -31.761  30.339   5.714  0.00  0.00    +0.066 C 
ATOM     10  C   UNL     1     -31.764  29.346   6.879  0.00  0.00    +0.066 C 
ATOM     11  C   UNL     1     -32.127  29.524   4.504  0.00  0.00    +0.287 C 
ATOM     12  C   UNL     1     -32.131  28.022   6.263  0.00  0.00    +0.287 C 
ENDBRANCH   5   8
ENDBRANCH   4   5
ENDBRANCH   2   4
BRANCH   2  13
ATOM     13  O   UNL     1     -35.357  25.141   3.750  0.00  0.00    -0.327 OA
BRANCH  13  16
ATOM     14  O   UNL     1     -36.302  22.867   5.193  0.00  0.00    -0.267 OA
ATOM     15  O   UNL     1     -34.679  24.278   1.116  0.00  0.00    -0.267 OA
ATOM     16  N   UNL     1     -35.400  23.841   3.283  0.00  0.00    -0.054 N 
ATOM     17  C   UNL     1     -35.725  21.569   3.234  0.00  0.00    +0.066 C 
ATOM     18  C   UNL     1     -35.186  22.037   1.880  0.00  0.00    +0.066 C 
ATOM     19  C   UNL     1     -35.863  22.822   4.054  0.00  0.00    +0.287 C 
ATOM     20  C   UNL     1     -35.049  23.529   2.009  0.00  0.00    +0.287 C 
ENDBRANCH  13  16
ENDBRANCH   2  13
TORSDOF 5
ENDMDL
