MODEL 1
REMARK VINA RESULT:      -7.0      0.000      0.000
REMARK  Name = 5280897
REMARK  11 active torsions:
REMARK  status: ('A' for Active; 'I' for Inactive)
REMARK    1  A    between atoms: C_1  and  C_2
REMARK    2  A    between atoms: C_1  and  C_18
REMARK    3  A    between atoms: C_4  and  C_5
REMARK    4  A    between atoms: C_5  and  O_6
REMARK    5  A    between atoms: O_6  and  P_7
REMARK    6  A    between atoms: P_7  and  O_9
REMARK    7  A    between atoms: P_7  and  O_11
REMARK    8  A    between atoms: O_11  and  P_12
REMARK    9  A    between atoms: P_12  and  O_14
REMARK   10  A    between atoms: P_12  and  O_16
REMARK   11  A    between atoms: C_18  and  C_22
REMARK                            x       y       z     vdW  Elec       q    Type
REMARK                         _______ _______ _______ _____ _____    ______ ____
ROOT
ATOM      1  C   UNL     1     -35.543  21.182   3.304  0.00  0.00    +0.022 C 
ENDROOT
BRANCH   1   2
ATOM      2  C   UNL     1     -36.084  22.529   3.727  0.00  0.00    -0.046 C 
ATOM      3  C   UNL     1     -37.253  23.034   2.921  0.00  0.00    +0.026 C 
ATOM      4  C   UNL     1     -35.577  23.272   4.730  0.00  0.00    -0.002 C 
BRANCH   4   5
ATOM      5  C   UNL     1     -36.043  24.619   5.187  0.00  0.00    +0.179 C 
BRANCH   5   6
ATOM      6  O   UNL     1     -34.941  25.302   5.776  0.00  0.00    -0.268 OA
BRANCH   6   7
ATOM      7  P   UNL     1     -34.044  26.301   4.879  0.00  0.00    +0.484 P 
ATOM      8  O   UNL     1     -33.170  25.617   3.868  0.00  0.00    -0.227 OA
BRANCH   7   9
ATOM      9  O   UNL     1     -35.107  27.343   4.246  0.00  0.00    -0.302 OA
ATOM     10  H   UNL     1     -35.518  26.949   3.461  0.00  0.00    +0.222 HD
ENDBRANCH   7   9
BRANCH   7  11
ATOM     11  O   UNL     1     -33.237  27.201   5.952  0.00  0.00    -0.186 OA
BRANCH  11  12
ATOM     12  P   UNL     1     -31.976  28.195   5.767  0.00  0.00    +0.481 P 
ATOM     13  O   UNL     1     -32.294  29.649   5.952  0.00  0.00    -0.227 OA
BRANCH  12  14
ATOM     14  O   UNL     1     -30.874  27.594   6.785  0.00  0.00    -0.302 OA
ATOM     15  H   UNL     1     -31.319  27.071   7.472  0.00  0.00    +0.222 HD
ENDBRANCH  12  14
BRANCH  12  16
ATOM     16  O   UNL     1     -31.403  27.794   4.310  0.00  0.00    -0.302 OA
ATOM     17  H   UNL     1     -31.090  28.591   3.855  0.00  0.00    +0.222 HD
ENDBRANCH  12  16
ENDBRANCH  11  12
ENDBRANCH   7  11
ENDBRANCH   6   7
ENDBRANCH   5   6
ENDBRANCH   4   5
ENDBRANCH   1   2
BRANCH   1  18
ATOM     18  C   UNL     1     -35.624  21.000   1.793  0.00  0.00    +0.008 C 
BRANCH  18  22
ATOM     19  C   UNL     1     -33.566  20.042   0.468  0.00  0.00    +0.003 C 
ATOM     20  C   UNL     1     -32.111  20.496   0.043  0.00  0.00    +0.001 C 
ATOM     21  C   UNL     1     -31.104  19.360  -0.360  0.00  0.00    +0.000 C 
ATOM     22  C   UNL     1     -34.267  21.300   1.135  0.00  0.00    +0.019 C 
ATOM     23  C   UNL     1     -33.444  18.891   1.500  0.00  0.00    +0.000 C 
ATOM     24  C   UNL     1     -32.164  21.682  -0.947  0.00  0.00    +0.004 C 
ATOM     25  C   UNL     1     -31.143  18.233   0.702  0.00  0.00    +0.000 C 
ATOM     26  C   UNL     1     -32.544  17.746   1.040  0.00  0.00    +0.000 C 
ATOM     27  C   UNL     1     -34.436  19.549  -0.716  0.00  0.00    +0.000 C 
ATOM     28  C   UNL     1     -32.930  22.871  -0.362  0.00  0.00    +0.022 C 
ATOM     29  C   UNL     1     -34.291  22.467   0.149  0.00  0.00    -0.045 C 
ATOM     30  C   UNL     1     -31.330  18.771  -1.766  0.00  0.00    +0.000 C 
ATOM     31  C   UNL     1     -29.657  19.922  -0.358  0.00  0.00    +0.000 C 
ATOM     32  C   UNL     1     -35.390  23.110  -0.276  0.00  0.00    -0.009 C 
ENDBRANCH  18  22
ENDBRANCH   1  18
TORSDOF 11
ENDMDL
MODEL 2
REMARK VINA RESULT:      -6.7      1.158      2.338
REMARK  Name = 5280897
REMARK  11 active torsions:
REMARK  status: ('A' for Active; 'I' for Inactive)
REMARK    1  A    between atoms: C_1  and  C_2
REMARK    2  A    between atoms: C_1  and  C_18
REMARK    3  A    between atoms: C_4  and  C_5
REMARK    4  A    between atoms: C_5  and  O_6
REMARK    5  A    between atoms: O_6  and  P_7
REMARK    6  A    between atoms: P_7  and  O_9
REMARK    7  A    between atoms: P_7  and  O_11
REMARK    8  A    between atoms: O_11  and  P_12
REMARK    9  A    between atoms: P_12  and  O_14
REMARK   10  A    between atoms: P_12  and  O_16
REMARK   11  A    between atoms: C_18  and  C_22
REMARK                            x       y       z     vdW  Elec       q    Type
REMARK                         _______ _______ _______ _____ _____    ______ ____
ROOT
ATOM      1  C   UNL     1     -35.431  21.080   3.626  0.00  0.00    +0.022 C 
ENDROOT
BRANCH   1   2
ATOM      2  C   UNL     1     -35.525  22.225   4.608  0.00  0.00    -0.046 C 
ATOM      3  C   UNL     1     -35.274  21.859   6.048  0.00  0.00    +0.026 C 
ATOM      4  C   UNL     1     -35.830  23.493   4.271  0.00  0.00    -0.002 C 
BRANCH   4   5
ATOM      5  C   UNL     1     -35.964  24.669   5.188  0.00  0.00    +0.179 C 
BRANCH   5   6
ATOM      6  O   UNL     1     -34.663  25.068   5.605  0.00  0.00    -0.268 OA
BRANCH   6   7
ATOM      7  P   UNL     1     -33.962  26.355   4.926  0.00  0.00    +0.484 P 
ATOM      8  O   UNL     1     -33.215  27.236   5.885  0.00  0.00    -0.227 OA
BRANCH   7   9
ATOM      9  O   UNL     1     -33.053  25.742   3.737  0.00  0.00    -0.302 OA
ATOM     10  H   UNL     1     -32.222  25.405   4.106  0.00  0.00    +0.222 HD
ENDBRANCH   7   9
BRANCH   7  11
ATOM     11  O   UNL     1     -35.156  27.101   4.133  0.00  0.00    -0.186 OA
BRANCH  11  12
ATOM     12  P   UNL     1     -35.144  27.970   2.771  0.00  0.00    +0.481 P 
ATOM     13  O   UNL     1     -34.052  27.608   1.807  0.00  0.00    -0.227 OA
BRANCH  12  14
ATOM     14  O   UNL     1     -36.648  27.802   2.206  0.00  0.00    -0.302 OA
ATOM     15  H   UNL     1     -37.154  28.610   2.387  0.00  0.00    +0.222 HD
ENDBRANCH  12  14
BRANCH  12  16
ATOM     16  O   UNL     1     -35.111  29.494   3.308  0.00  0.00    -0.302 OA
ATOM     17  H   UNL     1     -34.834  30.085   2.591  0.00  0.00    +0.222 HD
ENDBRANCH  12  16
ENDBRANCH  11  12
ENDBRANCH   7  11
ENDBRANCH   6   7
ENDBRANCH   5   6
ENDBRANCH   4   5
ENDBRANCH   1   2
BRANCH   1  18
ATOM     18  C   UNL     1     -35.724  21.542   2.203  0.00  0.00    +0.008 C 
BRANCH  18  22
ATOM     19  C   UNL     1     -33.882  20.479   0.658  0.00  0.00    +0.003 C 
ATOM     20  C   UNL     1     -32.444  20.837   0.104  0.00  0.00    +0.001 C 
ATOM     21  C   UNL     1     -31.571  19.644  -0.426  0.00  0.00    +0.000 C 
ATOM     22  C   UNL     1     -34.416  21.763   1.423  0.00  0.00    +0.019 C 
ATOM     23  C   UNL     1     -33.751  19.287   1.642  0.00  0.00    +0.000 C 
ATOM     24  C   UNL     1     -32.499  22.057  -0.845  0.00  0.00    +0.004 C 
ATOM     25  C   UNL     1     -31.594  18.488   0.605  0.00  0.00    +0.000 C 
ATOM     26  C   UNL     1     -32.990  18.095   1.066  0.00  0.00    +0.000 C 
ATOM     27  C   UNL     1     -34.897  20.092  -0.448  0.00  0.00    +0.000 C 
ATOM     28  C   UNL     1     -33.111  23.279  -0.156  0.00  0.00    +0.022 C 
ATOM     29  C   UNL     1     -34.444  22.960   0.475  0.00  0.00    -0.045 C 
ATOM     30  C   UNL     1     -31.976  19.122  -1.818  0.00  0.00    +0.000 C 
ATOM     31  C   UNL     1     -30.091  20.096  -0.551  0.00  0.00    +0.000 C 
ATOM     32  C   UNL     1     -35.526  23.697   0.177  0.00  0.00    -0.009 C 
ENDBRANCH  18  22
ENDBRANCH   1  18
TORSDOF 11
ENDMDL
MODEL 3
REMARK VINA RESULT:      -6.6      1.397      2.013
REMARK  Name = 5280897
REMARK  11 active torsions:
REMARK  status: ('A' for Active; 'I' for Inactive)
REMARK    1  A    between atoms: C_1  and  C_2
REMARK    2  A    between atoms: C_1  and  C_18
REMARK    3  A    between atoms: C_4  and  C_5
REMARK    4  A    between atoms: C_5  and  O_6
REMARK    5  A    between atoms: O_6  and  P_7
REMARK    6  A    between atoms: P_7  and  O_9
REMARK    7  A    between atoms: P_7  and  O_11
REMARK    8  A    between atoms: O_11  and  P_12
REMARK    9  A    between atoms: P_12  and  O_14
REMARK   10  A    between atoms: P_12  and  O_16
REMARK   11  A    between atoms: C_18  and  C_22
REMARK                            x       y       z     vdW  Elec       q    Type
REMARK                         _______ _______ _______ _____ _____    ______ ____
ROOT
ATOM      1  C   UNL     1     -35.815  22.656   4.465  0.00  0.00    +0.022 C 
ENDROOT
BRANCH   1   2
ATOM      2  C   UNL     1     -35.599  24.104   4.842  0.00  0.00    -0.046 C 
ATOM      3  C   UNL     1     -36.771  25.016   4.585  0.00  0.00    +0.026 C 
ATOM      4  C   UNL     1     -34.453  24.596   5.352  0.00  0.00    -0.002 C 
BRANCH   4   5
ATOM      5  C   UNL     1     -34.161  26.015   5.724  0.00  0.00    +0.179 C 
BRANCH   5   6
ATOM      6  O   UNL     1     -32.925  26.393   5.127  0.00  0.00    -0.268 OA
BRANCH   6   7
ATOM      7  P   UNL     1     -32.835  27.752   4.259  0.00  0.00    +0.484 P 
ATOM      8  O   UNL     1     -31.844  27.709   3.132  0.00  0.00    -0.227 OA
BRANCH   7   9
ATOM      9  O   UNL     1     -34.359  28.039   3.796  0.00  0.00    -0.302 OA
ATOM     10  H   UNL     1     -34.744  27.227   3.430  0.00  0.00    +0.222 HD
ENDBRANCH   7   9
BRANCH   7  11
ATOM     11  O   UNL     1     -32.553  28.914   5.345  0.00  0.00    -0.186 OA
BRANCH  11  12
ATOM     12  P   UNL     1     -31.324  29.131   6.372  0.00  0.00    +0.481 P 
ATOM     13  O   UNL     1     -31.696  29.802   7.661  0.00  0.00    -0.227 OA
BRANCH  12  14
ATOM     14  O   UNL     1     -30.695  27.649   6.520  0.00  0.00    -0.302 OA
ATOM     15  H   UNL     1     -31.371  26.988   6.302  0.00  0.00    +0.222 HD
ENDBRANCH  12  14
BRANCH  12  16
ATOM     16  O   UNL     1     -30.231  29.917   5.477  0.00  0.00    -0.302 OA
ATOM     17  H   UNL     1     -29.711  29.277   4.967  0.00  0.00    +0.222 HD
ENDBRANCH  12  16
ENDBRANCH  11  12
ENDBRANCH   7  11
ENDBRANCH   6   7
ENDBRANCH   5   6
ENDBRANCH   4   5
ENDBRANCH   1   2
BRANCH   1  18
ATOM     18  C   UNL     1     -36.263  22.520   3.015  0.00  0.00    +0.008 C 
BRANCH  18  22
ATOM     19  C   UNL     1     -34.726  21.450   1.171  0.00  0.00    +0.003 C 
ATOM     20  C   UNL     1     -33.369  21.770   0.423  0.00  0.00    +0.001 C 
ATOM     21  C   UNL     1     -32.645  20.565  -0.279  0.00  0.00    +0.000 C 
ATOM     22  C   UNL     1     -35.075  22.719   2.057  0.00  0.00    +0.019 C 
ATOM     23  C   UNL     1     -34.511  20.209   2.076  0.00  0.00    +0.000 C 
ATOM     24  C   UNL     1     -33.501  23.033  -0.458  0.00  0.00    +0.004 C 
ATOM     25  C   UNL     1     -32.575  19.365   0.698  0.00  0.00    +0.000 C 
ATOM     26  C   UNL     1     -33.905  19.013   1.347  0.00  0.00    +0.000 C 
ATOM     27  C   UNL     1     -35.911  21.160   0.215  0.00  0.00    +0.000 C 
ATOM     28  C   UNL     1     -33.942  24.248   0.362  0.00  0.00    +0.022 C 
ATOM     29  C   UNL     1     -35.182  23.960   1.172  0.00  0.00    -0.045 C 
ATOM     30  C   UNL     1     -33.276  20.126  -1.614  0.00  0.00    +0.000 C 
ATOM     31  C   UNL     1     -31.178  20.957  -0.605  0.00  0.00    +0.000 C 
ATOM     32  C   UNL     1     -36.258  24.757   1.069  0.00  0.00    -0.009 C 
ENDBRANCH  18  22
ENDBRANCH   1  18
TORSDOF 11
ENDMDL
MODEL 4
REMARK VINA RESULT:      -6.5      1.746      2.716
REMARK  Name = 5280897
REMARK  11 active torsions:
REMARK  status: ('A' for Active; 'I' for Inactive)
REMARK    1  A    between atoms: C_1  and  C_2
REMARK    2  A    between atoms: C_1  and  C_18
REMARK    3  A    between atoms: C_4  and  C_5
REMARK    4  A    between atoms: C_5  and  O_6
REMARK    5  A    between atoms: O_6  and  P_7
REMARK    6  A    between atoms: P_7  and  O_9
REMARK    7  A    between atoms: P_7  and  O_11
REMARK    8  A    between atoms: O_11  and  P_12
REMARK    9  A    between atoms: P_12  and  O_14
REMARK   10  A    between atoms: P_12  and  O_16
REMARK   11  A    between atoms: C_18  and  C_22
REMARK                            x       y       z     vdW  Elec       q    Type
REMARK                         _______ _______ _______ _____ _____    ______ ____
ROOT
ATOM      1  C   UNL     1     -35.292  20.620   3.040  0.00  0.00    +0.022 C 
ENDROOT
BRANCH   1   2
ATOM      2  C   UNL     1     -36.016  21.902   3.384  0.00  0.00    -0.046 C 
ATOM      3  C   UNL     1     -35.571  22.568   4.660  0.00  0.00    +0.026 C 
ATOM      4  C   UNL     1     -37.007  22.437   2.646  0.00  0.00    -0.002 C 
BRANCH   4   5
ATOM      5  C   UNL     1     -37.783  23.684   2.935  0.00  0.00    +0.179 C 
BRANCH   5   6
ATOM      6  O   UNL     1     -37.741  24.519   1.783  0.00  0.00    -0.268 OA
BRANCH   6   7
ATOM      7  P   UNL     1     -36.828  25.851   1.789  0.00  0.00    +0.484 P 
ATOM      8  O   UNL     1     -36.276  26.235   0.447  0.00  0.00    -0.227 OA
BRANCH   7   9
ATOM      9  O   UNL     1     -37.761  26.980   2.475  0.00  0.00    -0.302 OA
ATOM     10  H   UNL     1     -38.655  26.626   2.604  0.00  0.00    +0.222 HD
ENDBRANCH   7   9
BRANCH   7  11
ATOM     11  O   UNL     1     -35.700  25.569   2.912  0.00  0.00    -0.186 OA
BRANCH  11  12
ATOM     12  P   UNL     1     -35.270  26.417   4.219  0.00  0.00    +0.481 P 
ATOM     13  O   UNL     1     -34.004  25.954   4.876  0.00  0.00    -0.227 OA
BRANCH  12  14
ATOM     14  O   UNL     1     -35.253  27.943   3.685  0.00  0.00    -0.302 OA
ATOM     15  H   UNL     1     -35.815  28.491   4.256  0.00  0.00    +0.222 HD
ENDBRANCH  12  14
BRANCH  12  16
ATOM     16  O   UNL     1     -36.591  26.356   5.147  0.00  0.00    -0.302 OA
ATOM     17  H   UNL     1     -36.413  26.797   5.992  0.00  0.00    +0.222 HD
ENDBRANCH  12  16
ENDBRANCH  11  12
ENDBRANCH   7  11
ENDBRANCH   6   7
ENDBRANCH   5   6
ENDBRANCH   4   5
ENDBRANCH   1   2
BRANCH   1  18
ATOM     18  C   UNL     1     -35.245  20.394   1.534  0.00  0.00    +0.008 C 
BRANCH  18  22
ATOM     19  C   UNL     1     -33.047  19.680   0.282  0.00  0.00    +0.003 C 
ATOM     20  C   UNL     1     -31.621  20.279  -0.051  0.00  0.00    +0.001 C 
ATOM     21  C   UNL     1     -30.496  19.256  -0.443  0.00  0.00    +0.000 C 
ATOM     22  C   UNL     1     -33.891  20.842   0.958  0.00  0.00    +0.019 C 
ATOM     23  C   UNL     1     -32.870  18.502   1.275  0.00  0.00    +0.000 C 
ATOM     24  C   UNL     1     -31.734  21.497  -0.998  0.00  0.00    +0.004 C 
ATOM     25  C   UNL     1     -30.483  18.087   0.573  0.00  0.00    +0.000 C 
ATOM     26  C   UNL     1     -31.848  17.463   0.820  0.00  0.00    +0.000 C 
ATOM     27  C   UNL     1     -33.811  19.161  -0.963  0.00  0.00    +0.000 C 
ATOM     28  C   UNL     1     -32.632  22.587  -0.409  0.00  0.00    +0.022 C 
ATOM     29  C   UNL     1     -33.974  22.042   0.016  0.00  0.00    -0.045 C 
ATOM     30  C   UNL     1     -30.600  18.709  -1.880  0.00  0.00    +0.000 C 
ATOM     31  C   UNL     1     -29.108  19.944  -0.346  0.00  0.00    +0.000 C 
ATOM     32  C   UNL     1     -35.106  22.601  -0.441  0.00  0.00    -0.009 C 
ENDBRANCH  18  22
ENDBRANCH   1  18
TORSDOF 11
ENDMDL
MODEL 5
REMARK VINA RESULT:      -6.3      2.039      4.269
REMARK  Name = 5280897
REMARK  11 active torsions:
REMARK  status: ('A' for Active; 'I' for Inactive)
REMARK    1  A    between atoms: C_1  and  C_2
REMARK    2  A    between atoms: C_1  and  C_18
REMARK    3  A    between atoms: C_4  and  C_5
REMARK    4  A    between atoms: C_5  and  O_6
REMARK    5  A    between atoms: O_6  and  P_7
REMARK    6  A    between atoms: P_7  and  O_9
REMARK    7  A    between atoms: P_7  and  O_11
REMARK    8  A    between atoms: O_11  and  P_12
REMARK    9  A    between atoms: P_12  and  O_14
REMARK   10  A    between atoms: P_12  and  O_16
REMARK   11  A    between atoms: C_18  and  C_22
REMARK                            x       y       z     vdW  Elec       q    Type
REMARK                         _______ _______ _______ _____ _____    ______ ____
ROOT
ATOM      1  C   UNL     1     -31.682  25.101  -0.235  0.00  0.00    +0.022 C 
ENDROOT
BRANCH   1   2
ATOM      2  C   UNL     1     -32.554  25.696   0.848  0.00  0.00    -0.046 C 
ATOM      3  C   UNL     1     -34.031  25.713   0.547  0.00  0.00    +0.026 C 
ATOM      4  C   UNL     1     -32.089  26.207   2.005  0.00  0.00    -0.002 C 
BRANCH   4   5
ATOM      5  C   UNL     1     -32.886  26.831   3.107  0.00  0.00    +0.179 C 
BRANCH   5   6
ATOM      6  O   UNL     1     -33.181  25.829   4.074  0.00  0.00    -0.268 OA
BRANCH   6   7
ATOM      7  P   UNL     1     -34.107  26.190   5.347  0.00  0.00    +0.484 P 
ATOM      8  O   UNL     1     -33.385  26.874   6.471  0.00  0.00    -0.227 OA
BRANCH   7   9
ATOM      9  O   UNL     1     -35.336  27.041   4.726  0.00  0.00    -0.302 OA
ATOM     10  H   UNL     1     -35.265  27.965   5.011  0.00  0.00    +0.222 HD
ENDBRANCH   7   9
BRANCH   7  11
ATOM     11  O   UNL     1     -34.799  24.789   5.760  0.00  0.00    -0.186 OA
BRANCH  11  12
ATOM     12  P   UNL     1     -35.836  23.841   4.961  0.00  0.00    +0.481 P 
ATOM     13  O   UNL     1     -36.103  22.517   5.612  0.00  0.00    -0.227 OA
BRANCH  12  14
ATOM     14  O   UNL     1     -37.131  24.788   4.763  0.00  0.00    -0.302 OA
ATOM     15  H   UNL     1     -36.843  25.700   4.602  0.00  0.00    +0.222 HD
ENDBRANCH  12  14
BRANCH  12  16
ATOM     16  O   UNL     1     -35.196  23.764   3.479  0.00  0.00    -0.302 OA
ATOM     17  H   UNL     1     -35.658  24.383   2.894  0.00  0.00    +0.222 HD
ENDBRANCH  12  16
ENDBRANCH  11  12
ENDBRANCH   7  11
ENDBRANCH   6   7
ENDBRANCH   5   6
ENDBRANCH   4   5
ENDBRANCH   1   2
BRANCH   1  18
ATOM     18  C   UNL     1     -32.419  24.013  -1.006  0.00  0.00    +0.008 C 
BRANCH  18  22
ATOM     19  C   UNL     1     -33.002  21.513  -0.441  0.00  0.00    +0.003 C 
ATOM     20  C   UNL     1     -32.287  20.229   0.144  0.00  0.00    +0.001 C 
ATOM     21  C   UNL     1     -33.215  19.095   0.709  0.00  0.00    +0.000 C 
ATOM     22  C   UNL     1     -31.882  22.621  -0.630  0.00  0.00    +0.019 C 
ATOM     23  C   UNL     1     -34.064  21.996   0.580  0.00  0.00    +0.000 C 
ATOM     24  C   UNL     1     -31.174  19.728  -0.805  0.00  0.00    +0.004 C 
ATOM     25  C   UNL     1     -34.284  19.718   1.640  0.00  0.00    +0.000 C 
ATOM     26  C   UNL     1     -35.025  20.900   1.033  0.00  0.00    +0.000 C 
ATOM     27  C   UNL     1     -33.704  21.269  -1.801  0.00  0.00    +0.000 C 
ATOM     28  C   UNL     1     -30.138  20.819  -1.085  0.00  0.00    +0.022 C 
ATOM     29  C   UNL     1     -30.783  22.100  -1.554  0.00  0.00    -0.045 C 
ATOM     30  C   UNL     1     -33.892  18.225  -0.368  0.00  0.00    +0.000 C 
ATOM     31  C   UNL     1     -32.379  18.122   1.582  0.00  0.00    +0.000 C 
ATOM     32  C   UNL     1     -30.388  22.675  -2.702  0.00  0.00    -0.009 C 
ENDBRANCH  18  22
ENDBRANCH   1  18
TORSDOF 11
ENDMDL
MODEL 6
REMARK VINA RESULT:      -6.3      7.871     12.553
REMARK  Name = 5280897
REMARK  11 active torsions:
REMARK  status: ('A' for Active; 'I' for Inactive)
REMARK    1  A    between atoms: C_1  and  C_2
REMARK    2  A    between atoms: C_1  and  C_18
REMARK    3  A    between atoms: C_4  and  C_5
REMARK    4  A    between atoms: C_5  and  O_6
REMARK    5  A    between atoms: O_6  and  P_7
REMARK    6  A    between atoms: P_7  and  O_9
REMARK    7  A    between atoms: P_7  and  O_11
REMARK    8  A    between atoms: O_11  and  P_12
REMARK    9  A    between atoms: P_12  and  O_14
REMARK   10  A    between atoms: P_12  and  O_16
REMARK   11  A    between atoms: C_18  and  C_22
REMARK                            x       y       z     vdW  Elec       q    Type
REMARK                         _______ _______ _______ _____ _____    ______ ____
ROOT
ATOM      1  C   UNL     1     -41.561  26.735   3.747  0.00  0.00    +0.022 C 
ENDROOT
BRANCH   1   2
ATOM      2  C   UNL     1     -40.938  25.730   2.805  0.00  0.00    -0.046 C 
ATOM      3  C   UNL     1     -41.663  25.536   1.499  0.00  0.00    +0.026 C 
ATOM      4  C   UNL     1     -39.827  25.017   3.079  0.00  0.00    -0.002 C 
BRANCH   4   5
ATOM      5  C   UNL     1     -39.169  23.992   2.210  0.00  0.00    +0.179 C 
BRANCH   5   6
ATOM      6  O   UNL     1     -38.437  23.098   3.042  0.00  0.00    -0.268 OA
BRANCH   6   7
ATOM      7  P   UNL     1     -36.851  23.314   3.251  0.00  0.00    +0.484 P 
ATOM      8  O   UNL     1     -36.417  24.750   3.303  0.00  0.00    -0.227 OA
BRANCH   7   9
ATOM      9  O   UNL     1     -36.498  22.462   4.581  0.00  0.00    -0.302 OA
ATOM     10  H   UNL     1     -35.797  21.823   4.379  0.00  0.00    +0.222 HD
ENDBRANCH   7   9
BRANCH   7  11
ATOM     11  O   UNL     1     -36.161  22.456   2.068  0.00  0.00    -0.186 OA
BRANCH  11  12
ATOM     12  P   UNL     1     -36.106  20.862   1.807  0.00  0.00    +0.481 P 
ATOM     13  O   UNL     1     -35.763  20.470   0.400  0.00  0.00    -0.227 OA
BRANCH  12  14
ATOM     14  O   UNL     1     -35.085  20.332   2.941  0.00  0.00    -0.302 OA
ATOM     15  H   UNL     1     -34.252  20.059   2.524  0.00  0.00    +0.222 HD
ENDBRANCH  12  14
BRANCH  12  16
ATOM     16  O   UNL     1     -37.549  20.355   2.331  0.00  0.00    -0.302 OA
ATOM     17  H   UNL     1     -37.448  19.934   3.199  0.00  0.00    +0.222 HD
ENDBRANCH  12  16
ENDBRANCH  11  12
ENDBRANCH   7  11
ENDBRANCH   6   7
ENDBRANCH   5   6
ENDBRANCH   4   5
ENDBRANCH   1   2
BRANCH   1  18
ATOM     18  C   UNL     1     -42.921  27.201   3.241  0.00  0.00    +0.008 C 
BRANCH  18  22
ATOM     19  C   UNL     1     -44.499  28.529   4.871  0.00  0.00    +0.003 C 
ATOM     20  C   UNL     1     -45.396  28.252   6.144  0.00  0.00    +0.001 C 
ATOM     21  C   UNL     1     -45.786  29.496   7.021  0.00  0.00    +0.000 C 
ATOM     22  C   UNL     1     -43.975  27.121   4.360  0.00  0.00    +0.019 C 
ATOM     23  C   UNL     1     -43.303  29.423   5.292  0.00  0.00    +0.000 C 
ATOM     24  C   UNL     1     -46.580  27.318   5.801  0.00  0.00    +0.004 C 
ATOM     25  C   UNL     1     -44.524  30.351   7.296  0.00  0.00    +0.000 C 
ATOM     26  C   UNL     1     -43.715  30.683   6.051  0.00  0.00    +0.000 C 
ATOM     27  C   UNL     1     -45.256  29.234   3.717  0.00  0.00    +0.000 C 
ATOM     28  C   UNL     1     -46.098  25.993   5.206  0.00  0.00    +0.022 C 
ATOM     29  C   UNL     1     -45.157  26.207   4.045  0.00  0.00    -0.045 C 
ATOM     30  C   UNL     1     -46.903  30.375   6.427  0.00  0.00    +0.000 C 
ATOM     31  C   UNL     1     -46.306  29.017   8.403  0.00  0.00    +0.000 C 
ATOM     32  C   UNL     1     -45.403  25.625   2.860  0.00  0.00    -0.009 C 
ENDBRANCH  18  22
ENDBRANCH   1  18
TORSDOF 11
ENDMDL
MODEL 7
REMARK VINA RESULT:      -6.2      8.470     12.843
REMARK  Name = 5280897
REMARK  11 active torsions:
REMARK  status: ('A' for Active; 'I' for Inactive)
REMARK    1  A    between atoms: C_1  and  C_2
REMARK    2  A    between atoms: C_1  and  C_18
REMARK    3  A    between atoms: C_4  and  C_5
REMARK    4  A    between atoms: C_5  and  O_6
REMARK    5  A    between atoms: O_6  and  P_7
REMARK    6  A    between atoms: P_7  and  O_9
REMARK    7  A    between atoms: P_7  and  O_11
REMARK    8  A    between atoms: O_11  and  P_12
REMARK    9  A    between atoms: P_12  and  O_14
REMARK   10  A    between atoms: P_12  and  O_16
REMARK   11  A    between atoms: C_18  and  C_22
REMARK                            x       y       z     vdW  Elec       q    Type
REMARK                         _______ _______ _______ _____ _____    ______ ____
ROOT
ATOM      1  C   UNL     1     -44.734  25.934   2.588  0.00  0.00    +0.022 C 
ENDROOT
BRANCH   1   2
ATOM      2  C   UNL     1     -43.439  26.562   2.125  0.00  0.00    -0.046 C 
ATOM      3  C   UNL     1     -43.586  27.666   1.110  0.00  0.00    +0.026 C 
ATOM      4  C   UNL     1     -42.216  26.182   2.544  0.00  0.00    -0.002 C 
BRANCH   4   5
ATOM      5  C   UNL     1     -40.895  26.738   2.114  0.00  0.00    +0.179 C 
BRANCH   5   6
ATOM      6  O   UNL     1     -39.909  26.344   3.061  0.00  0.00    -0.268 OA
BRANCH   6   7
ATOM      7  P   UNL     1     -38.496  25.751   2.551  0.00  0.00    +0.484 P 
ATOM      8  O   UNL     1     -38.581  24.928   1.298  0.00  0.00    -0.227 OA
BRANCH   7   9
ATOM      9  O   UNL     1     -37.531  27.045   2.436  0.00  0.00    -0.302 OA
ATOM     10  H   UNL     1     -37.583  27.560   3.256  0.00  0.00    +0.222 HD
ENDBRANCH   7   9
BRANCH   7  11
ATOM     11  O   UNL     1     -37.900  24.957   3.826  0.00  0.00    -0.186 OA
BRANCH  11  12
ATOM     12  P   UNL     1     -36.476  25.076   4.579  0.00  0.00    +0.481 P 
ATOM     13  O   UNL     1     -36.156  23.934   5.497  0.00  0.00    -0.227 OA
BRANCH  12  14
ATOM     14  O   UNL     1     -35.431  25.303   3.368  0.00  0.00    -0.302 OA
ATOM     15  H   UNL     1     -35.534  24.593   2.714  0.00  0.00    +0.222 HD
ENDBRANCH  12  14
BRANCH  12  16
ATOM     16  O   UNL     1     -36.555  26.527   5.286  0.00  0.00    -0.302 OA
ATOM     17  H   UNL     1     -36.187  27.198   4.690  0.00  0.00    +0.222 HD
ENDBRANCH  12  16
ENDBRANCH  11  12
ENDBRANCH   7  11
ENDBRANCH   6   7
ENDBRANCH   5   6
ENDBRANCH   4   5
ENDBRANCH   1   2
BRANCH   1  18
ATOM     18  C   UNL     1     -45.697  26.983   3.130  0.00  0.00    +0.008 C 
BRANCH  18  22
ATOM     19  C   UNL     1     -45.568  28.794   5.030  0.00  0.00    +0.003 C 
ATOM     20  C   UNL     1     -45.030  28.926   6.512  0.00  0.00    +0.001 C 
ATOM     21  C   UNL     1     -44.791  30.381   7.054  0.00  0.00    +0.000 C 
ATOM     22  C   UNL     1     -45.409  27.272   4.614  0.00  0.00    +0.019 C 
ATOM     23  C   UNL     1     -44.703  29.693   4.108  0.00  0.00    +0.000 C 
ATOM     24  C   UNL     1     -45.819  28.009   7.476  0.00  0.00    +0.004 C 
ATOM     25  C   UNL     1     -43.997  31.198   6.005  0.00  0.00    +0.000 C 
ATOM     26  C   UNL     1     -44.574  31.133   4.599  0.00  0.00    +0.000 C 
ATOM     27  C   UNL     1     -47.053  29.209   4.867  0.00  0.00    +0.000 C 
ATOM     28  C   UNL     1     -45.766  26.545   7.031  0.00  0.00    +0.022 C 
ATOM     29  C   UNL     1     -46.178  26.381   5.588  0.00  0.00    -0.045 C 
ATOM     30  C   UNL     1     -46.074  31.135   7.454  0.00  0.00    +0.000 C 
ATOM     31  C   UNL     1     -43.911  30.323   8.331  0.00  0.00    +0.000 C 
ATOM     32  C   UNL     1     -47.153  25.519   5.258  0.00  0.00    -0.009 C 
ENDBRANCH  18  22
ENDBRANCH   1  18
TORSDOF 11
ENDMDL
MODEL 8
REMARK VINA RESULT:      -6.2      1.675      2.558
REMARK  Name = 5280897
REMARK  11 active torsions:
REMARK  status: ('A' for Active; 'I' for Inactive)
REMARK    1  A    between atoms: C_1  and  C_2
REMARK    2  A    between atoms: C_1  and  C_18
REMARK    3  A    between atoms: C_4  and  C_5
REMARK    4  A    between atoms: C_5  and  O_6
REMARK    5  A    between atoms: O_6  and  P_7
REMARK    6  A    between atoms: P_7  and  O_9
REMARK    7  A    between atoms: P_7  and  O_11
REMARK    8  A    between atoms: O_11  and  P_12
REMARK    9  A    between atoms: P_12  and  O_14
REMARK   10  A    between atoms: P_12  and  O_16
REMARK   11  A    between atoms: C_18  and  C_22
REMARK                            x       y       z     vdW  Elec       q    Type
REMARK                         _______ _______ _______ _____ _____    ______ ____
ROOT
ATOM      1  C   UNL     1     -35.792  22.615   4.448  0.00  0.00    +0.022 C 
ENDROOT
BRANCH   1   2
ATOM      2  C   UNL     1     -35.569  24.060   4.832  0.00  0.00    -0.046 C 
ATOM      3  C   UNL     1     -36.764  24.962   4.659  0.00  0.00    +0.026 C 
ATOM      4  C   UNL     1     -34.399  24.557   5.278  0.00  0.00    -0.002 C 
BRANCH   4   5
ATOM      5  C   UNL     1     -34.099  25.975   5.653  0.00  0.00    +0.179 C 
BRANCH   5   6
ATOM      6  O   UNL     1     -33.092  26.470   4.777  0.00  0.00    -0.268 OA
BRANCH   6   7
ATOM      7  P   UNL     1     -33.374  27.794   3.896  0.00  0.00    +0.484 P 
ATOM      8  O   UNL     1     -34.800  27.960   3.459  0.00  0.00    -0.227 OA
BRANCH   7   9
ATOM      9  O   UNL     1     -32.807  29.010   4.800  0.00  0.00    -0.302 OA
ATOM     10  H   UNL     1     -33.536  29.605   5.036  0.00  0.00    +0.222 HD
ENDBRANCH   7   9
BRANCH   7  11
ATOM     11  O   UNL     1     -32.314  27.710   2.680  0.00  0.00    -0.186 OA
BRANCH  11  12
ATOM     12  P   UNL     1     -30.735  27.366   2.671  0.00  0.00    +0.481 P 
ATOM     13  O   UNL     1     -30.398  25.982   2.199  0.00  0.00    -0.227 OA
BRANCH  12  14
ATOM     14  O   UNL     1     -30.096  28.568   1.799  0.00  0.00    -0.302 OA
ATOM     15  H   UNL     1     -30.073  28.311   0.863  0.00  0.00    +0.222 HD
ENDBRANCH  12  14
BRANCH  12  16
ATOM     16  O   UNL     1     -30.276  27.710   4.182  0.00  0.00    -0.302 OA
ATOM     17  H   UNL     1     -30.627  28.577   4.437  0.00  0.00    +0.222 HD
ENDBRANCH  12  16
ENDBRANCH  11  12
ENDBRANCH   7  11
ENDBRANCH   6   7
ENDBRANCH   5   6
ENDBRANCH   4   5
ENDBRANCH   1   2
BRANCH   1  18
ATOM     18  C   UNL     1     -36.227  22.487   2.993  0.00  0.00    +0.008 C 
BRANCH  18  22
ATOM     19  C   UNL     1     -34.681  21.434   1.145  0.00  0.00    +0.003 C 
ATOM     20  C   UNL     1     -33.317  21.757   0.412  0.00  0.00    +0.001 C 
ATOM     21  C   UNL     1     -32.594  20.558  -0.301  0.00  0.00    +0.000 C 
ATOM     22  C   UNL     1     -35.031  22.692   2.047  0.00  0.00    +0.019 C 
ATOM     23  C   UNL     1     -34.481  20.180   2.035  0.00  0.00    +0.000 C 
ATOM     24  C   UNL     1     -33.436  23.034  -0.452  0.00  0.00    +0.004 C 
ATOM     25  C   UNL     1     -32.539  19.344   0.659  0.00  0.00    +0.000 C 
ATOM     26  C   UNL     1     -33.876  18.990   1.293  0.00  0.00    +0.000 C 
ATOM     27  C   UNL     1     -35.861  21.165   0.176  0.00  0.00    +0.000 C 
ATOM     28  C   UNL     1     -33.876  24.239   0.382  0.00  0.00    +0.022 C 
ATOM     29  C   UNL     1     -35.124  23.946   1.179  0.00  0.00    -0.045 C 
ATOM     30  C   UNL     1     -33.218  20.142  -1.647  0.00  0.00    +0.000 C 
ATOM     31  C   UNL     1     -31.124  20.946  -0.611  0.00  0.00    +0.000 C 
ATOM     32  C   UNL     1     -36.194  24.751   1.079  0.00  0.00    -0.009 C 
ENDBRANCH  18  22
ENDBRANCH   1  18
TORSDOF 11
ENDMDL
MODEL 9
REMARK VINA RESULT:      -6.2      3.653      5.023
REMARK  Name = 5280897
REMARK  11 active torsions:
REMARK  status: ('A' for Active; 'I' for Inactive)
REMARK    1  A    between atoms: C_1  and  C_2
REMARK    2  A    between atoms: C_1  and  C_18
REMARK    3  A    between atoms: C_4  and  C_5
REMARK    4  A    between atoms: C_5  and  O_6
REMARK    5  A    between atoms: O_6  and  P_7
REMARK    6  A    between atoms: P_7  and  O_9
REMARK    7  A    between atoms: P_7  and  O_11
REMARK    8  A    between atoms: O_11  and  P_12
REMARK    9  A    between atoms: P_12  and  O_14
REMARK   10  A    between atoms: P_12  and  O_16
REMARK   11  A    between atoms: C_18  and  C_22
REMARK                            x       y       z     vdW  Elec       q    Type
REMARK                         _______ _______ _______ _____ _____    ______ ____
ROOT
ATOM      1  C   UNL     1     -35.399  20.909   3.302  0.00  0.00    +0.022 C 
ENDROOT
BRANCH   1   2
ATOM      2  C   UNL     1     -35.664  22.287   3.865  0.00  0.00    -0.046 C 
ATOM      3  C   UNL     1     -35.080  22.547   5.229  0.00  0.00    +0.026 C 
ATOM      4  C   UNL     1     -36.384  23.239   3.240  0.00  0.00    -0.002 C 
BRANCH   4   5
ATOM      5  C   UNL     1     -36.707  24.611   3.744  0.00  0.00    +0.179 C 
BRANCH   5   6
ATOM      6  O   UNL     1     -38.091  24.656   4.074  0.00  0.00    -0.268 OA
BRANCH   6   7
ATOM      7  P   UNL     1     -39.193  24.759   2.898  0.00  0.00    +0.484 P 
ATOM      8  O   UNL     1     -40.346  25.671   3.200  0.00  0.00    -0.227 OA
BRANCH   7   9
ATOM      9  O   UNL     1     -38.346  25.168   1.582  0.00  0.00    -0.302 OA
ATOM     10  H   UNL     1     -37.398  25.072   1.764  0.00  0.00    +0.222 HD
ENDBRANCH   7   9
BRANCH   7  11
ATOM     11  O   UNL     1     -39.620  23.228   2.602  0.00  0.00    -0.186 OA
BRANCH  11  12
ATOM     12  P   UNL     1     -39.997  22.480   1.220  0.00  0.00    +0.481 P 
ATOM     13  O   UNL     1     -41.127  23.105   0.458  0.00  0.00    -0.227 OA
BRANCH  12  14
ATOM     14  O   UNL     1     -38.586  22.414   0.434  0.00  0.00    -0.302 OA
ATOM     15  H   UNL     1     -37.858  22.463   1.073  0.00  0.00    +0.222 HD
ENDBRANCH  12  14
BRANCH  12  16
ATOM     16  O   UNL     1     -40.242  20.951   1.685  0.00  0.00    -0.302 OA
ATOM     17  H   UNL     1     -39.600  20.373   1.246  0.00  0.00    +0.222 HD
ENDBRANCH  12  16
ENDBRANCH  11  12
ENDBRANCH   7  11
ENDBRANCH   6   7
ENDBRANCH   5   6
ENDBRANCH   4   5
ENDBRANCH   1   2
BRANCH   1  18
ATOM     18  C   UNL     1     -35.500  20.901   1.782  0.00  0.00    +0.008 C 
BRANCH  18  22
ATOM     19  C   UNL     1     -33.438  19.968   0.445  0.00  0.00    +0.003 C 
ATOM     20  C   UNL     1     -31.977  20.423   0.045  0.00  0.00    +0.001 C 
ATOM     21  C   UNL     1     -30.975  19.292  -0.385  0.00  0.00    +0.000 C 
ATOM     22  C   UNL     1     -34.135  21.211   1.144  0.00  0.00    +0.019 C 
ATOM     23  C   UNL     1     -33.334  18.784   1.441  0.00  0.00    +0.000 C 
ATOM     24  C   UNL     1     -32.012  21.640  -0.908  0.00  0.00    +0.004 C 
ATOM     25  C   UNL     1     -31.031  18.134   0.642  0.00  0.00    +0.000 C 
ATOM     26  C   UNL     1     -32.438  17.648   0.954  0.00  0.00    +0.000 C 
ATOM     27  C   UNL     1     -34.302  19.519  -0.761  0.00  0.00    +0.000 C 
ATOM     28  C   UNL     1     -32.773  22.816  -0.293  0.00  0.00    +0.022 C 
ATOM     29  C   UNL     1     -34.142  22.407   0.194  0.00  0.00    -0.045 C 
ATOM     30  C   UNL     1     -31.194  18.749  -1.810  0.00  0.00    +0.000 C 
ATOM     31  C   UNL     1     -29.523  19.842  -0.353  0.00  0.00    +0.000 C 
ATOM     32  C   UNL     1     -35.233  23.072  -0.220  0.00  0.00    -0.009 C 
ENDBRANCH  18  22
ENDBRANCH   1  18
TORSDOF 11
ENDMDL
