MODEL 1
REMARK VINA RESULT:      -5.6      0.000      0.000
REMARK  Name = 5281729
REMARK  12 active torsions:
REMARK  status: ('A' for Active; 'I' for Inactive)
REMARK    1  A    between atoms: C_3  and  O_10
REMARK    2  A    between atoms: C_6  and  C_17
REMARK    3  A    between atoms: O_10  and  C_12
REMARK    4  A    between atoms: C_12  and  C_13
REMARK    5  A    between atoms: C_17  and  O_18
REMARK    6  A    between atoms: O_18  and  C_20
REMARK    7  A    between atoms: C_20  and  C_21
REMARK    8  A    between atoms: C_21  and  C_22
REMARK    9  A    between atoms: C_21  and  O_27
REMARK   10  A    between atoms: C_21  and  C_29
REMARK   11  A    between atoms: C_22  and  O_25
REMARK   12  A    between atoms: C_29  and  O_31
REMARK                            x       y       z     vdW  Elec       q    Type
REMARK                         _______ _______ _______ _____ _____    ______ ____
ROOT
ATOM      1  N   UNL     1     -39.128  23.970   1.725  0.00  0.00    +0.396 N 
ATOM      2  C   UNL     1     -37.663  23.829   1.986  0.00  0.00    +0.006 C 
ATOM      3  C   UNL     1     -37.320  24.875   3.053  0.00  0.00    +0.152 C 
ATOM      4  C   UNL     1     -38.483  25.854   2.977  0.00  0.00    +0.019 C 
ATOM      5  C   UNL     1     -39.665  24.943   2.684  0.00  0.00    -0.073 C 
ATOM      6  C   UNL     1     -37.434  22.385   2.300  0.00  0.00    -0.023 C 
ATOM      7  C   UNL     1     -39.715  22.622   1.872  0.00  0.00    -0.050 C 
ATOM      8  C   UNL     1     -38.587  21.715   2.235  0.00  0.00    -0.056 C 
ATOM      9  H   UNL     1     -39.347  24.317   0.792  0.00  0.00    -0.079 HD
ENDROOT
BRANCH   3  10
ATOM     10  O   UNL     1     -37.244  24.328   4.364  0.00  0.00    -0.451 OA
BRANCH  10  12
ATOM     11  O   UNL     1     -36.319  25.947   5.717  0.00  0.00    -0.245 OA
ATOM     12  C   UNL     1     -36.278  24.851   5.174  0.00  0.00    +0.337 C 
BRANCH  12  13
ATOM     13  C   UNL     1     -35.147  23.882   5.302  0.00  0.00    +0.049 C 
ATOM     14  C   UNL     1     -35.349  22.661   6.149  0.00  0.00    +0.037 C 
ATOM     15  C   UNL     1     -34.014  24.212   4.655  0.00  0.00    -0.024 C 
ATOM     16  C   UNL     1     -33.766  25.435   3.830  0.00  0.00    +0.031 C 
ENDBRANCH  12  13
ENDBRANCH  10  12
ENDBRANCH   3  10
BRANCH   6  17
ATOM     17  C   UNL     1     -36.085  21.833   2.584  0.00  0.00    +0.229 C 
BRANCH  17  18
ATOM     18  O   UNL     1     -36.044  20.438   2.263  0.00  0.00    -0.442 OA
BRANCH  18  20
ATOM     19  O   UNL     1     -34.023  20.400   1.174  0.00  0.00    -0.247 OA
ATOM     20  C   UNL     1     -35.206  20.087   1.246  0.00  0.00    +0.346 C 
BRANCH  20  21
ATOM     21  C   UNL     1     -35.942  19.246   0.191  0.00  0.00    +0.224 C 
BRANCH  21  22
ATOM     22  C   UNL     1     -35.099  18.009  -0.264  0.00  0.00    +0.123 C 
ATOM     23  C   UNL     1     -34.283  18.304  -1.536  0.00  0.00    +0.032 C 
ATOM     24  C   UNL     1     -35.986  16.782  -0.537  0.00  0.00    +0.032 C 
BRANCH  22  25
ATOM     25  O   UNL     1     -34.171  17.643   0.759  0.00  0.00    -0.384 OA
ATOM     26  H   UNL     1     -34.644  17.527   1.598  0.00  0.00    +0.210 HD
ENDBRANCH  22  25
ENDBRANCH  21  22
BRANCH  21  27
ATOM     27  O   UNL     1     -37.077  18.720   0.911  0.00  0.00    -0.373 OA
ATOM     28  H   UNL     1     -37.263  17.818   0.610  0.00  0.00    +0.211 HD
ENDBRANCH  21  27
BRANCH  21  29
ATOM     29  C   UNL     1     -36.535  20.132  -0.943  0.00  0.00    +0.148 C 
ATOM     30  C   UNL     1     -36.052  21.572  -1.057  0.00  0.00    +0.035 C 
BRANCH  29  31
ATOM     31  O   UNL     1     -37.963  20.152  -0.814  0.00  0.00    -0.381 OA
ATOM     32  H   UNL     1     -38.322  20.900  -1.316  0.00  0.00    +0.210 HD
ENDBRANCH  29  31
ENDBRANCH  21  29
ENDBRANCH  20  21
ENDBRANCH  18  20
ENDBRANCH  17  18
ENDBRANCH   6  17
TORSDOF 12
ENDMDL
MODEL 2
REMARK VINA RESULT:      -5.5      1.077      2.026
REMARK  Name = 5281729
REMARK  12 active torsions:
REMARK  status: ('A' for Active; 'I' for Inactive)
REMARK    1  A    between atoms: C_3  and  O_10
REMARK    2  A    between atoms: C_6  and  C_17
REMARK    3  A    between atoms: O_10  and  C_12
REMARK    4  A    between atoms: C_12  and  C_13
REMARK    5  A    between atoms: C_17  and  O_18
REMARK    6  A    between atoms: O_18  and  C_20
REMARK    7  A    between atoms: C_20  and  C_21
REMARK    8  A    between atoms: C_21  and  C_22
REMARK    9  A    between atoms: C_21  and  O_27
REMARK   10  A    between atoms: C_21  and  C_29
REMARK   11  A    between atoms: C_22  and  O_25
REMARK   12  A    between atoms: C_29  and  O_31
REMARK                            x       y       z     vdW  Elec       q    Type
REMARK                         _______ _______ _______ _____ _____    ______ ____
ROOT
ATOM      1  N   UNL     1     -39.165  23.911   1.859  0.00  0.00    +0.396 N 
ATOM      2  C   UNL     1     -37.678  24.026   1.957  0.00  0.00    +0.006 C 
ATOM      3  C   UNL     1     -37.405  25.014   3.097  0.00  0.00    +0.152 C 
ATOM      4  C   UNL     1     -38.723  25.757   3.247  0.00  0.00    +0.019 C 
ATOM      5  C   UNL     1     -39.750  24.671   2.970  0.00  0.00    -0.073 C 
ATOM      6  C   UNL     1     -37.160  22.629   2.082  0.00  0.00    -0.023 C 
ATOM      7  C   UNL     1     -39.482  22.469   1.908  0.00  0.00    -0.050 C 
ATOM      8  C   UNL     1     -38.175  21.761   2.055  0.00  0.00    -0.056 C 
ATOM      9  H   UNL     1     -39.550  24.295   0.997  0.00  0.00    -0.079 HD
ENDROOT
BRANCH   3  10
ATOM     10  O   UNL     1     -37.079  24.371   4.324  0.00  0.00    -0.451 OA
BRANCH  10  12
ATOM     11  O   UNL     1     -36.317  25.921   5.848  0.00  0.00    -0.245 OA
ATOM     12  C   UNL     1     -36.126  24.984   5.085  0.00  0.00    +0.337 C 
BRANCH  12  13
ATOM     13  C   UNL     1     -34.798  24.340   4.846  0.00  0.00    +0.049 C 
ATOM     14  C   UNL     1     -33.815  25.046   3.961  0.00  0.00    +0.037 C 
ATOM     15  C   UNL     1     -34.611  23.145   5.435  0.00  0.00    -0.024 C 
ATOM     16  C   UNL     1     -35.580  22.397   6.295  0.00  0.00    +0.031 C 
ENDBRANCH  12  13
ENDBRANCH  10  12
ENDBRANCH   3  10
BRANCH   6  17
ATOM     17  C   UNL     1     -35.711  22.317   2.167  0.00  0.00    +0.229 C 
BRANCH  17  18
ATOM     18  O   UNL     1     -35.349  21.367   1.161  0.00  0.00    -0.442 OA
BRANCH  18  20
ATOM     19  O   UNL     1     -34.658  19.906   2.793  0.00  0.00    -0.247 OA
ATOM     20  C   UNL     1     -34.866  20.175   1.615  0.00  0.00    +0.346 C 
BRANCH  20  21
ATOM     21  C   UNL     1     -34.608  19.205   0.450  0.00  0.00    +0.224 C 
BRANCH  21  22
ATOM     22  C   UNL     1     -33.539  19.760  -0.548  0.00  0.00    +0.123 C 
ATOM     23  C   UNL     1     -33.240  18.766  -1.685  0.00  0.00    +0.032 C 
ATOM     24  C   UNL     1     -32.214  20.092   0.160  0.00  0.00    +0.032 C 
BRANCH  22  25
ATOM     25  O   UNL     1     -34.011  20.966  -1.154  0.00  0.00    -0.384 OA
ATOM     26  H   UNL     1     -33.933  20.896  -2.118  0.00  0.00    +0.210 HD
ENDBRANCH  22  25
ENDBRANCH  21  22
BRANCH  21  27
ATOM     27  O   UNL     1     -34.007  18.061   1.093  0.00  0.00    -0.373 OA
ATOM     28  H   UNL     1     -33.175  18.327   1.515  0.00  0.00    +0.211 HD
ENDBRANCH  21  27
BRANCH  21  29
ATOM     29  C   UNL     1     -35.935  18.689  -0.177  0.00  0.00    +0.148 C 
ATOM     30  C   UNL     1     -36.570  19.509  -1.292  0.00  0.00    +0.035 C 
BRANCH  29  31
ATOM     31  O   UNL     1     -36.907  18.530   0.866  0.00  0.00    -0.381 OA
ATOM     32  H   UNL     1     -37.620  19.178   0.745  0.00  0.00    +0.210 HD
ENDBRANCH  29  31
ENDBRANCH  21  29
ENDBRANCH  20  21
ENDBRANCH  18  20
ENDBRANCH  17  18
ENDBRANCH   6  17
TORSDOF 12
ENDMDL
MODEL 3
REMARK VINA RESULT:      -5.4      4.194      8.787
REMARK  Name = 5281729
REMARK  12 active torsions:
REMARK  status: ('A' for Active; 'I' for Inactive)
REMARK    1  A    between atoms: C_3  and  O_10
REMARK    2  A    between atoms: C_6  and  C_17
REMARK    3  A    between atoms: O_10  and  C_12
REMARK    4  A    between atoms: C_12  and  C_13
REMARK    5  A    between atoms: C_17  and  O_18
REMARK    6  A    between atoms: O_18  and  C_20
REMARK    7  A    between atoms: C_20  and  C_21
REMARK    8  A    between atoms: C_21  and  C_22
REMARK    9  A    between atoms: C_21  and  O_27
REMARK   10  A    between atoms: C_21  and  C_29
REMARK   11  A    between atoms: C_22  and  O_25
REMARK   12  A    between atoms: C_29  and  O_31
REMARK                            x       y       z     vdW  Elec       q    Type
REMARK                         _______ _______ _______ _____ _____    ______ ____
ROOT
ATOM      1  N   UNL     1     -33.899  25.273   0.508  0.00  0.00    +0.396 N 
ATOM      2  C   UNL     1     -34.560  25.803   1.739  0.00  0.00    +0.006 C 
ATOM      3  C   UNL     1     -35.604  24.756   2.143  0.00  0.00    +0.152 C 
ATOM      4  C   UNL     1     -35.808  23.948   0.870  0.00  0.00    +0.019 C 
ATOM      5  C   UNL     1     -34.412  23.919   0.268  0.00  0.00    -0.073 C 
ATOM      6  C   UNL     1     -33.458  26.121   2.698  0.00  0.00    -0.023 C 
ATOM      7  C   UNL     1     -32.444  25.308   0.761  0.00  0.00    -0.050 C 
ATOM      8  C   UNL     1     -32.275  25.841   2.145  0.00  0.00    -0.056 C 
ATOM      9  H   UNL     1     -34.093  25.820  -0.330  0.00  0.00    -0.079 HD
ENDROOT
BRANCH   3  10
ATOM     10  O   UNL     1     -35.156  23.896   3.185  0.00  0.00    -0.451 OA
BRANCH  10  12
ATOM     11  O   UNL     1     -37.254  23.383   3.986  0.00  0.00    -0.245 OA
ATOM     12  C   UNL     1     -36.100  23.071   3.726  0.00  0.00    +0.337 C 
BRANCH  12  13
ATOM     13  C   UNL     1     -35.511  21.718   3.960  0.00  0.00    +0.049 C 
ATOM     14  C   UNL     1     -35.397  20.781   2.795  0.00  0.00    +0.037 C 
ATOM     15  C   UNL     1     -35.155  21.443   5.228  0.00  0.00    -0.024 C 
ATOM     16  C   UNL     1     -35.285  22.339   6.420  0.00  0.00    +0.031 C 
ENDBRANCH  12  13
ENDBRANCH  10  12
ENDBRANCH   3  10
BRANCH   6  17
ATOM     17  C   UNL     1     -33.708  26.709   4.038  0.00  0.00    +0.229 C 
BRANCH  17  18
ATOM     18  O   UNL     1     -32.486  27.194   4.603  0.00  0.00    -0.442 OA
BRANCH  18  20
ATOM     19  O   UNL     1     -33.155  29.361   4.241  0.00  0.00    -0.247 OA
ATOM     20  C   UNL     1     -32.289  28.541   4.528  0.00  0.00    +0.346 C 
BRANCH  20  21
ATOM     21  C   UNL     1     -30.830  28.904   4.844  0.00  0.00    +0.224 C 
BRANCH  21  22
ATOM     22  C   UNL     1     -30.526  28.827   6.377  0.00  0.00    +0.123 C 
ATOM     23  C   UNL     1     -31.596  29.551   7.214  0.00  0.00    +0.032 C 
ATOM     24  C   UNL     1     -29.155  29.435   6.720  0.00  0.00    +0.032 C 
BRANCH  22  25
ATOM     25  O   UNL     1     -30.505  27.463   6.806  0.00  0.00    -0.384 OA
ATOM     26  H   UNL     1     -30.115  26.911   6.110  0.00  0.00    +0.210 HD
ENDBRANCH  22  25
ENDBRANCH  21  22
BRANCH  21  27
ATOM     27  O   UNL     1     -30.077  27.837   4.228  0.00  0.00    -0.373 OA
ATOM     28  H   UNL     1     -30.176  27.027   4.750  0.00  0.00    +0.211 HD
ENDBRANCH  21  27
BRANCH  21  29
ATOM     29  C   UNL     1     -30.388  30.207   4.118  0.00  0.00    +0.148 C 
ATOM     30  C   UNL     1     -30.937  31.534   4.625  0.00  0.00    +0.035 C 
BRANCH  29  31
ATOM     31  O   UNL     1     -30.716  30.094   2.726  0.00  0.00    -0.381 OA
ATOM     32  H   UNL     1     -31.517  30.609   2.541  0.00  0.00    +0.210 HD
ENDBRANCH  29  31
ENDBRANCH  21  29
ENDBRANCH  20  21
ENDBRANCH  18  20
ENDBRANCH  17  18
ENDBRANCH   6  17
TORSDOF 12
ENDMDL
MODEL 4
REMARK VINA RESULT:      -5.4      3.158      6.895
REMARK  Name = 5281729
REMARK  12 active torsions:
REMARK  status: ('A' for Active; 'I' for Inactive)
REMARK    1  A    between atoms: C_3  and  O_10
REMARK    2  A    between atoms: C_6  and  C_17
REMARK    3  A    between atoms: O_10  and  C_12
REMARK    4  A    between atoms: C_12  and  C_13
REMARK    5  A    between atoms: C_17  and  O_18
REMARK    6  A    between atoms: O_18  and  C_20
REMARK    7  A    between atoms: C_20  and  C_21
REMARK    8  A    between atoms: C_21  and  C_22
REMARK    9  A    between atoms: C_21  and  O_27
REMARK   10  A    between atoms: C_21  and  C_29
REMARK   11  A    between atoms: C_22  and  O_25
REMARK   12  A    between atoms: C_29  and  O_31
REMARK                            x       y       z     vdW  Elec       q    Type
REMARK                         _______ _______ _______ _____ _____    ______ ____
ROOT
ATOM      1  N   UNL     1     -34.495  20.912   0.341  0.00  0.00    +0.396 N 
ATOM      2  C   UNL     1     -35.375  22.081   0.645  0.00  0.00    +0.006 C 
ATOM      3  C   UNL     1     -36.016  21.784   2.005  0.00  0.00    +0.152 C 
ATOM      4  C   UNL     1     -35.847  20.280   2.158  0.00  0.00    +0.019 C 
ATOM      5  C   UNL     1     -34.491  20.032   1.515  0.00  0.00    -0.073 C 
ATOM      6  C   UNL     1     -34.515  23.296   0.509  0.00  0.00    -0.023 C 
ATOM      7  C   UNL     1     -33.161  21.461   0.019  0.00  0.00    -0.050 C 
ATOM      8  C   UNL     1     -33.276  22.943   0.159  0.00  0.00    -0.056 C 
ATOM      9  H   UNL     1     -34.812  20.354  -0.452  0.00  0.00    -0.079 HD
ENDROOT
BRANCH   3  10
ATOM     10  O   UNL     1     -35.367  22.448   3.083  0.00  0.00    -0.451 OA
BRANCH  10  12
ATOM     11  O   UNL     1     -37.340  23.353   3.852  0.00  0.00    -0.245 OA
ATOM     12  C   UNL     1     -36.185  22.992   4.031  0.00  0.00    +0.337 C 
BRANCH  12  13
ATOM     13  C   UNL     1     -35.456  23.088   5.332  0.00  0.00    +0.049 C 
ATOM     14  C   UNL     1     -35.013  21.817   5.993  0.00  0.00    +0.037 C 
ATOM     15  C   UNL     1     -35.284  24.330   5.819  0.00  0.00    -0.024 C 
ATOM     16  C   UNL     1     -35.741  25.615   5.205  0.00  0.00    +0.031 C 
ENDBRANCH  12  13
ENDBRANCH  10  12
ENDBRANCH   3  10
BRANCH   6  17
ATOM     17  C   UNL     1     -35.040  24.672   0.698  0.00  0.00    +0.229 C 
BRANCH  17  18
ATOM     18  O   UNL     1     -34.450  25.272   1.856  0.00  0.00    -0.442 OA
BRANCH  18  20
ATOM     19  O   UNL     1     -34.498  27.378   0.944  0.00  0.00    -0.247 OA
ATOM     20  C   UNL     1     -34.005  26.551   1.702  0.00  0.00    +0.346 C 
BRANCH  20  21
ATOM     21  C   UNL     1     -32.790  26.824   2.604  0.00  0.00    +0.224 C 
BRANCH  21  22
ATOM     22  C   UNL     1     -33.005  28.081   3.510  0.00  0.00    +0.123 C 
ATOM     23  C   UNL     1     -32.258  29.315   2.972  0.00  0.00    +0.032 C 
ATOM     24  C   UNL     1     -32.539  27.831   4.955  0.00  0.00    +0.032 C 
BRANCH  22  25
ATOM     25  O   UNL     1     -34.394  28.417   3.564  0.00  0.00    -0.384 OA
ATOM     26  H   UNL     1     -34.892  27.825   2.981  0.00  0.00    +0.210 HD
ENDBRANCH  22  25
ENDBRANCH  21  22
BRANCH  21  27
ATOM     27  O   UNL     1     -32.767  25.685   3.490  0.00  0.00    -0.373 OA
ATOM     28  H   UNL     1     -33.634  25.583   3.909  0.00  0.00    +0.211 HD
ENDBRANCH  21  27
BRANCH  21  29
ATOM     29  C   UNL     1     -31.455  26.768   1.808  0.00  0.00    +0.148 C 
ATOM     30  C   UNL     1     -31.478  26.176   0.405  0.00  0.00    +0.035 C 
BRANCH  29  31
ATOM     31  O   UNL     1     -30.488  26.042   2.579  0.00  0.00    -0.381 OA
ATOM     32  H   UNL     1     -30.771  26.013   3.507  0.00  0.00    +0.210 HD
ENDBRANCH  29  31
ENDBRANCH  21  29
ENDBRANCH  20  21
ENDBRANCH  18  20
ENDBRANCH  17  18
ENDBRANCH   6  17
TORSDOF 12
ENDMDL
MODEL 5
REMARK VINA RESULT:      -5.4      3.367      6.091
REMARK  Name = 5281729
REMARK  12 active torsions:
REMARK  status: ('A' for Active; 'I' for Inactive)
REMARK    1  A    between atoms: C_3  and  O_10
REMARK    2  A    between atoms: C_6  and  C_17
REMARK    3  A    between atoms: O_10  and  C_12
REMARK    4  A    between atoms: C_12  and  C_13
REMARK    5  A    between atoms: C_17  and  O_18
REMARK    6  A    between atoms: O_18  and  C_20
REMARK    7  A    between atoms: C_20  and  C_21
REMARK    8  A    between atoms: C_21  and  C_22
REMARK    9  A    between atoms: C_21  and  O_27
REMARK   10  A    between atoms: C_21  and  C_29
REMARK   11  A    between atoms: C_22  and  O_25
REMARK   12  A    between atoms: C_29  and  O_31
REMARK                            x       y       z     vdW  Elec       q    Type
REMARK                         _______ _______ _______ _____ _____    ______ ____
ROOT
ATOM      1  N   UNL     1     -35.796  21.395   4.256  0.00  0.00    +0.396 N 
ATOM      2  C   UNL     1     -36.393  22.747   4.039  0.00  0.00    +0.006 C 
ATOM      3  C   UNL     1     -35.884  23.625   5.188  0.00  0.00    +0.152 C 
ATOM      4  C   UNL     1     -35.436  22.615   6.234  0.00  0.00    +0.019 C 
ATOM      5  C   UNL     1     -34.864  21.490   5.386  0.00  0.00    -0.073 C 
ATOM      6  C   UNL     1     -36.048  23.134   2.637  0.00  0.00    -0.023 C 
ATOM      7  C   UNL     1     -35.138  21.015   2.989  0.00  0.00    -0.050 C 
ATOM      8  C   UNL     1     -35.345  22.160   2.054  0.00  0.00    -0.056 C 
ATOM      9  H   UNL     1     -36.480  20.676   4.492  0.00  0.00    -0.079 HD
ENDROOT
BRANCH   3  10
ATOM     10  O   UNL     1     -34.782  24.445   4.816  0.00  0.00    -0.451 OA
BRANCH  10  12
ATOM     11  O   UNL     1     -35.895  26.316   5.567  0.00  0.00    -0.245 OA
ATOM     12  C   UNL     1     -34.943  25.786   5.011  0.00  0.00    +0.337 C 
BRANCH  12  13
ATOM     13  C   UNL     1     -33.775  26.522   4.438  0.00  0.00    +0.049 C 
ATOM     14  C   UNL     1     -33.649  26.603   2.946  0.00  0.00    +0.037 C 
ATOM     15  C   UNL     1     -32.907  27.033   5.330  0.00  0.00    -0.024 C 
ATOM     16  C   UNL     1     -32.983  26.942   6.822  0.00  0.00    +0.031 C 
ENDBRANCH  12  13
ENDBRANCH  10  12
ENDBRANCH   3  10
BRANCH   6  17
ATOM     17  C   UNL     1     -36.499  24.410   2.025  0.00  0.00    +0.229 C 
BRANCH  17  18
ATOM     18  O   UNL     1     -37.835  24.712   2.438  0.00  0.00    -0.442 OA
BRANCH  18  20
ATOM     19  O   UNL     1     -38.883  23.205   1.059  0.00  0.00    -0.247 OA
ATOM     20  C   UNL     1     -38.825  24.307   1.594  0.00  0.00    +0.346 C 
BRANCH  20  21
ATOM     21  C   UNL     1     -39.866  25.420   1.389  0.00  0.00    +0.224 C 
BRANCH  21  22
ATOM     22  C   UNL     1     -39.292  26.612   0.555  0.00  0.00    +0.123 C 
ATOM     23  C   UNL     1     -40.394  27.593   0.116  0.00  0.00    +0.032 C 
ATOM     24  C   UNL     1     -38.553  26.126  -0.704  0.00  0.00    +0.032 C 
BRANCH  22  25
ATOM     25  O   UNL     1     -38.353  27.354   1.338  0.00  0.00    -0.384 OA
ATOM     26  H   UNL     1     -37.453  27.154   1.038  0.00  0.00    +0.210 HD
ENDBRANCH  22  25
ENDBRANCH  21  22
BRANCH  21  27
ATOM     27  O   UNL     1     -40.870  24.794   0.563  0.00  0.00    -0.373 OA
ATOM     28  H   UNL     1     -40.442  24.342  -0.180  0.00  0.00    +0.211 HD
ENDBRANCH  21  27
BRANCH  21  29
ATOM     29  C   UNL     1     -40.584  25.791   2.719  0.00  0.00    +0.148 C 
ATOM     30  C   UNL     1     -41.900  26.553   2.637  0.00  0.00    +0.035 C 
BRANCH  29  31
ATOM     31  O   UNL     1     -39.681  26.551   3.534  0.00  0.00    -0.381 OA
ATOM     32  H   UNL     1     -39.502  26.066   4.356  0.00  0.00    +0.210 HD
ENDBRANCH  29  31
ENDBRANCH  21  29
ENDBRANCH  20  21
ENDBRANCH  18  20
ENDBRANCH  17  18
ENDBRANCH   6  17
TORSDOF 12
ENDMDL
MODEL 6
REMARK VINA RESULT:      -5.4      4.246      9.003
REMARK  Name = 5281729
REMARK  12 active torsions:
REMARK  status: ('A' for Active; 'I' for Inactive)
REMARK    1  A    between atoms: C_3  and  O_10
REMARK    2  A    between atoms: C_6  and  C_17
REMARK    3  A    between atoms: O_10  and  C_12
REMARK    4  A    between atoms: C_12  and  C_13
REMARK    5  A    between atoms: C_17  and  O_18
REMARK    6  A    between atoms: O_18  and  C_20
REMARK    7  A    between atoms: C_20  and  C_21
REMARK    8  A    between atoms: C_21  and  C_22
REMARK    9  A    between atoms: C_21  and  O_27
REMARK   10  A    between atoms: C_21  and  C_29
REMARK   11  A    between atoms: C_22  and  O_25
REMARK   12  A    between atoms: C_29  and  O_31
REMARK                            x       y       z     vdW  Elec       q    Type
REMARK                         _______ _______ _______ _____ _____    ______ ____
ROOT
ATOM      1  N   UNL     1     -34.087  26.090   0.805  0.00  0.00    +0.396 N 
ATOM      2  C   UNL     1     -34.558  26.444   2.178  0.00  0.00    +0.006 C 
ATOM      3  C   UNL     1     -35.622  25.403   2.543  0.00  0.00    +0.152 C 
ATOM      4  C   UNL     1     -36.033  24.828   1.196  0.00  0.00    +0.019 C 
ATOM      5  C   UNL     1     -34.723  24.823   0.423  0.00  0.00    -0.073 C 
ATOM      6  C   UNL     1     -33.331  26.541   3.027  0.00  0.00    -0.023 C 
ATOM      7  C   UNL     1     -32.614  26.005   0.872  0.00  0.00    -0.050 C 
ATOM      8  C   UNL     1     -32.245  26.293   2.290  0.00  0.00    -0.056 C 
ATOM      9  H   UNL     1     -34.338  26.777   0.094  0.00  0.00    -0.079 HD
ENDROOT
BRANCH   3  10
ATOM     10  O   UNL     1     -35.119  24.361   3.371  0.00  0.00    -0.451 OA
BRANCH  10  12
ATOM     11  O   UNL     1     -37.120  23.935   4.431  0.00  0.00    -0.245 OA
ATOM     12  C   UNL     1     -36.056  23.559   3.957  0.00  0.00    +0.337 C 
BRANCH  12  13
ATOM     13  C   UNL     1     -35.587  22.140   3.940  0.00  0.00    +0.049 C 
ATOM     14  C   UNL     1     -35.558  21.417   2.627  0.00  0.00    +0.037 C 
ATOM     15  C   UNL     1     -35.253  21.617   5.134  0.00  0.00    -0.024 C 
ATOM     16  C   UNL     1     -35.301  22.297   6.466  0.00  0.00    +0.031 C 
ENDBRANCH  12  13
ENDBRANCH  10  12
ENDBRANCH   3  10
BRANCH   6  17
ATOM     17  C   UNL     1     -33.379  26.914   4.463  0.00  0.00    +0.229 C 
BRANCH  17  18
ATOM     18  O   UNL     1     -32.064  27.216   4.940  0.00  0.00    -0.442 OA
BRANCH  18  20
ATOM     19  O   UNL     1     -32.789  27.684   7.068  0.00  0.00    -0.247 OA
ATOM     20  C   UNL     1     -31.999  27.851   6.145  0.00  0.00    +0.346 C 
BRANCH  20  21
ATOM     21  C   UNL     1     -30.805  28.817   6.196  0.00  0.00    +0.224 C 
BRANCH  21  22
ATOM     22  C   UNL     1     -30.872  29.891   5.061  0.00  0.00    +0.123 C 
ATOM     23  C   UNL     1     -29.741  30.929   5.181  0.00  0.00    +0.032 C 
ATOM     24  C   UNL     1     -32.214  30.643   5.064  0.00  0.00    +0.032 C 
BRANCH  22  25
ATOM     25  O   UNL     1     -30.738  29.266   3.782  0.00  0.00    -0.384 OA
ATOM     26  H   UNL     1     -31.572  29.348   3.294  0.00  0.00    +0.210 HD
ENDBRANCH  22  25
ENDBRANCH  21  22
BRANCH  21  27
ATOM     27  O   UNL     1     -30.999  29.526   7.438  0.00  0.00    -0.373 OA
ATOM     28  H   UNL     1     -31.930  29.781   7.522  0.00  0.00    +0.211 HD
ENDBRANCH  21  27
BRANCH  21  29
ATOM     29  C   UNL     1     -29.455  28.059   6.349  0.00  0.00    +0.148 C 
ATOM     30  C   UNL     1     -28.280  28.801   6.974  0.00  0.00    +0.035 C 
BRANCH  29  31
ATOM     31  O   UNL     1     -29.044  27.583   5.059  0.00  0.00    -0.381 OA
ATOM     32  H   UNL     1     -29.746  27.032   4.679  0.00  0.00    +0.210 HD
ENDBRANCH  29  31
ENDBRANCH  21  29
ENDBRANCH  20  21
ENDBRANCH  18  20
ENDBRANCH  17  18
ENDBRANCH   6  17
TORSDOF 12
ENDMDL
MODEL 7
REMARK VINA RESULT:      -5.4      3.890      8.489
REMARK  Name = 5281729
REMARK  12 active torsions:
REMARK  status: ('A' for Active; 'I' for Inactive)
REMARK    1  A    between atoms: C_3  and  O_10
REMARK    2  A    between atoms: C_6  and  C_17
REMARK    3  A    between atoms: O_10  and  C_12
REMARK    4  A    between atoms: C_12  and  C_13
REMARK    5  A    between atoms: C_17  and  O_18
REMARK    6  A    between atoms: O_18  and  C_20
REMARK    7  A    between atoms: C_20  and  C_21
REMARK    8  A    between atoms: C_21  and  C_22
REMARK    9  A    between atoms: C_21  and  O_27
REMARK   10  A    between atoms: C_21  and  C_29
REMARK   11  A    between atoms: C_22  and  O_25
REMARK   12  A    between atoms: C_29  and  O_31
REMARK                            x       y       z     vdW  Elec       q    Type
REMARK                         _______ _______ _______ _____ _____    ______ ____
ROOT
ATOM      1  N   UNL     1     -34.006  24.209   0.026  0.00  0.00    +0.396 N 
ATOM      2  C   UNL     1     -34.792  25.113   0.919  0.00  0.00    +0.006 C 
ATOM      3  C   UNL     1     -35.749  24.206   1.702  0.00  0.00    +0.152 C 
ATOM      4  C   UNL     1     -35.791  22.932   0.872  0.00  0.00    +0.019 C 
ATOM      5  C   UNL     1     -34.364  22.825   0.357  0.00  0.00    -0.073 C 
ATOM      6  C   UNL     1     -33.790  25.921   1.679  0.00  0.00    -0.023 C 
ATOM      7  C   UNL     1     -32.580  24.515   0.264  0.00  0.00    -0.050 C 
ATOM      8  C   UNL     1     -32.553  25.581   1.308  0.00  0.00    -0.056 C 
ATOM      9  H   UNL     1     -34.201  24.340  -0.966  0.00  0.00    -0.079 HD
ENDROOT
BRANCH   3  10
ATOM     10  O   UNL     1     -35.283  23.905   3.012  0.00  0.00    -0.451 OA
BRANCH  10  12
ATOM     11  O   UNL     1     -37.401  23.450   3.792  0.00  0.00    -0.245 OA
ATOM     12  C   UNL     1     -36.242  23.794   3.977  0.00  0.00    +0.337 C 
BRANCH  12  13
ATOM     13  C   UNL     1     -35.665  24.161   5.306  0.00  0.00    +0.049 C 
ATOM     14  C   UNL     1     -35.638  25.609   5.694  0.00  0.00    +0.037 C 
ATOM     15  C   UNL     1     -35.185  23.140   6.040  0.00  0.00    -0.024 C 
ATOM     16  C   UNL     1     -35.165  21.690   5.672  0.00  0.00    +0.031 C 
ENDBRANCH  12  13
ENDBRANCH  10  12
ENDBRANCH   3  10
BRANCH   6  17
ATOM     17  C   UNL     1     -34.182  26.971   2.654  0.00  0.00    +0.229 C 
BRANCH  17  18
ATOM     18  O   UNL     1     -33.123  27.199   3.589  0.00  0.00    -0.442 OA
BRANCH  18  20
ATOM     19  O   UNL     1     -32.764  29.274   2.675  0.00  0.00    -0.247 OA
ATOM     20  C   UNL     1     -32.525  28.422   3.524  0.00  0.00    +0.346 C 
BRANCH  20  21
ATOM     21  C   UNL     1     -31.501  28.597   4.656  0.00  0.00    +0.224 C 
BRANCH  21  22
ATOM     22  C   UNL     1     -31.739  29.916   5.463  0.00  0.00    +0.123 C 
ATOM     23  C   UNL     1     -30.716  31.008   5.097  0.00  0.00    +0.032 C 
ATOM     24  C   UNL     1     -31.666  29.679   6.981  0.00  0.00    +0.032 C 
BRANCH  22  25
ATOM     25  O   UNL     1     -33.038  30.440   5.177  0.00  0.00    -0.384 OA
ATOM     26  H   UNL     1     -33.151  31.290   5.631  0.00  0.00    +0.210 HD
ENDBRANCH  22  25
ENDBRANCH  21  22
BRANCH  21  27
ATOM     27  O   UNL     1     -31.808  27.511   5.557  0.00  0.00    -0.373 OA
ATOM     28  H   UNL     1     -31.655  26.665   5.108  0.00  0.00    +0.211 HD
ENDBRANCH  21  27
BRANCH  21  29
ATOM     29  C   UNL     1     -30.047  28.341   4.165  0.00  0.00    +0.148 C 
ATOM     30  C   UNL     1     -29.852  27.581   2.860  0.00  0.00    +0.035 C 
BRANCH  29  31
ATOM     31  O   UNL     1     -29.328  27.647   5.195  0.00  0.00    -0.381 OA
ATOM     32  H   UNL     1     -29.675  27.907   6.062  0.00  0.00    +0.210 HD
ENDBRANCH  29  31
ENDBRANCH  21  29
ENDBRANCH  20  21
ENDBRANCH  18  20
ENDBRANCH  17  18
ENDBRANCH   6  17
TORSDOF 12
ENDMDL
MODEL 8
REMARK VINA RESULT:      -5.3      3.013      4.851
REMARK  Name = 5281729
REMARK  12 active torsions:
REMARK  status: ('A' for Active; 'I' for Inactive)
REMARK    1  A    between atoms: C_3  and  O_10
REMARK    2  A    between atoms: C_6  and  C_17
REMARK    3  A    between atoms: O_10  and  C_12
REMARK    4  A    between atoms: C_12  and  C_13
REMARK    5  A    between atoms: C_17  and  O_18
REMARK    6  A    between atoms: O_18  and  C_20
REMARK    7  A    between atoms: C_20  and  C_21
REMARK    8  A    between atoms: C_21  and  C_22
REMARK    9  A    between atoms: C_21  and  O_27
REMARK   10  A    between atoms: C_21  and  C_29
REMARK   11  A    between atoms: C_22  and  O_25
REMARK   12  A    between atoms: C_29  and  O_31
REMARK                            x       y       z     vdW  Elec       q    Type
REMARK                         _______ _______ _______ _____ _____    ______ ____
ROOT
ATOM      1  N   UNL     1     -35.807  21.541   4.204  0.00  0.00    +0.396 N 
ATOM      2  C   UNL     1     -36.424  22.901   4.141  0.00  0.00    +0.006 C 
ATOM      3  C   UNL     1     -35.883  23.668   5.353  0.00  0.00    +0.152 C 
ATOM      4  C   UNL     1     -35.390  22.566   6.279  0.00  0.00    +0.019 C 
ATOM      5  C   UNL     1     -34.838  21.537   5.306  0.00  0.00    -0.073 C 
ATOM      6  C   UNL     1     -36.131  23.427   2.772  0.00  0.00    -0.023 C 
ATOM      7  C   UNL     1     -35.190  21.295   2.884  0.00  0.00    -0.050 C 
ATOM      8  C   UNL     1     -35.439  22.524   2.074  0.00  0.00    -0.056 C 
ATOM      9  H   UNL     1     -36.476  20.795   4.390  0.00  0.00    -0.079 HD
ENDROOT
BRANCH   3  10
ATOM     10  O   UNL     1     -34.803  24.534   5.026  0.00  0.00    -0.451 OA
BRANCH  10  12
ATOM     11  O   UNL     1     -36.079  26.406   5.443  0.00  0.00    -0.245 OA
ATOM     12  C   UNL     1     -34.995  25.858   5.299  0.00  0.00    +0.337 C 
BRANCH  12  13
ATOM     13  C   UNL     1     -33.673  26.550   5.393  0.00  0.00    +0.049 C 
ATOM     14  C   UNL     1     -33.069  26.745   6.752  0.00  0.00    +0.037 C 
ATOM     15  C   UNL     1     -33.146  26.971   4.230  0.00  0.00    -0.024 C 
ATOM     16  C   UNL     1     -33.736  26.824   2.862  0.00  0.00    +0.031 C 
ENDBRANCH  12  13
ENDBRANCH  10  12
ENDBRANCH   3  10
BRANCH   6  17
ATOM     17  C   UNL     1     -36.614  24.751   2.304  0.00  0.00    +0.229 C 
BRANCH  17  18
ATOM     18  O   UNL     1     -37.522  24.587   1.210  0.00  0.00    -0.442 OA
BRANCH  18  20
ATOM     19  O   UNL     1     -39.446  24.396   2.449  0.00  0.00    -0.247 OA
ATOM     20  C   UNL     1     -38.732  24.039   1.518  0.00  0.00    +0.346 C 
BRANCH  20  21
ATOM     21  C   UNL     1     -39.086  22.903   0.546  0.00  0.00    +0.224 C 
BRANCH  21  22
ATOM     22  C   UNL     1     -40.440  23.166  -0.194  0.00  0.00    +0.123 C 
ATOM     23  C   UNL     1     -40.784  22.040  -1.185  0.00  0.00    +0.032 C 
ATOM     24  C   UNL     1     -40.420  24.496  -0.967  0.00  0.00    +0.032 C 
BRANCH  22  25
ATOM     25  O   UNL     1     -41.510  23.240   0.751  0.00  0.00    -0.384 OA
ATOM     26  H   UNL     1     -42.017  22.413   0.730  0.00  0.00    +0.210 HD
ENDBRANCH  22  25
ENDBRANCH  21  22
BRANCH  21  27
ATOM     27  O   UNL     1     -38.053  22.986  -0.459  0.00  0.00    -0.373 OA
ATOM     28  H   UNL     1     -38.437  22.820  -1.333  0.00  0.00    +0.211 HD
ENDBRANCH  21  27
BRANCH  21  29
ATOM     29  C   UNL     1     -38.922  21.505   1.206  0.00  0.00    +0.148 C 
ATOM     30  C   UNL     1     -38.303  20.386   0.378  0.00  0.00    +0.035 C 
BRANCH  29  31
ATOM     31  O   UNL     1     -40.205  21.057   1.666  0.00  0.00    -0.381 OA
ATOM     32  H   UNL     1     -40.085  20.352   2.321  0.00  0.00    +0.210 HD
ENDBRANCH  29  31
ENDBRANCH  21  29
ENDBRANCH  20  21
ENDBRANCH  18  20
ENDBRANCH  17  18
ENDBRANCH   6  17
TORSDOF 12
ENDMDL
MODEL 9
REMARK VINA RESULT:      -5.3      1.178      1.825
REMARK  Name = 5281729
REMARK  12 active torsions:
REMARK  status: ('A' for Active; 'I' for Inactive)
REMARK    1  A    between atoms: C_3  and  O_10
REMARK    2  A    between atoms: C_6  and  C_17
REMARK    3  A    between atoms: O_10  and  C_12
REMARK    4  A    between atoms: C_12  and  C_13
REMARK    5  A    between atoms: C_17  and  O_18
REMARK    6  A    between atoms: O_18  and  C_20
REMARK    7  A    between atoms: C_20  and  C_21
REMARK    8  A    between atoms: C_21  and  C_22
REMARK    9  A    between atoms: C_21  and  O_27
REMARK   10  A    between atoms: C_21  and  C_29
REMARK   11  A    between atoms: C_22  and  O_25
REMARK   12  A    between atoms: C_29  and  O_31
REMARK                            x       y       z     vdW  Elec       q    Type
REMARK                         _______ _______ _______ _____ _____    ______ ____
ROOT
ATOM      1  N   UNL     1     -39.178  23.967   1.743  0.00  0.00    +0.396 N 
ATOM      2  C   UNL     1     -37.704  23.903   1.980  0.00  0.00    +0.006 C 
ATOM      3  C   UNL     1     -37.401  24.952   3.055  0.00  0.00    +0.152 C 
ATOM      4  C   UNL     1     -38.616  25.867   3.010  0.00  0.00    +0.019 C 
ATOM      5  C   UNL     1     -39.751  24.898   2.723  0.00  0.00    -0.073 C 
ATOM      6  C   UNL     1     -37.392  22.470   2.271  0.00  0.00    -0.023 C 
ATOM      7  C   UNL     1     -39.690  22.588   1.881  0.00  0.00    -0.050 C 
ATOM      8  C   UNL     1     -38.508  21.738   2.215  0.00  0.00    -0.056 C 
ATOM      9  H   UNL     1     -39.431  24.313   0.818  0.00  0.00    -0.079 HD
ENDROOT
BRANCH   3  10
ATOM     10  O   UNL     1     -37.274  24.393   4.357  0.00  0.00    -0.451 OA
BRANCH  10  12
ATOM     11  O   UNL     1     -36.347  26.040   5.675  0.00  0.00    -0.245 OA
ATOM     12  C   UNL     1     -36.303  24.937   5.148  0.00  0.00    +0.337 C 
BRANCH  12  13
ATOM     13  C   UNL     1     -35.162  23.979   5.276  0.00  0.00    +0.049 C 
ATOM     14  C   UNL     1     -35.354  22.755   6.120  0.00  0.00    +0.037 C 
ATOM     15  C   UNL     1     -34.032  24.322   4.632  0.00  0.00    -0.024 C 
ATOM     16  C   UNL     1     -33.795  25.550   3.810  0.00  0.00    +0.031 C 
ENDBRANCH  12  13
ENDBRANCH  10  12
ENDBRANCH   3  10
BRANCH   6  17
ATOM     17  C   UNL     1     -36.011  21.987   2.526  0.00  0.00    +0.229 C 
BRANCH  17  18
ATOM     18  O   UNL     1     -35.425  21.500   1.314  0.00  0.00    -0.442 OA
BRANCH  18  20
ATOM     19  O   UNL     1     -34.503  19.706   2.412  0.00  0.00    -0.247 OA
ATOM     20  C   UNL     1     -34.872  20.256   1.379  0.00  0.00    +0.346 C 
BRANCH  20  21
ATOM     21  C   UNL     1     -34.762  19.628  -0.019  0.00  0.00    +0.224 C 
BRANCH  21  22
ATOM     22  C   UNL     1     -35.881  18.565  -0.273  0.00  0.00    +0.123 C 
ATOM     23  C   UNL     1     -35.313  17.136  -0.351  0.00  0.00    +0.032 C 
ATOM     24  C   UNL     1     -36.653  18.846  -1.574  0.00  0.00    +0.032 C 
BRANCH  22  25
ATOM     25  O   UNL     1     -36.830  18.585   0.797  0.00  0.00    -0.384 OA
ATOM     26  H   UNL     1     -37.227  19.467   0.860  0.00  0.00    +0.210 HD
ENDBRANCH  22  25
ENDBRANCH  21  22
BRANCH  21  27
ATOM     27  O   UNL     1     -35.043  20.731  -0.906  0.00  0.00    -0.373 OA
ATOM     28  H   UNL     1     -35.868  20.560  -1.384  0.00  0.00    +0.211 HD
ENDBRANCH  21  27
BRANCH  21  29
ATOM     29  C   UNL     1     -33.305  19.186  -0.341  0.00  0.00    +0.148 C 
ATOM     30  C   UNL     1     -32.161  19.939   0.325  0.00  0.00    +0.035 C 
BRANCH  29  31
ATOM     31  O   UNL     1     -33.108  19.246  -1.761  0.00  0.00    -0.381 OA
ATOM     32  H   UNL     1     -32.740  20.112  -1.999  0.00  0.00    +0.210 HD
ENDBRANCH  29  31
ENDBRANCH  21  29
ENDBRANCH  20  21
ENDBRANCH  18  20
ENDBRANCH  17  18
ENDBRANCH   6  17
TORSDOF 12
ENDMDL
