MODEL 1
REMARK VINA RESULT:      -6.0      0.000      0.000
REMARK  Name = 53297381
REMARK  7 active torsions:
REMARK  status: ('A' for Active; 'I' for Inactive)
REMARK    1  A    between atoms: N_2  and  C_5
REMARK    2  A    between atoms: C_3  and  C_17
REMARK    3  A    between atoms: C_5  and  C_10
REMARK    4  A    between atoms: C_17  and  N_19
REMARK    5  A    between atoms: C_17  and  C_26
REMARK    6  A    between atoms: C_20  and  O_22
REMARK    7  A    between atoms: O_22  and  C_23
REMARK                            x       y       z     vdW  Elec       q    Type
REMARK                         _______ _______ _______ _____ _____    ______ ____
ROOT
ATOM      1  O   UNL     1     -40.523  20.771   0.892  0.00  0.00    -0.273 OA
ATOM      2  N   UNL     1     -38.846  22.376   0.868  0.00  0.00    -0.298 N 
ATOM      3  C   UNL     1     -39.473  21.217   0.432  0.00  0.00    +0.241 C 
ATOM      4  H   UNL     1     -38.006  22.647   0.432  0.00  0.00    +0.150 HD
ENDROOT
BRANCH   2   5
ATOM      5  C   UNL     1     -39.368  23.201   1.933  0.00  0.00    +0.130 C 
ATOM      6  C   UNL     1     -40.215  24.332   1.354  0.00  0.00    +0.030 C 
BRANCH   5  10
ATOM      7  S   UNL     1     -38.229  25.361   3.263  0.00  0.00    -0.074 S 
ATOM      8  F   UNL     1     -34.186  26.365   6.358  0.00  0.00    -0.204 F 
ATOM      9  N   UNL     1     -37.306  22.954   3.327  0.00  0.00    -0.402 NA
ATOM     10  C   UNL     1     -38.263  23.706   2.836  0.00  0.00    +0.152 C 
ATOM     11  C   UNL     1     -36.807  25.080   4.197  0.00  0.00    +0.130 C 
ATOM     12  C   UNL     1     -36.463  23.728   4.111  0.00  0.00    +0.124 C 
ATOM     13  C   UNL     1     -36.051  25.992   4.952  0.00  0.00    +0.021 C 
ATOM     14  C   UNL     1     -35.322  23.275   4.806  0.00  0.00    +0.031 C 
ATOM     15  C   UNL     1     -34.926  25.516   5.631  0.00  0.00    +0.137 C 
ATOM     16  C   UNL     1     -34.564  24.176   5.560  0.00  0.00    +0.032 C 
ENDBRANCH   5  10
ENDBRANCH   2   5
BRANCH   3  17
ATOM     17  C   UNL     1     -38.687  20.516  -0.673  0.00  0.00    +0.151 C 
BRANCH  17  19
ATOM     18  O   UNL     1     -35.846  20.778  -1.222  0.00  0.00    -0.226 OA
ATOM     19  N   UNL     1     -37.599  19.797  -0.060  0.00  0.00    -0.264 N 
ATOM     20  C   UNL     1     -36.271  19.988  -0.385  0.00  0.00    +0.402 C 
ATOM     21  H   UNL     1     -37.816  19.130   0.631  0.00  0.00    +0.153 HD
BRANCH  20  22
ATOM     22  O   UNL     1     -35.487  19.160   0.368  0.00  0.00    -0.438 OA
BRANCH  22  23
ATOM     23  C   UNL     1     -34.455  19.799   1.130  0.00  0.00    +0.171 C 
ATOM     24  C   UNL     1     -33.367  18.785   1.450  0.00  0.00    +0.047 C 
ATOM     25  C   UNL     1     -35.061  20.397   2.391  0.00  0.00    +0.047 C 
ENDBRANCH  22  23
ENDBRANCH  20  22
ENDBRANCH  17  19
BRANCH  17  26
ATOM     26  C   UNL     1     -39.586  19.620  -1.551  0.00  0.00    +0.027 C 
ATOM     27  C   UNL     1     -39.221  18.142  -1.384  0.00  0.00    +0.002 C 
ATOM     28  C   UNL     1     -39.548  20.002  -3.035  0.00  0.00    +0.002 C 
ENDBRANCH  17  26
ENDBRANCH   3  17
TORSDOF 7
ENDMDL
MODEL 2
REMARK VINA RESULT:      -5.9      3.520      5.534
REMARK  Name = 53297381
REMARK  7 active torsions:
REMARK  status: ('A' for Active; 'I' for Inactive)
REMARK    1  A    between atoms: N_2  and  C_5
REMARK    2  A    between atoms: C_3  and  C_17
REMARK    3  A    between atoms: C_5  and  C_10
REMARK    4  A    between atoms: C_17  and  N_19
REMARK    5  A    between atoms: C_17  and  C_26
REMARK    6  A    between atoms: C_20  and  O_22
REMARK    7  A    between atoms: O_22  and  C_23
REMARK                            x       y       z     vdW  Elec       q    Type
REMARK                         _______ _______ _______ _____ _____    ______ ____
ROOT
ATOM      1  O   UNL     1     -38.190  24.371   3.768  0.00  0.00    -0.273 OA
ATOM      2  N   UNL     1     -36.466  24.532   2.221  0.00  0.00    -0.298 N 
ATOM      3  C   UNL     1     -37.111  23.985   3.322  0.00  0.00    +0.241 C 
ATOM      4  H   UNL     1     -35.603  24.149   1.944  0.00  0.00    +0.150 HD
ENDROOT
BRANCH   2   5
ATOM      5  C   UNL     1     -37.005  25.639   1.464  0.00  0.00    +0.130 C 
ATOM      6  C   UNL     1     -36.970  25.320  -0.029  0.00  0.00    +0.030 C 
BRANCH   5  10
ATOM      7  S   UNL     1     -34.775  26.875   2.573  0.00  0.00    -0.074 S 
ATOM      8  F   UNL     1     -32.961  31.667   3.400  0.00  0.00    -0.204 F 
ATOM      9  N   UNL     1     -36.775  28.128   1.533  0.00  0.00    -0.402 NA
ATOM     10  C   UNL     1     -36.298  26.934   1.798  0.00  0.00    +0.152 C 
ATOM     11  C   UNL     1     -34.717  28.599   2.568  0.00  0.00    +0.130 C 
ATOM     12  C   UNL     1     -35.879  29.094   1.969  0.00  0.00    +0.124 C 
ATOM     13  C   UNL     1     -33.715  29.451   3.061  0.00  0.00    +0.021 C 
ATOM     14  C   UNL     1     -36.041  30.491   1.858  0.00  0.00    +0.031 C 
ATOM     15  C   UNL     1     -33.901  30.830   2.938  0.00  0.00    +0.137 C 
ATOM     16  C   UNL     1     -35.048  31.346   2.345  0.00  0.00    +0.032 C 
ENDBRANCH   5  10
ENDBRANCH   2   5
BRANCH   3  17
ATOM     17  C   UNL     1     -36.303  22.857   3.962  0.00  0.00    +0.151 C 
BRANCH  17  19
ATOM     18  O   UNL     1     -36.249  20.195   2.799  0.00  0.00    -0.226 OA
ATOM     19  N   UNL     1     -35.390  22.345   2.973  0.00  0.00    -0.264 N 
ATOM     20  C   UNL     1     -35.439  21.058   2.474  0.00  0.00    +0.402 C 
ATOM     21  H   UNL     1     -34.690  22.947   2.632  0.00  0.00    +0.153 HD
BRANCH  20  22
ATOM     22  O   UNL     1     -34.443  20.880   1.555  0.00  0.00    -0.438 OA
BRANCH  22  23
ATOM     23  C   UNL     1     -34.339  19.566   0.993  0.00  0.00    +0.171 C 
ATOM     24  C   UNL     1     -32.897  19.091   1.095  0.00  0.00    +0.047 C 
ATOM     25  C   UNL     1     -34.826  19.598  -0.447  0.00  0.00    +0.047 C 
ENDBRANCH  22  23
ENDBRANCH  20  22
ENDBRANCH  17  19
BRANCH  17  26
ATOM     26  C   UNL     1     -35.600  23.307   5.260  0.00  0.00    +0.027 C 
ATOM     27  C   UNL     1     -34.306  24.066   4.951  0.00  0.00    +0.002 C 
ATOM     28  C   UNL     1     -35.307  22.146   6.218  0.00  0.00    +0.002 C 
ENDBRANCH  17  26
ENDBRANCH   3  17
TORSDOF 7
ENDMDL
MODEL 3
REMARK VINA RESULT:      -5.9      3.734      5.785
REMARK  Name = 53297381
REMARK  7 active torsions:
REMARK  status: ('A' for Active; 'I' for Inactive)
REMARK    1  A    between atoms: N_2  and  C_5
REMARK    2  A    between atoms: C_3  and  C_17
REMARK    3  A    between atoms: C_5  and  C_10
REMARK    4  A    between atoms: C_17  and  N_19
REMARK    5  A    between atoms: C_17  and  C_26
REMARK    6  A    between atoms: C_20  and  O_22
REMARK    7  A    between atoms: O_22  and  C_23
REMARK                            x       y       z     vdW  Elec       q    Type
REMARK                         _______ _______ _______ _____ _____    ______ ____
ROOT
ATOM      1  O   UNL     1     -36.518  24.741   2.174  0.00  0.00    -0.273 OA
ATOM      2  N   UNL     1     -34.249  24.479   2.587  0.00  0.00    -0.298 N 
ATOM      3  C   UNL     1     -35.588  24.132   2.699  0.00  0.00    +0.241 C 
ATOM      4  H   UNL     1     -33.580  23.923   3.047  0.00  0.00    +0.150 HD
ENDROOT
BRANCH   2   5
ATOM      5  C   UNL     1     -33.793  25.619   1.825  0.00  0.00    +0.130 C 
ATOM      6  C   UNL     1     -32.727  25.187   0.820  0.00  0.00    +0.030 C 
BRANCH   5  10
ATOM      7  S   UNL     1     -33.240  28.329   2.115  0.00  0.00    -0.074 S 
ATOM      8  F   UNL     1     -31.538  31.611   5.756  0.00  0.00    -0.204 F 
ATOM      9  N   UNL     1     -32.955  26.572   3.980  0.00  0.00    -0.402 NA
ATOM     10  C   UNL     1     -33.319  26.736   2.730  0.00  0.00    +0.152 C 
ATOM     11  C   UNL     1     -32.666  28.881   3.644  0.00  0.00    +0.130 C 
ATOM     12  C   UNL     1     -32.578  27.794   4.519  0.00  0.00    +0.124 C 
ATOM     13  C   UNL     1     -32.319  30.183   4.041  0.00  0.00    +0.021 C 
ATOM     14  C   UNL     1     -32.127  28.020   5.837  0.00  0.00    +0.031 C 
ATOM     15  C   UNL     1     -31.877  30.379   5.351  0.00  0.00    +0.137 C 
ATOM     16  C   UNL     1     -31.781  29.314   6.239  0.00  0.00    +0.032 C 
ENDBRANCH   5  10
ENDBRANCH   2   5
BRANCH   3  17
ATOM     17  C   UNL     1     -35.795  22.913   3.596  0.00  0.00    +0.151 C 
BRANCH  17  19
ATOM     18  O   UNL     1     -37.494  21.131   2.054  0.00  0.00    -0.226 OA
ATOM     19  N   UNL     1     -35.403  21.742   2.855  0.00  0.00    -0.264 N 
ATOM     20  C   UNL     1     -36.285  20.949   2.146  0.00  0.00    +0.402 C 
ATOM     21  H   UNL     1     -34.451  21.491   2.854  0.00  0.00    +0.153 HD
BRANCH  20  22
ATOM     22  O   UNL     1     -35.608  19.919   1.555  0.00  0.00    -0.438 OA
BRANCH  22  23
ATOM     23  C   UNL     1     -34.228  20.167   1.260  0.00  0.00    +0.171 C 
ATOM     24  C   UNL     1     -34.100  20.631  -0.184  0.00  0.00    +0.047 C 
ATOM     25  C   UNL     1     -33.424  18.903   1.523  0.00  0.00    +0.047 C 
ENDBRANCH  22  23
ENDBRANCH  20  22
ENDBRANCH  17  19
BRANCH  17  26
ATOM     26  C   UNL     1     -35.060  23.050   4.946  0.00  0.00    +0.027 C 
ATOM     27  C   UNL     1     -35.243  21.793   5.802  0.00  0.00    +0.002 C 
ATOM     28  C   UNL     1     -35.488  24.289   5.740  0.00  0.00    +0.002 C 
ENDBRANCH  17  26
ENDBRANCH   3  17
TORSDOF 7
ENDMDL
MODEL 4
REMARK VINA RESULT:      -5.8      6.040      9.175
REMARK  Name = 53297381
REMARK  7 active torsions:
REMARK  status: ('A' for Active; 'I' for Inactive)
REMARK    1  A    between atoms: N_2  and  C_5
REMARK    2  A    between atoms: C_3  and  C_17
REMARK    3  A    between atoms: C_5  and  C_10
REMARK    4  A    between atoms: C_17  and  N_19
REMARK    5  A    between atoms: C_17  and  C_26
REMARK    6  A    between atoms: C_20  and  O_22
REMARK    7  A    between atoms: O_22  and  C_23
REMARK                            x       y       z     vdW  Elec       q    Type
REMARK                         _______ _______ _______ _____ _____    ______ ____
ROOT
ATOM      1  O   UNL     1     -43.680  27.920   2.017  0.00  0.00    -0.273 OA
ATOM      2  N   UNL     1     -42.326  26.301   2.984  0.00  0.00    -0.298 N 
ATOM      3  C   UNL     1     -43.407  27.171   2.954  0.00  0.00    +0.241 C 
ATOM      4  H   UNL     1     -42.195  25.743   3.784  0.00  0.00    +0.150 HD
ENDROOT
BRANCH   2   5
ATOM      5  C   UNL     1     -41.384  26.178   1.895  0.00  0.00    +0.130 C 
ATOM      6  C   UNL     1     -42.022  25.421   0.732  0.00  0.00    +0.030 C 
BRANCH   5  10
ATOM      7  S   UNL     1     -39.833  23.879   2.098  0.00  0.00    -0.074 S 
ATOM      8  F   UNL     1     -35.192  22.434   3.916  0.00  0.00    -0.204 F 
ATOM      9  N   UNL     1     -39.116  26.206   2.947  0.00  0.00    -0.402 NA
ATOM     10  C   UNL     1     -40.086  25.551   2.353  0.00  0.00    +0.152 C 
ATOM     11  C   UNL     1     -38.283  24.010   2.842  0.00  0.00    +0.130 C 
ATOM     12  C   UNL     1     -38.074  25.335   3.233  0.00  0.00    +0.124 C 
ATOM     13  C   UNL     1     -37.321  23.010   3.062  0.00  0.00    +0.021 C 
ATOM     14  C   UNL     1     -36.858  25.670   3.867  0.00  0.00    +0.031 C 
ATOM     15  C   UNL     1     -36.127  23.369   3.692  0.00  0.00    +0.137 C 
ATOM     16  C   UNL     1     -35.896  24.681   4.090  0.00  0.00    +0.032 C 
ENDBRANCH   5  10
ENDBRANCH   2   5
BRANCH   3  17
ATOM     17  C   UNL     1     -44.215  27.133   4.249  0.00  0.00    +0.151 C 
BRANCH  17  19
ATOM     18  O   UNL     1     -41.948  28.859   4.819  0.00  0.00    -0.226 OA
ATOM     19  N   UNL     1     -44.235  28.463   4.802  0.00  0.00    -0.264 N 
ATOM     20  C   UNL     1     -43.101  29.215   5.041  0.00  0.00    +0.402 C 
ATOM     21  H   UNL     1     -45.109  28.860   5.024  0.00  0.00    +0.153 HD
BRANCH  20  22
ATOM     22  O   UNL     1     -43.452  30.427   5.566  0.00  0.00    -0.438 OA
BRANCH  22  23
ATOM     23  C   UNL     1     -44.477  30.400   6.567  0.00  0.00    +0.171 C 
ATOM     24  C   UNL     1     -45.361  31.629   6.411  0.00  0.00    +0.047 C 
ATOM     25  C   UNL     1     -43.832  30.337   7.943  0.00  0.00    +0.047 C 
ENDBRANCH  22  23
ENDBRANCH  20  22
ENDBRANCH  17  19
BRANCH  17  26
ATOM     26  C   UNL     1     -45.625  26.542   4.041  0.00  0.00    +0.027 C 
ATOM     27  C   UNL     1     -46.300  26.243   5.382  0.00  0.00    +0.002 C 
ATOM     28  C   UNL     1     -45.625  25.284   3.165  0.00  0.00    +0.002 C 
ENDBRANCH  17  26
ENDBRANCH   3  17
TORSDOF 7
ENDMDL
MODEL 5
REMARK VINA RESULT:      -5.8      3.995      7.804
REMARK  Name = 53297381
REMARK  7 active torsions:
REMARK  status: ('A' for Active; 'I' for Inactive)
REMARK    1  A    between atoms: N_2  and  C_5
REMARK    2  A    between atoms: C_3  and  C_17
REMARK    3  A    between atoms: C_5  and  C_10
REMARK    4  A    between atoms: C_17  and  N_19
REMARK    5  A    between atoms: C_17  and  C_26
REMARK    6  A    between atoms: C_20  and  O_22
REMARK    7  A    between atoms: O_22  and  C_23
REMARK                            x       y       z     vdW  Elec       q    Type
REMARK                         _______ _______ _______ _____ _____    ______ ____
ROOT
ATOM      1  O   UNL     1     -35.388  20.698   3.560  0.00  0.00    -0.273 OA
ATOM      2  N   UNL     1     -35.427  21.954   1.608  0.00  0.00    -0.298 N 
ATOM      3  C   UNL     1     -35.440  21.784   2.986  0.00  0.00    +0.241 C 
ATOM      4  H   UNL     1     -35.473  22.869   1.248  0.00  0.00    +0.150 HD
ENDROOT
BRANCH   2   5
ATOM      5  C   UNL     1     -35.351  20.849   0.680  0.00  0.00    +0.130 C 
ATOM      6  C   UNL     1     -36.325  19.748   1.094  0.00  0.00    +0.030 C 
BRANCH   5  10
ATOM      7  S   UNL     1     -33.511  18.835   1.218  0.00  0.00    -0.074 S 
ATOM      8  F   UNL     1     -28.512  17.760   0.331  0.00  0.00    -0.204 F 
ATOM      9  N   UNL     1     -32.976  20.992  -0.090  0.00  0.00    -0.402 NA
ATOM     10  C   UNL     1     -33.932  20.345   0.534  0.00  0.00    +0.152 C 
ATOM     11  C   UNL     1     -31.898  19.034   0.640  0.00  0.00    +0.130 C 
ATOM     12  C   UNL     1     -31.803  20.253  -0.038  0.00  0.00    +0.124 C 
ATOM     13  C   UNL     1     -30.797  18.174   0.778  0.00  0.00    +0.021 C 
ATOM     14  C   UNL     1     -30.561  20.620  -0.599  0.00  0.00    +0.031 C 
ATOM     15  C   UNL     1     -29.579  18.562   0.214  0.00  0.00    +0.137 C 
ATOM     16  C   UNL     1     -29.460  19.768  -0.466  0.00  0.00    +0.032 C 
ENDBRANCH   5  10
ENDBRANCH   2   5
BRANCH   3  17
ATOM     17  C   UNL     1     -35.570  23.112   3.730  0.00  0.00    +0.151 C 
BRANCH  17  19
ATOM     18  O   UNL     1     -36.896  25.642   3.200  0.00  0.00    -0.226 OA
ATOM     19  N   UNL     1     -36.972  23.417   3.856  0.00  0.00    -0.264 N 
ATOM     20  C   UNL     1     -37.518  24.656   3.581  0.00  0.00    +0.402 C 
ATOM     21  H   UNL     1     -37.578  22.701   4.156  0.00  0.00    +0.153 HD
BRANCH  20  22
ATOM     22  O   UNL     1     -38.867  24.625   3.797  0.00  0.00    -0.438 OA
BRANCH  22  23
ATOM     23  C   UNL     1     -39.683  25.095   2.717  0.00  0.00    +0.171 C 
ATOM     24  C   UNL     1     -40.770  26.004   3.270  0.00  0.00    +0.047 C 
ATOM     25  C   UNL     1     -40.265  23.903   1.972  0.00  0.00    +0.047 C 
ENDBRANCH  22  23
ENDBRANCH  20  22
ENDBRANCH  17  19
BRANCH  17  26
ATOM     26  C   UNL     1     -34.829  23.097   5.083  0.00  0.00    +0.027 C 
ATOM     27  C   UNL     1     -35.693  22.460   6.176  0.00  0.00    +0.002 C 
ATOM     28  C   UNL     1     -34.366  24.489   5.530  0.00  0.00    +0.002 C 
ENDBRANCH  17  26
ENDBRANCH   3  17
TORSDOF 7
ENDMDL
MODEL 6
REMARK VINA RESULT:      -5.7      5.326      8.488
REMARK  Name = 53297381
REMARK  7 active torsions:
REMARK  status: ('A' for Active; 'I' for Inactive)
REMARK    1  A    between atoms: N_2  and  C_5
REMARK    2  A    between atoms: C_3  and  C_17
REMARK    3  A    between atoms: C_5  and  C_10
REMARK    4  A    between atoms: C_17  and  N_19
REMARK    5  A    between atoms: C_17  and  C_26
REMARK    6  A    between atoms: C_20  and  O_22
REMARK    7  A    between atoms: O_22  and  C_23
REMARK                            x       y       z     vdW  Elec       q    Type
REMARK                         _______ _______ _______ _____ _____    ______ ____
ROOT
ATOM      1  O   UNL     1     -41.554  27.978   1.420  0.00  0.00    -0.273 OA
ATOM      2  N   UNL     1     -40.889  25.904   2.224  0.00  0.00    -0.298 N 
ATOM      3  C   UNL     1     -41.766  26.972   2.094  0.00  0.00    +0.241 C 
ATOM      4  H   UNL     1     -41.156  25.144   2.788  0.00  0.00    +0.150 HD
ENDROOT
BRANCH   2   5
ATOM      5  C   UNL     1     -39.601  25.860   1.569  0.00  0.00    +0.130 C 
ATOM      6  C   UNL     1     -39.718  25.134   0.231  0.00  0.00    +0.030 C 
BRANCH   5  10
ATOM      7  S   UNL     1     -38.147  23.602   2.290  0.00  0.00    -0.074 S 
ATOM      8  F   UNL     1     -34.466  22.234   5.683  0.00  0.00    -0.204 F 
ATOM      9  N   UNL     1     -37.893  25.918   3.395  0.00  0.00    -0.402 NA
ATOM     10  C   UNL     1     -38.544  25.256   2.468  0.00  0.00    +0.152 C 
ATOM     11  C   UNL     1     -36.993  23.753   3.563  0.00  0.00    +0.130 C 
ATOM     12  C   UNL     1     -36.999  25.070   4.032  0.00  0.00    +0.124 C 
ATOM     13  C   UNL     1     -36.144  22.775   4.107  0.00  0.00    +0.021 C 
ATOM     14  C   UNL     1     -36.123  25.418   5.082  0.00  0.00    +0.031 C 
ATOM     15  C   UNL     1     -35.287  23.147   5.145  0.00  0.00    +0.137 C 
ATOM     16  C   UNL     1     -35.275  24.451   5.628  0.00  0.00    +0.032 C 
ENDBRANCH   5  10
ENDBRANCH   2   5
BRANCH   3  17
ATOM     17  C   UNL     1     -43.034  26.782   2.924  0.00  0.00    +0.151 C 
BRANCH  17  19
ATOM     18  O   UNL     1     -41.941  28.707   4.805  0.00  0.00    -0.226 OA
ATOM     19  N   UNL     1     -43.551  28.085   3.254  0.00  0.00    -0.264 N 
ATOM     20  C   UNL     1     -42.963  28.938   4.166  0.00  0.00    +0.402 C 
ATOM     21  H   UNL     1     -44.374  28.384   2.803  0.00  0.00    +0.153 HD
BRANCH  20  22
ATOM     22  O   UNL     1     -43.690  30.092   4.256  0.00  0.00    -0.438 OA
BRANCH  22  23
ATOM     23  C   UNL     1     -44.148  30.440   5.569  0.00  0.00    +0.171 C 
ATOM     24  C   UNL     1     -45.515  29.814   5.804  0.00  0.00    +0.047 C 
ATOM     25  C   UNL     1     -44.188  31.955   5.699  0.00  0.00    +0.047 C 
ENDBRANCH  22  23
ENDBRANCH  20  22
ENDBRANCH  17  19
BRANCH  17  26
ATOM     26  C   UNL     1     -44.067  25.881   2.215  0.00  0.00    +0.027 C 
ATOM     27  C   UNL     1     -44.454  26.458   0.850  0.00  0.00    +0.002 C 
ATOM     28  C   UNL     1     -45.327  25.636   3.053  0.00  0.00    +0.002 C 
ENDBRANCH  17  26
ENDBRANCH   3  17
TORSDOF 7
ENDMDL
MODEL 7
REMARK VINA RESULT:      -5.7      3.700      6.779
REMARK  Name = 53297381
REMARK  7 active torsions:
REMARK  status: ('A' for Active; 'I' for Inactive)
REMARK    1  A    between atoms: N_2  and  C_5
REMARK    2  A    between atoms: C_3  and  C_17
REMARK    3  A    between atoms: C_5  and  C_10
REMARK    4  A    between atoms: C_17  and  N_19
REMARK    5  A    between atoms: C_17  and  C_26
REMARK    6  A    between atoms: C_20  and  O_22
REMARK    7  A    between atoms: O_22  and  C_23
REMARK                            x       y       z     vdW  Elec       q    Type
REMARK                         _______ _______ _______ _____ _____    ______ ____
ROOT
ATOM      1  O   UNL     1     -37.136  21.961   0.046  0.00  0.00    -0.273 OA
ATOM      2  N   UNL     1     -37.711  19.824   0.747  0.00  0.00    -0.298 N 
ATOM      3  C   UNL     1     -37.620  21.202   0.884  0.00  0.00    +0.241 C 
ATOM      4  H   UNL     1     -38.117  19.305   1.479  0.00  0.00    +0.150 HD
ENDROOT
BRANCH   2   5
ATOM      5  C   UNL     1     -37.237  19.115  -0.419  0.00  0.00    +0.130 C 
ATOM      6  C   UNL     1     -38.214  18.002  -0.791  0.00  0.00    +0.030 C 
BRANCH   5  10
ATOM      7  S   UNL     1     -35.413  17.051  -0.798  0.00  0.00    -0.074 S 
ATOM      8  F   UNL     1     -30.437  15.986   0.220  0.00  0.00    -0.204 F 
ATOM      9  N   UNL     1     -34.869  19.285   0.368  0.00  0.00    -0.402 NA
ATOM     10  C   UNL     1     -35.825  18.608  -0.223  0.00  0.00    +0.152 C 
ATOM     11  C   UNL     1     -33.805  17.272  -0.215  0.00  0.00    +0.130 C 
ATOM     12  C   UNL     1     -33.704  18.532   0.380  0.00  0.00    +0.124 C 
ATOM     13  C   UNL     1     -32.712  16.392  -0.281  0.00  0.00    +0.021 C 
ATOM     14  C   UNL     1     -32.464  18.925   0.928  0.00  0.00    +0.031 C 
ATOM     15  C   UNL     1     -31.496  16.806   0.268  0.00  0.00    +0.137 C 
ATOM     16  C   UNL     1     -31.371  18.055   0.866  0.00  0.00    +0.032 C 
ENDBRANCH   5  10
ENDBRANCH   2   5
BRANCH   3  17
ATOM     17  C   UNL     1     -38.155  21.685   2.231  0.00  0.00    +0.151 C 
BRANCH  17  19
ATOM     18  O   UNL     1     -35.702  20.510   3.252  0.00  0.00    -0.226 OA
ATOM     19  N   UNL     1     -37.082  22.348   2.926  0.00  0.00    -0.264 N 
ATOM     20  C   UNL     1     -35.946  21.706   3.378  0.00  0.00    +0.402 C 
ATOM     21  H   UNL     1     -37.163  23.315   3.089  0.00  0.00    +0.153 HD
BRANCH  20  22
ATOM     22  O   UNL     1     -35.121  22.605   3.995  0.00  0.00    -0.438 OA
BRANCH  22  23
ATOM     23  C   UNL     1     -35.597  23.139   5.236  0.00  0.00    +0.171 C 
ATOM     24  C   UNL     1     -34.911  24.470   5.504  0.00  0.00    +0.047 C 
ATOM     25  C   UNL     1     -35.337  22.133   6.347  0.00  0.00    +0.047 C 
ENDBRANCH  22  23
ENDBRANCH  20  22
ENDBRANCH  17  19
BRANCH  17  26
ATOM     26  C   UNL     1     -39.412  22.566   2.076  0.00  0.00    +0.027 C 
ATOM     27  C   UNL     1     -40.160  22.236   0.781  0.00  0.00    +0.002 C 
ATOM     28  C   UNL     1     -39.105  24.067   2.133  0.00  0.00    +0.002 C 
ENDBRANCH  17  26
ENDBRANCH   3  17
TORSDOF 7
ENDMDL
MODEL 8
REMARK VINA RESULT:      -5.7      6.082      9.491
REMARK  Name = 53297381
REMARK  7 active torsions:
REMARK  status: ('A' for Active; 'I' for Inactive)
REMARK    1  A    between atoms: N_2  and  C_5
REMARK    2  A    between atoms: C_3  and  C_17
REMARK    3  A    between atoms: C_5  and  C_10
REMARK    4  A    between atoms: C_17  and  N_19
REMARK    5  A    between atoms: C_17  and  C_26
REMARK    6  A    between atoms: C_20  and  O_22
REMARK    7  A    between atoms: O_22  and  C_23
REMARK                            x       y       z     vdW  Elec       q    Type
REMARK                         _______ _______ _______ _____ _____    ______ ____
ROOT
ATOM      1  O   UNL     1     -32.343  29.161   1.514  0.00  0.00    -0.273 OA
ATOM      2  N   UNL     1     -33.829  28.398   3.127  0.00  0.00    -0.298 N 
ATOM      3  C   UNL     1     -32.769  29.167   2.668  0.00  0.00    +0.241 C 
ATOM      4  H   UNL     1     -34.092  28.477   4.072  0.00  0.00    +0.150 HD
ENDROOT
BRANCH   2   5
ATOM      5  C   UNL     1     -34.562  27.485   2.280  0.00  0.00    +0.130 C 
ATOM      6  C   UNL     1     -35.875  28.124   1.832  0.00  0.00    +0.030 C 
BRANCH   5  10
ATOM      7  S   UNL     1     -34.766  26.068   4.664  0.00  0.00    -0.074 S 
ATOM      8  F   UNL     1     -35.526  21.192   6.269  0.00  0.00    -0.204 F 
ATOM      9  N   UNL     1     -34.954  25.015   2.318  0.00  0.00    -0.402 NA
ATOM     10  C   UNL     1     -34.769  26.147   2.956  0.00  0.00    +0.152 C 
ATOM     11  C   UNL     1     -35.037  24.368   4.577  0.00  0.00    +0.130 C 
ATOM     12  C   UNL     1     -35.110  23.985   3.234  0.00  0.00    +0.124 C 
ATOM     13  C   UNL     1     -35.174  23.439   5.622  0.00  0.00    +0.021 C 
ATOM     14  C   UNL     1     -35.329  22.625   2.929  0.00  0.00    +0.031 C 
ATOM     15  C   UNL     1     -35.391  22.099   5.292  0.00  0.00    +0.137 C 
ATOM     16  C   UNL     1     -35.468  21.695   3.964  0.00  0.00    +0.032 C 
ENDBRANCH   5  10
ENDBRANCH   2   5
BRANCH   3  17
ATOM     17  C   UNL     1     -32.145  30.010   3.779  0.00  0.00    +0.151 C 
BRANCH  17  19
ATOM     18  O   UNL     1     -32.539  28.420   6.178  0.00  0.00    -0.226 OA
ATOM     19  N   UNL     1     -31.176  29.196   4.467  0.00  0.00    -0.264 N 
ATOM     20  C   UNL     1     -31.453  28.469   5.608  0.00  0.00    +0.402 C 
ATOM     21  H   UNL     1     -30.262  29.155   4.102  0.00  0.00    +0.153 HD
BRANCH  20  22
ATOM     22  O   UNL     1     -30.332  27.804   6.017  0.00  0.00    -0.438 OA
BRANCH  22  23
ATOM     23  C   UNL     1     -29.096  28.516   5.871  0.00  0.00    +0.171 C 
ATOM     24  C   UNL     1     -28.008  27.545   5.438  0.00  0.00    +0.047 C 
ATOM     25  C   UNL     1     -28.755  29.201   7.185  0.00  0.00    +0.047 C 
ENDBRANCH  22  23
ENDBRANCH  20  22
ENDBRANCH  17  19
BRANCH  17  26
ATOM     26  C   UNL     1     -31.555  31.333   3.246  0.00  0.00    +0.027 C 
ATOM     27  C   UNL     1     -30.546  31.923   4.235  0.00  0.00    +0.002 C 
ATOM     28  C   UNL     1     -32.627  32.377   2.910  0.00  0.00    +0.002 C 
ENDBRANCH  17  26
ENDBRANCH   3  17
TORSDOF 7
ENDMDL
MODEL 9
REMARK VINA RESULT:      -5.7      3.946      6.212
REMARK  Name = 53297381
REMARK  7 active torsions:
REMARK  status: ('A' for Active; 'I' for Inactive)
REMARK    1  A    between atoms: N_2  and  C_5
REMARK    2  A    between atoms: C_3  and  C_17
REMARK    3  A    between atoms: C_5  and  C_10
REMARK    4  A    between atoms: C_17  and  N_19
REMARK    5  A    between atoms: C_17  and  C_26
REMARK    6  A    between atoms: C_20  and  O_22
REMARK    7  A    between atoms: O_22  and  C_23
REMARK                            x       y       z     vdW  Elec       q    Type
REMARK                         _______ _______ _______ _____ _____    ______ ____
ROOT
ATOM      1  O   UNL     1     -35.506  23.766   1.755  0.00  0.00    -0.273 OA
ATOM      2  N   UNL     1     -37.463  24.288   2.889  0.00  0.00    -0.298 N 
ATOM      3  C   UNL     1     -36.290  23.575   2.683  0.00  0.00    +0.241 C 
ATOM      4  H   UNL     1     -38.023  24.056   3.665  0.00  0.00    +0.150 HD
ENDROOT
BRANCH   2   5
ATOM      5  C   UNL     1     -37.901  25.352   2.016  0.00  0.00    +0.130 C 
ATOM      6  C   UNL     1     -37.068  26.609   2.261  0.00  0.00    +0.030 C 
BRANCH   5  10
ATOM      7  S   UNL     1     -40.458  24.899   1.021  0.00  0.00    -0.074 S 
ATOM      8  F   UNL     1     -45.366  26.192   2.103  0.00  0.00    -0.204 F 
ATOM      9  N   UNL     1     -39.930  26.342   3.092  0.00  0.00    -0.402 NA
ATOM     10  C   UNL     1     -39.387  25.605   2.152  0.00  0.00    +0.152 C 
ATOM     11  C   UNL     1     -41.788  25.630   1.840  0.00  0.00    +0.130 C 
ATOM     12  C   UNL     1     -41.308  26.366   2.927  0.00  0.00    +0.124 C 
ATOM     13  C   UNL     1     -43.159  25.557   1.542  0.00  0.00    +0.021 C 
ATOM     14  C   UNL     1     -42.233  27.051   3.743  0.00  0.00    +0.031 C 
ATOM     15  C   UNL     1     -44.053  26.244   2.366  0.00  0.00    +0.137 C 
ATOM     16  C   UNL     1     -43.598  26.983   3.453  0.00  0.00    +0.032 C 
ENDBRANCH   5  10
ENDBRANCH   2   5
BRANCH   3  17
ATOM     17  C   UNL     1     -36.090  22.479   3.727  0.00  0.00    +0.151 C 
BRANCH  17  19
ATOM     18  O   UNL     1     -36.592  20.096   2.143  0.00  0.00    -0.226 OA
ATOM     19  N   UNL     1     -35.125  21.542   3.211  0.00  0.00    -0.264 N 
ATOM     20  C   UNL     1     -35.456  20.429   2.463  0.00  0.00    +0.402 C 
ATOM     21  H   UNL     1     -34.173  21.704   3.404  0.00  0.00    +0.153 HD
BRANCH  20  22
ATOM     22  O   UNL     1     -34.322  19.745   2.126  0.00  0.00    -0.438 OA
BRANCH  22  23
ATOM     23  C   UNL     1     -34.065  19.616   0.722  0.00  0.00    +0.171 C 
ATOM     24  C   UNL     1     -34.104  18.144   0.339  0.00  0.00    +0.047 C 
ATOM     25  C   UNL     1     -32.721  20.251   0.399  0.00  0.00    +0.047 C 
ENDBRANCH  22  23
ENDBRANCH  20  22
ENDBRANCH  17  19
BRANCH  17  26
ATOM     26  C   UNL     1     -35.702  23.050   5.107  0.00  0.00    +0.027 C 
ATOM     27  C   UNL     1     -34.528  24.028   4.987  0.00  0.00    +0.002 C 
ATOM     28  C   UNL     1     -35.372  21.964   6.137  0.00  0.00    +0.002 C 
ENDBRANCH  17  26
ENDBRANCH   3  17
TORSDOF 7
ENDMDL
