MODEL 1
REMARK VINA RESULT:      -6.2      0.000      0.000
REMARK  Name = 2159
REMARK  8 active torsions:
REMARK  status: ('A' for Active; 'I' for Inactive)
REMARK    1  A    between atoms: C_1  and  C_9
REMARK    2  A    between atoms: C_2  and  S_20
REMARK    3  A    between atoms: C_4  and  O_28
REMARK    4  A    between atoms: C_5  and  N_25
REMARK    5  A    between atoms: N_8  and  C_11
REMARK    6  A    between atoms: C_11  and  C_13
REMARK    7  A    between atoms: N_12  and  C_18
REMARK    8  A    between atoms: S_20  and  C_23
REMARK                            x       y       z     vdW  Elec       q    Type
REMARK                         _______ _______ _______ _____ _____    ______ ____
ROOT
ATOM      1  C   UNL     1     -35.990  23.883   3.834  0.00  0.00    +0.089 C 
ATOM      2  C   UNL     1     -34.874  25.992   3.689  0.00  0.00    +0.119 C 
ATOM      3  C   UNL     1     -35.616  24.978   3.082  0.00  0.00    +0.027 C 
ATOM      4  C   UNL     1     -35.654  23.758   5.167  0.00  0.00    +0.144 C 
ATOM      5  C   UNL     1     -34.522  25.888   5.035  0.00  0.00    +0.062 C 
ATOM      6  C   UNL     1     -34.912  24.770   5.774  0.00  0.00    +0.052 C 
ENDROOT
BRANCH   1   9
ATOM      7  O   UNL     1     -37.986  22.972   3.005  0.00  0.00    -0.270 OA
ATOM      8  N   UNL     1     -36.067  21.694   2.747  0.00  0.00    -0.303 N 
ATOM      9  C   UNL     1     -36.779  22.814   3.168  0.00  0.00    +0.249 C 
ATOM     10  H   UNL     1     -35.100  21.656   2.923  0.00  0.00    +0.150 HD
BRANCH   8  11
ATOM     11  C   UNL     1     -36.682  20.592   2.068  0.00  0.00    +0.069 C 
BRANCH  11  13
ATOM     12  N   UNL     1     -36.079  18.622   0.649  0.00  0.00    +0.389 N 
ATOM     13  C   UNL     1     -35.753  20.008   1.012  0.00  0.00    -0.038 C 
ATOM     14  C   UNL     1     -34.315  19.893   1.522  0.00  0.00    -0.021 C 
ATOM     15  C   UNL     1     -33.745  18.653   0.842  0.00  0.00    -0.025 C 
ATOM     16  C   UNL     1     -34.877  18.113  -0.017  0.00  0.00    -0.077 C 
ATOM     17  H   UNL     1     -36.326  18.081   1.478  0.00  0.00    -0.080 HD
BRANCH  12  18
ATOM     18  C   UNL     1     -37.253  18.510  -0.208  0.00  0.00    -0.077 C 
ATOM     19  C   UNL     1     -37.717  17.073  -0.327  0.00  0.00    -0.025 C 
ENDBRANCH  12  18
ENDBRANCH  11  13
ENDBRANCH   8  11
ENDBRANCH   1   9
BRANCH   2  20
ATOM     20  S   UNL     1     -34.403  27.378   2.728  0.00  0.00    +0.010 S 
ATOM     21  O   UNL     1     -34.917  28.569   3.388  0.00  0.00    -0.169 OA
ATOM     22  O   UNL     1     -32.985  27.272   2.421  0.00  0.00    -0.169 OA
BRANCH  20  23
ATOM     23  C   UNL     1     -35.286  27.171   1.200  0.00  0.00    +0.156 C 
ATOM     24  C   UNL     1     -36.491  28.081   1.128  0.00  0.00    +0.028 C 
ENDBRANCH  20  23
ENDBRANCH   2  20
BRANCH   5  25
ATOM     25  N   UNL     1     -33.771  26.900   5.672  0.00  0.00    -0.356 N 
ATOM     26  H   UNL     1     -34.185  27.453   6.374  0.00  0.00    +0.142 HD
ATOM     27  H   UNL     1     -32.833  27.053   5.414  0.00  0.00    +0.142 HD
ENDBRANCH   5  25
BRANCH   4  28
ATOM     28  O   UNL     1     -36.026  22.675   5.906  0.00  0.00    -0.471 OA
ATOM     29  C   UNL     1     -35.015  21.715   6.205  0.00  0.00    +0.252 C 
ENDBRANCH   4  28
TORSDOF 8
ENDMDL
MODEL 2
REMARK VINA RESULT:      -5.9      2.407      3.634
REMARK  Name = 2159
REMARK  8 active torsions:
REMARK  status: ('A' for Active; 'I' for Inactive)
REMARK    1  A    between atoms: C_1  and  C_9
REMARK    2  A    between atoms: C_2  and  S_20
REMARK    3  A    between atoms: C_4  and  O_28
REMARK    4  A    between atoms: C_5  and  N_25
REMARK    5  A    between atoms: N_8  and  C_11
REMARK    6  A    between atoms: C_11  and  C_13
REMARK    7  A    between atoms: N_12  and  C_18
REMARK    8  A    between atoms: S_20  and  C_23
REMARK                            x       y       z     vdW  Elec       q    Type
REMARK                         _______ _______ _______ _____ _____    ______ ____
ROOT
ATOM      1  C   UNL     1     -36.115  22.354   2.854  0.00  0.00    +0.089 C 
ATOM      2  C   UNL     1     -35.907  24.566   3.736  0.00  0.00    +0.119 C 
ATOM      3  C   UNL     1     -35.330  23.333   3.430  0.00  0.00    +0.027 C 
ATOM      4  C   UNL     1     -37.451  22.555   2.571  0.00  0.00    +0.144 C 
ATOM      5  C   UNL     1     -37.256  24.793   3.461  0.00  0.00    +0.062 C 
ATOM      6  C   UNL     1     -38.027  23.787   2.878  0.00  0.00    +0.052 C 
ENDROOT
BRANCH   1   9
ATOM      7  O   UNL     1     -35.125  20.314   3.453  0.00  0.00    -0.270 OA
ATOM      8  N   UNL     1     -35.359  20.735   1.184  0.00  0.00    -0.303 N 
ATOM      9  C   UNL     1     -35.482  21.048   2.536  0.00  0.00    +0.249 C 
ATOM     10  H   UNL     1     -35.674  21.388   0.518  0.00  0.00    +0.150 HD
BRANCH   8  11
ATOM     11  C   UNL     1     -34.793  19.504   0.719  0.00  0.00    +0.069 C 
BRANCH  11  13
ATOM     12  N   UNL     1     -32.624  19.419  -0.525  0.00  0.00    +0.389 N 
ATOM     13  C   UNL     1     -33.272  19.536   0.789  0.00  0.00    -0.038 C 
ATOM     14  C   UNL     1     -32.713  18.331   1.548  0.00  0.00    -0.021 C 
ATOM     15  C   UNL     1     -31.379  18.018   0.879  0.00  0.00    -0.025 C 
ATOM     16  C   UNL     1     -31.238  19.046  -0.231  0.00  0.00    -0.077 C 
ATOM     17  H   UNL     1     -33.102  18.726  -1.101  0.00  0.00    -0.080 HD
BRANCH  12  18
ATOM     18  C   UNL     1     -32.693  20.642  -1.314  0.00  0.00    -0.077 C 
ATOM     19  C   UNL     1     -32.127  21.824  -0.555  0.00  0.00    -0.025 C 
ENDBRANCH  12  18
ENDBRANCH  11  13
ENDBRANCH   8  11
ENDBRANCH   1   9
BRANCH   2  20
ATOM     20  S   UNL     1     -34.905  25.802   4.467  0.00  0.00    +0.010 S 
ATOM     21  O   UNL     1     -35.692  26.454   5.503  0.00  0.00    -0.169 OA
ATOM     22  O   UNL     1     -33.612  25.222   4.794  0.00  0.00    -0.169 OA
BRANCH  20  23
ATOM     23  C   UNL     1     -34.636  26.975   3.160  0.00  0.00    +0.156 C 
ATOM     24  C   UNL     1     -33.775  26.394   2.062  0.00  0.00    +0.028 C 
ENDBRANCH  20  23
ENDBRANCH   2  20
BRANCH   5  25
ATOM     25  N   UNL     1     -37.862  26.032   3.762  0.00  0.00    -0.356 N 
ATOM     26  H   UNL     1     -37.363  26.870   3.627  0.00  0.00    +0.142 HD
ATOM     27  H   UNL     1     -38.784  26.058   4.108  0.00  0.00    +0.142 HD
ENDBRANCH   5  25
BRANCH   4  28
ATOM     28  O   UNL     1     -38.221  21.586   2.002  0.00  0.00    -0.471 OA
ATOM     29  C   UNL     1     -39.634  21.779   2.031  0.00  0.00    +0.252 C 
ENDBRANCH   4  28
TORSDOF 8
ENDMDL
MODEL 3
REMARK VINA RESULT:      -5.8      1.858      2.329
REMARK  Name = 2159
REMARK  8 active torsions:
REMARK  status: ('A' for Active; 'I' for Inactive)
REMARK    1  A    between atoms: C_1  and  C_9
REMARK    2  A    between atoms: C_2  and  S_20
REMARK    3  A    between atoms: C_4  and  O_28
REMARK    4  A    between atoms: C_5  and  N_25
REMARK    5  A    between atoms: N_8  and  C_11
REMARK    6  A    between atoms: C_11  and  C_13
REMARK    7  A    between atoms: N_12  and  C_18
REMARK    8  A    between atoms: S_20  and  C_23
REMARK                            x       y       z     vdW  Elec       q    Type
REMARK                         _______ _______ _______ _____ _____    ______ ____
ROOT
ATOM      1  C   UNL     1     -35.155  23.941   3.470  0.00  0.00    +0.089 C 
ATOM      2  C   UNL     1     -33.934  25.946   3.925  0.00  0.00    +0.119 C 
ATOM      3  C   UNL     1     -34.445  25.030   3.004  0.00  0.00    +0.027 C 
ATOM      4  C   UNL     1     -35.375  23.728   4.816  0.00  0.00    +0.144 C 
ATOM      5  C   UNL     1     -34.144  25.752   5.291  0.00  0.00    +0.062 C 
ATOM      6  C   UNL     1     -34.864  24.643   5.735  0.00  0.00    +0.052 C 
ENDROOT
BRANCH   1   9
ATOM      7  O   UNL     1     -36.687  23.278   1.822  0.00  0.00    -0.270 OA
ATOM      8  N   UNL     1     -34.985  21.784   2.330  0.00  0.00    -0.303 N 
ATOM      9  C   UNL     1     -35.689  22.978   2.472  0.00  0.00    +0.249 C 
ATOM     10  H   UNL     1     -34.195  21.632   2.897  0.00  0.00    +0.150 HD
BRANCH   8  11
ATOM     11  C   UNL     1     -35.361  20.768   1.393  0.00  0.00    +0.069 C 
BRANCH  11  13
ATOM     12  N   UNL     1     -33.036  19.908   1.055  0.00  0.00    +0.389 N 
ATOM     13  C   UNL     1     -34.231  20.476   0.414  0.00  0.00    -0.038 C 
ATOM     14  C   UNL     1     -33.691  21.755  -0.228  0.00  0.00    -0.021 C 
ATOM     15  C   UNL     1     -32.204  21.498  -0.449  0.00  0.00    -0.025 C 
ATOM     16  C   UNL     1     -31.959  20.095   0.080  0.00  0.00    -0.077 C 
ATOM     17  H   UNL     1     -32.846  20.375   1.942  0.00  0.00    -0.080 HD
BRANCH  12  18
ATOM     18  C   UNL     1     -33.188  18.505   1.421  0.00  0.00    -0.077 C 
ATOM     19  C   UNL     1     -33.403  17.634   0.201  0.00  0.00    -0.025 C 
ENDBRANCH  12  18
ENDBRANCH  11  13
ENDBRANCH   8  11
ENDBRANCH   1   9
BRANCH   2  20
ATOM     20  S   UNL     1     -33.036  27.325   3.328  0.00  0.00    +0.010 S 
ATOM     21  O   UNL     1     -33.832  28.516   3.580  0.00  0.00    -0.169 OA
ATOM     22  O   UNL     1     -31.672  27.244   3.827  0.00  0.00    -0.169 OA
BRANCH  20  23
ATOM     23  C   UNL     1     -32.965  27.072   1.570  0.00  0.00    +0.156 C 
ATOM     24  C   UNL     1     -31.650  26.454   1.151  0.00  0.00    +0.028 C 
ENDBRANCH  20  23
ENDBRANCH   2  20
BRANCH   5  25
ATOM     25  N   UNL     1     -33.637  26.664   6.243  0.00  0.00    -0.356 N 
ATOM     26  H   UNL     1     -34.247  27.286   6.702  0.00  0.00    +0.142 HD
ATOM     27  H   UNL     1     -32.674  26.678   6.447  0.00  0.00    +0.142 HD
ENDBRANCH   5  25
BRANCH   4  28
ATOM     28  O   UNL     1     -36.076  22.652   5.269  0.00  0.00    -0.471 OA
ATOM     29  C   UNL     1     -35.369  21.707   6.069  0.00  0.00    +0.252 C 
ENDBRANCH   4  28
TORSDOF 8
ENDMDL
MODEL 4
REMARK VINA RESULT:      -5.8      3.416      8.052
REMARK  Name = 2159
REMARK  8 active torsions:
REMARK  status: ('A' for Active; 'I' for Inactive)
REMARK    1  A    between atoms: C_1  and  C_9
REMARK    2  A    between atoms: C_2  and  S_20
REMARK    3  A    between atoms: C_4  and  O_28
REMARK    4  A    between atoms: C_5  and  N_25
REMARK    5  A    between atoms: N_8  and  C_11
REMARK    6  A    between atoms: C_11  and  C_13
REMARK    7  A    between atoms: N_12  and  C_18
REMARK    8  A    between atoms: S_20  and  C_23
REMARK                            x       y       z     vdW  Elec       q    Type
REMARK                         _______ _______ _______ _____ _____    ______ ____
ROOT
ATOM      1  C   UNL     1     -34.362  25.437   3.553  0.00  0.00    +0.089 C 
ATOM      2  C   UNL     1     -35.287  23.234   3.651  0.00  0.00    +0.119 C 
ATOM      3  C   UNL     1     -34.717  24.269   2.908  0.00  0.00    +0.027 C 
ATOM      4  C   UNL     1     -34.552  25.614   4.909  0.00  0.00    +0.144 C 
ATOM      5  C   UNL     1     -35.489  23.390   5.023  0.00  0.00    +0.062 C 
ATOM      6  C   UNL     1     -35.121  24.581   5.651  0.00  0.00    +0.052 C 
ENDROOT
BRANCH   1   9
ATOM      7  O   UNL     1     -34.397  27.009   1.813  0.00  0.00    -0.270 OA
ATOM      8  N   UNL     1     -32.485  26.945   3.125  0.00  0.00    -0.303 N 
ATOM      9  C   UNL     1     -33.757  26.526   2.743  0.00  0.00    +0.249 C 
ATOM     10  H   UNL     1     -32.049  26.496   3.885  0.00  0.00    +0.150 HD
BRANCH   8  11
ATOM     11  C   UNL     1     -31.782  28.000   2.459  0.00  0.00    +0.069 C 
BRANCH  11  13
ATOM     12  N   UNL     1     -30.521  28.473   4.567  0.00  0.00    +0.389 N 
ATOM     13  C   UNL     1     -31.288  29.045   3.451  0.00  0.00    -0.038 C 
ATOM     14  C   UNL     1     -32.448  29.744   4.164  0.00  0.00    -0.021 C 
ATOM     15  C   UNL     1     -31.930  30.057   5.563  0.00  0.00    -0.025 C 
ATOM     16  C   UNL     1     -30.508  29.520   5.592  0.00  0.00    -0.077 C 
ATOM     17  H   UNL     1     -30.953  27.609   4.896  0.00  0.00    -0.080 HD
BRANCH  12  18
ATOM     18  C   UNL     1     -29.170  28.074   4.194  0.00  0.00    -0.077 C 
ATOM     19  C   UNL     1     -28.270  27.962   5.407  0.00  0.00    -0.025 C 
ENDBRANCH  12  18
ENDBRANCH  11  13
ENDBRANCH   8  11
ENDBRANCH   1   9
BRANCH   2  20
ATOM     20  S   UNL     1     -35.735  21.756   2.827  0.00  0.00    +0.010 S 
ATOM     21  O   UNL     1     -35.254  20.639   3.626  0.00  0.00    -0.169 OA
ATOM     22  O   UNL     1     -37.140  21.835   2.460  0.00  0.00    -0.169 OA
BRANCH  20  23
ATOM     23  C   UNL     1     -34.798  21.797   1.317  0.00  0.00    +0.156 C 
ATOM     24  C   UNL     1     -34.117  20.473   1.052  0.00  0.00    +0.028 C 
ENDBRANCH  20  23
ENDBRANCH   2  20
BRANCH   5  25
ATOM     25  N   UNL     1     -36.064  22.358   5.797  0.00  0.00    -0.356 N 
ATOM     26  H   UNL     1     -37.028  22.170   5.727  0.00  0.00    +0.142 HD
ATOM     27  H   UNL     1     -35.501  21.828   6.406  0.00  0.00    +0.142 HD
ENDBRANCH   5  25
BRANCH   4  28
ATOM     28  O   UNL     1     -34.198  26.769   5.540  0.00  0.00    -0.471 OA
ATOM     29  C   UNL     1     -33.216  26.670   6.569  0.00  0.00    +0.252 C 
ENDBRANCH   4  28
TORSDOF 8
ENDMDL
MODEL 5
REMARK VINA RESULT:      -5.7      4.218      8.037
REMARK  Name = 2159
REMARK  8 active torsions:
REMARK  status: ('A' for Active; 'I' for Inactive)
REMARK    1  A    between atoms: C_1  and  C_9
REMARK    2  A    between atoms: C_2  and  S_20
REMARK    3  A    between atoms: C_4  and  O_28
REMARK    4  A    between atoms: C_5  and  N_25
REMARK    5  A    between atoms: N_8  and  C_11
REMARK    6  A    between atoms: C_11  and  C_13
REMARK    7  A    between atoms: N_12  and  C_18
REMARK    8  A    between atoms: S_20  and  C_23
REMARK                            x       y       z     vdW  Elec       q    Type
REMARK                         _______ _______ _______ _____ _____    ______ ____
ROOT
ATOM      1  C   UNL     1     -34.786  26.596   3.794  0.00  0.00    +0.089 C 
ATOM      2  C   UNL     1     -36.463  24.900   3.625  0.00  0.00    +0.119 C 
ATOM      3  C   UNL     1     -35.936  26.118   3.197  0.00  0.00    +0.027 C 
ATOM      4  C   UNL     1     -34.141  25.907   4.801  0.00  0.00    +0.144 C 
ATOM      5  C   UNL     1     -35.828  24.185   4.643  0.00  0.00    +0.062 C 
ATOM      6  C   UNL     1     -34.668  24.689   5.230  0.00  0.00    +0.052 C 
ENDROOT
BRANCH   1   9
ATOM      7  O   UNL     1     -34.998  28.858   3.212  0.00  0.00    -0.270 OA
ATOM      8  N   UNL     1     -32.876  27.933   3.058  0.00  0.00    -0.303 N 
ATOM      9  C   UNL     1     -34.243  27.896   3.323  0.00  0.00    +0.249 C 
ATOM     10  H   UNL     1     -32.350  27.109   3.175  0.00  0.00    +0.150 HD
BRANCH   8  11
ATOM     11  C   UNL     1     -32.200  29.119   2.621  0.00  0.00    +0.069 C 
BRANCH  11  13
ATOM     12  N   UNL     1     -30.856  28.818   4.710  0.00  0.00    +0.389 N 
ATOM     13  C   UNL     1     -31.451  29.780   3.770  0.00  0.00    -0.038 C 
ATOM     14  C   UNL     1     -32.387  30.591   4.668  0.00  0.00    -0.021 C 
ATOM     15  C   UNL     1     -31.803  30.471   6.071  0.00  0.00    -0.025 C 
ATOM     16  C   UNL     1     -30.570  29.597   5.917  0.00  0.00    -0.077 C 
ATOM     17  H   UNL     1     -31.497  28.044   4.886  0.00  0.00    -0.080 HD
BRANCH  12  18
ATOM     18  C   UNL     1     -29.656  28.172   4.193  0.00  0.00    -0.077 C 
ATOM     19  C   UNL     1     -28.541  28.173   5.219  0.00  0.00    -0.025 C 
ENDBRANCH  12  18
ENDBRANCH  11  13
ENDBRANCH   8  11
ENDBRANCH   1   9
BRANCH   2  20
ATOM     20  S   UNL     1     -37.921  24.301   2.864  0.00  0.00    +0.010 S 
ATOM     21  O   UNL     1     -37.632  22.976   2.335  0.00  0.00    -0.169 OA
ATOM     22  O   UNL     1     -39.036  24.490   3.778  0.00  0.00    -0.169 OA
BRANCH  20  23
ATOM     23  C   UNL     1     -38.179  25.398   1.490  0.00  0.00    +0.156 C 
ATOM     24  C   UNL     1     -39.497  26.130   1.605  0.00  0.00    +0.028 C 
ENDBRANCH  20  23
ENDBRANCH   2  20
BRANCH   5  25
ATOM     25  N   UNL     1     -36.342  22.949   5.094  0.00  0.00    -0.356 N 
ATOM     26  H   UNL     1     -36.247  22.143   4.537  0.00  0.00    +0.142 HD
ATOM     27  H   UNL     1     -36.795  22.894   5.967  0.00  0.00    +0.142 HD
ENDBRANCH   5  25
BRANCH   4  28
ATOM     28  O   UNL     1     -33.006  26.382   5.387  0.00  0.00    -0.471 OA
ATOM     29  C   UNL     1     -33.111  26.829   6.737  0.00  0.00    +0.252 C 
ENDBRANCH   4  28
TORSDOF 8
ENDMDL
MODEL 6
REMARK VINA RESULT:      -5.6      2.894      3.755
REMARK  Name = 2159
REMARK  8 active torsions:
REMARK  status: ('A' for Active; 'I' for Inactive)
REMARK    1  A    between atoms: C_1  and  C_9
REMARK    2  A    between atoms: C_2  and  S_20
REMARK    3  A    between atoms: C_4  and  O_28
REMARK    4  A    between atoms: C_5  and  N_25
REMARK    5  A    between atoms: N_8  and  C_11
REMARK    6  A    between atoms: C_11  and  C_13
REMARK    7  A    between atoms: N_12  and  C_18
REMARK    8  A    between atoms: S_20  and  C_23
REMARK                            x       y       z     vdW  Elec       q    Type
REMARK                         _______ _______ _______ _____ _____    ______ ____
ROOT
ATOM      1  C   UNL     1     -35.455  24.263   3.716  0.00  0.00    +0.089 C 
ATOM      2  C   UNL     1     -34.055  26.176   4.026  0.00  0.00    +0.119 C 
ATOM      3  C   UNL     1     -34.751  25.319   3.173  0.00  0.00    +0.027 C 
ATOM      4  C   UNL     1     -35.492  24.027   5.076  0.00  0.00    +0.144 C 
ATOM      5  C   UNL     1     -34.077  25.958   5.405  0.00  0.00    +0.062 C 
ATOM      6  C   UNL     1     -34.796  24.883   5.928  0.00  0.00    +0.052 C 
ENDROOT
BRANCH   1   9
ATOM      7  O   UNL     1     -35.611  22.917   1.802  0.00  0.00    -0.270 OA
ATOM      8  N   UNL     1     -37.505  23.063   3.134  0.00  0.00    -0.303 N 
ATOM      9  C   UNL     1     -36.188  23.362   2.790  0.00  0.00    +0.249 C 
ATOM     10  H   UNL     1     -37.883  23.469   3.947  0.00  0.00    +0.150 HD
BRANCH   8  11
ATOM     11  C   UNL     1     -38.332  22.191   2.356  0.00  0.00    +0.069 C 
BRANCH  11  13
ATOM     12  N   UNL     1     -39.179  23.574   0.451  0.00  0.00    +0.389 N 
ATOM     13  C   UNL     1     -39.503  22.947   1.740  0.00  0.00    -0.038 C 
ATOM     14  C   UNL     1     -39.922  24.141   2.599  0.00  0.00    -0.021 C 
ATOM     15  C   UNL     1     -40.405  25.197   1.611  0.00  0.00    -0.025 C 
ATOM     16  C   UNL     1     -40.236  24.567   0.239  0.00  0.00    -0.077 C 
ATOM     17  H   UNL     1     -38.249  23.991   0.477  0.00  0.00    -0.080 HD
BRANCH  12  18
ATOM     18  C   UNL     1     -39.110  22.624  -0.652  0.00  0.00    -0.077 C 
ATOM     19  C   UNL     1     -40.406  21.854  -0.803  0.00  0.00    -0.025 C 
ENDBRANCH  12  18
ENDBRANCH  11  13
ENDBRANCH   8  11
ENDBRANCH   1   9
BRANCH   2  20
ATOM     20  S   UNL     1     -33.165  27.514   3.330  0.00  0.00    +0.010 S 
ATOM     21  O   UNL     1     -33.795  28.746   3.779  0.00  0.00    -0.169 OA
ATOM     22  O   UNL     1     -31.745  27.299   3.559  0.00  0.00    -0.169 OA
BRANCH  20  23
ATOM     23  C   UNL     1     -33.441  27.359   1.581  0.00  0.00    +0.156 C 
ATOM     24  C   UNL     1     -34.379  28.430   1.072  0.00  0.00    +0.028 C 
ENDBRANCH  20  23
ENDBRANCH   2  20
BRANCH   5  25
ATOM     25  N   UNL     1     -33.381  26.810   6.289  0.00  0.00    -0.356 N 
ATOM     26  H   UNL     1     -33.815  27.626   6.630  0.00  0.00    +0.142 HD
ATOM     27  H   UNL     1     -32.462  26.590   6.563  0.00  0.00    +0.142 HD
ENDBRANCH   5  25
BRANCH   4  28
ATOM     28  O   UNL     1     -36.188  22.983   5.607  0.00  0.00    -0.471 OA
ATOM     29  C   UNL     1     -35.431  21.946   6.227  0.00  0.00    +0.252 C 
ENDBRANCH   4  28
TORSDOF 8
ENDMDL
MODEL 7
REMARK VINA RESULT:      -5.6      2.346      3.124
REMARK  Name = 2159
REMARK  8 active torsions:
REMARK  status: ('A' for Active; 'I' for Inactive)
REMARK    1  A    between atoms: C_1  and  C_9
REMARK    2  A    between atoms: C_2  and  S_20
REMARK    3  A    between atoms: C_4  and  O_28
REMARK    4  A    between atoms: C_5  and  N_25
REMARK    5  A    between atoms: N_8  and  C_11
REMARK    6  A    between atoms: C_11  and  C_13
REMARK    7  A    between atoms: N_12  and  C_18
REMARK    8  A    between atoms: S_20  and  C_23
REMARK                            x       y       z     vdW  Elec       q    Type
REMARK                         _______ _______ _______ _____ _____    ______ ____
ROOT
ATOM      1  C   UNL     1     -34.544  25.837   3.650  0.00  0.00    +0.089 C 
ATOM      2  C   UNL     1     -33.029  27.322   4.752  0.00  0.00    +0.119 C 
ATOM      3  C   UNL     1     -33.618  26.858   3.575  0.00  0.00    +0.027 C 
ATOM      4  C   UNL     1     -34.906  25.260   4.850  0.00  0.00    +0.144 C 
ATOM      5  C   UNL     1     -33.379  26.754   5.978  0.00  0.00    +0.062 C 
ATOM      6  C   UNL     1     -34.317  25.723   6.026  0.00  0.00    +0.052 C 
ENDROOT
BRANCH   1   9
ATOM      7  O   UNL     1     -35.996  26.055   1.821  0.00  0.00    -0.270 OA
ATOM      8  N   UNL     1     -34.707  24.128   1.908  0.00  0.00    -0.303 N 
ATOM      9  C   UNL     1     -35.158  25.357   2.385  0.00  0.00    +0.249 C 
ATOM     10  H   UNL     1     -34.031  23.639   2.430  0.00  0.00    +0.150 HD
BRANCH   8  11
ATOM     11  C   UNL     1     -35.184  23.545   0.690  0.00  0.00    +0.069 C 
BRANCH  11  13
ATOM     12  N   UNL     1     -36.168  21.826   2.218  0.00  0.00    +0.389 N 
ATOM     13  C   UNL     1     -35.583  22.089   0.896  0.00  0.00    -0.038 C 
ATOM     14  C   UNL     1     -34.368  21.159   0.875  0.00  0.00    -0.021 C 
ATOM     15  C   UNL     1     -34.706  20.035   1.848  0.00  0.00    -0.025 C 
ATOM     16  C   UNL     1     -36.087  20.373   2.384  0.00  0.00    -0.077 C 
ATOM     17  H   UNL     1     -35.661  22.332   2.944  0.00  0.00    -0.080 HD
BRANCH  12  18
ATOM     18  C   UNL     1     -37.540  22.303   2.348  0.00  0.00    -0.077 C 
ATOM     19  C   UNL     1     -38.507  21.422   1.585  0.00  0.00    -0.025 C 
ENDBRANCH  12  18
ENDBRANCH  11  13
ENDBRANCH   8  11
ENDBRANCH   1   9
BRANCH   2  20
ATOM     20  S   UNL     1     -31.856  28.617   4.650  0.00  0.00    +0.010 S 
ATOM     21  O   UNL     1     -32.394  29.761   5.371  0.00  0.00    -0.169 OA
ATOM     22  O   UNL     1     -30.546  28.089   5.000  0.00  0.00    -0.169 OA
BRANCH  20  23
ATOM     23  C   UNL     1     -31.808  29.029   2.922  0.00  0.00    +0.156 C 
ATOM     24  C   UNL     1     -32.168  30.479   2.687  0.00  0.00    +0.028 C 
ENDBRANCH  20  23
ENDBRANCH   2  20
BRANCH   5  25
ATOM     25  N   UNL     1     -32.797  27.206   7.183  0.00  0.00    -0.356 N 
ATOM     26  H   UNL     1     -32.087  26.677   7.615  0.00  0.00    +0.142 HD
ATOM     27  H   UNL     1     -33.101  28.049   7.591  0.00  0.00    +0.142 HD
ENDBRANCH   5  25
BRANCH   4  28
ATOM     28  O   UNL     1     -35.821  24.252   4.918  0.00  0.00    -0.471 OA
ATOM     29  C   UNL     1     -35.454  23.092   5.662  0.00  0.00    +0.252 C 
ENDBRANCH   4  28
TORSDOF 8
ENDMDL
MODEL 8
REMARK VINA RESULT:      -5.5      3.375      7.494
REMARK  Name = 2159
REMARK  8 active torsions:
REMARK  status: ('A' for Active; 'I' for Inactive)
REMARK    1  A    between atoms: C_1  and  C_9
REMARK    2  A    between atoms: C_2  and  S_20
REMARK    3  A    between atoms: C_4  and  O_28
REMARK    4  A    between atoms: C_5  and  N_25
REMARK    5  A    between atoms: N_8  and  C_11
REMARK    6  A    between atoms: C_11  and  C_13
REMARK    7  A    between atoms: N_12  and  C_18
REMARK    8  A    between atoms: S_20  and  C_23
REMARK                            x       y       z     vdW  Elec       q    Type
REMARK                         _______ _______ _______ _____ _____    ______ ____
ROOT
ATOM      1  C   UNL     1     -36.188  24.528   4.400  0.00  0.00    +0.089 C 
ATOM      2  C   UNL     1     -37.806  23.848   2.777  0.00  0.00    +0.119 C 
ATOM      3  C   UNL     1     -37.219  24.856   3.542  0.00  0.00    +0.027 C 
ATOM      4  C   UNL     1     -35.720  23.235   4.526  0.00  0.00    +0.144 C 
ATOM      5  C   UNL     1     -37.350  22.533   2.887  0.00  0.00    +0.062 C 
ATOM      6  C   UNL     1     -36.307  22.228   3.762  0.00  0.00    +0.052 C 
ENDROOT
BRANCH   1   9
ATOM      7  O   UNL     1     -36.300  26.335   5.891  0.00  0.00    -0.270 OA
ATOM      8  N   UNL     1     -34.190  25.727   5.142  0.00  0.00    -0.303 N 
ATOM      9  C   UNL     1     -35.577  25.616   5.206  0.00  0.00    +0.249 C 
ATOM     10  H   UNL     1     -33.694  25.104   4.564  0.00  0.00    +0.150 HD
BRANCH   8  11
ATOM     11  C   UNL     1     -33.454  26.709   5.881  0.00  0.00    +0.069 C 
BRANCH  11  13
ATOM     12  N   UNL     1     -32.556  28.988   5.372  0.00  0.00    +0.389 N 
ATOM     13  C   UNL     1     -32.615  27.580   4.954  0.00  0.00    -0.038 C 
ATOM     14  C   UNL     1     -33.225  27.670   3.554  0.00  0.00    -0.021 C 
ATOM     15  C   UNL     1     -32.878  29.068   3.054  0.00  0.00    -0.025 C 
ATOM     16  C   UNL     1     -32.097  29.715   4.186  0.00  0.00    -0.077 C 
ATOM     17  H   UNL     1     -33.469  29.306   5.697  0.00  0.00    -0.080 HD
BRANCH  12  18
ATOM     18  C   UNL     1     -31.677  29.216   6.512  0.00  0.00    -0.077 C 
ATOM     19  C   UNL     1     -30.229  28.948   6.158  0.00  0.00    -0.025 C 
ENDBRANCH  12  18
ENDBRANCH  11  13
ENDBRANCH   8  11
ENDBRANCH   1   9
BRANCH   2  20
ATOM     20  S   UNL     1     -39.113  24.271   1.691  0.00  0.00    +0.010 S 
ATOM     21  O   UNL     1     -38.640  24.070   0.329  0.00  0.00    -0.169 OA
ATOM     22  O   UNL     1     -40.327  23.611   2.143  0.00  0.00    -0.169 OA
BRANCH  20  23
ATOM     23  C   UNL     1     -39.342  26.015   1.942  0.00  0.00    +0.156 C 
ATOM     24  C   UNL     1     -38.887  26.812   0.740  0.00  0.00    +0.028 C 
ENDBRANCH  20  23
ENDBRANCH   2  20
BRANCH   5  25
ATOM     25  N   UNL     1     -37.928  21.495   2.124  0.00  0.00    -0.356 N 
ATOM     26  H   UNL     1     -37.465  21.155   1.324  0.00  0.00    +0.142 HD
ATOM     27  H   UNL     1     -38.795  21.112   2.391  0.00  0.00    +0.142 HD
ENDBRANCH   5  25
BRANCH   4  28
ATOM     28  O   UNL     1     -34.702  22.917   5.374  0.00  0.00    -0.471 OA
ATOM     29  C   UNL     1     -34.971  21.933   6.370  0.00  0.00    +0.252 C 
ENDBRANCH   4  28
TORSDOF 8
ENDMDL
MODEL 9
REMARK VINA RESULT:      -5.5      2.777      7.621
REMARK  Name = 2159
REMARK  8 active torsions:
REMARK  status: ('A' for Active; 'I' for Inactive)
REMARK    1  A    between atoms: C_1  and  C_9
REMARK    2  A    between atoms: C_2  and  S_20
REMARK    3  A    between atoms: C_4  and  O_28
REMARK    4  A    between atoms: C_5  and  N_25
REMARK    5  A    between atoms: N_8  and  C_11
REMARK    6  A    between atoms: C_11  and  C_13
REMARK    7  A    between atoms: N_12  and  C_18
REMARK    8  A    between atoms: S_20  and  C_23
REMARK                            x       y       z     vdW  Elec       q    Type
REMARK                         _______ _______ _______ _____ _____    ______ ____
ROOT
ATOM      1  C   UNL     1     -34.645  25.325   3.581  0.00  0.00    +0.089 C 
ATOM      2  C   UNL     1     -35.376  23.049   3.613  0.00  0.00    +0.119 C 
ATOM      3  C   UNL     1     -34.933  24.161   2.897  0.00  0.00    +0.027 C 
ATOM      4  C   UNL     1     -34.782  25.425   4.951  0.00  0.00    +0.144 C 
ATOM      5  C   UNL     1     -35.523  23.126   4.999  0.00  0.00    +0.062 C 
ATOM      6  C   UNL     1     -35.226  24.314   5.667  0.00  0.00    +0.052 C 
ENDROOT
BRANCH   1   9
ATOM      7  O   UNL     1     -33.297  26.344   1.954  0.00  0.00    -0.270 OA
ATOM      8  N   UNL     1     -34.801  27.712   3.071  0.00  0.00    -0.303 N 
ATOM      9  C   UNL     1     -34.175  26.498   2.798  0.00  0.00    +0.249 C 
ATOM     10  H   UNL     1     -35.496  27.738   3.768  0.00  0.00    +0.150 HD
BRANCH   8  11
ATOM     11  C   UNL     1     -34.476  28.926   2.383  0.00  0.00    +0.069 C 
BRANCH  11  13
ATOM     12  N   UNL     1     -35.826  29.983   0.561  0.00  0.00    +0.389 N 
ATOM     13  C   UNL     1     -35.734  29.694   1.999  0.00  0.00    -0.038 C 
ATOM     14  C   UNL     1     -35.759  31.091   2.624  0.00  0.00    -0.021 C 
ATOM     15  C   UNL     1     -36.478  31.972   1.609  0.00  0.00    -0.025 C 
ATOM     16  C   UNL     1     -36.824  31.049   0.453  0.00  0.00    -0.077 C 
ATOM     17  H   UNL     1     -34.916  30.258   0.190  0.00  0.00    -0.080 HD
BRANCH  12  18
ATOM     18  C   UNL     1     -36.195  28.821  -0.239  0.00  0.00    -0.077 C 
ATOM     19  C   UNL     1     -37.413  28.122   0.329  0.00  0.00    -0.025 C 
ENDBRANCH  12  18
ENDBRANCH  11  13
ENDBRANCH   8  11
ENDBRANCH   1   9
BRANCH   2  20
ATOM     20  S   UNL     1     -35.738  21.576   2.739  0.00  0.00    +0.010 S 
ATOM     21  O   UNL     1     -35.220  20.460   3.517  0.00  0.00    -0.169 OA
ATOM     22  O   UNL     1     -37.139  21.599   2.347  0.00  0.00    -0.169 OA
BRANCH  20  23
ATOM     23  C   UNL     1     -34.776  21.704   1.250  0.00  0.00    +0.156 C 
ATOM     24  C   UNL     1     -34.008  20.431   0.976  0.00  0.00    +0.028 C 
ENDBRANCH  20  23
ENDBRANCH   2  20
BRANCH   5  25
ATOM     25  N   UNL     1     -35.970  22.015   5.747  0.00  0.00    -0.356 N 
ATOM     26  H   UNL     1     -36.074  22.089   6.724  0.00  0.00    +0.142 HD
ATOM     27  H   UNL     1     -36.178  21.167   5.293  0.00  0.00    +0.142 HD
ENDBRANCH   5  25
BRANCH   4  28
ATOM     28  O   UNL     1     -34.497  26.577   5.621  0.00  0.00    -0.471 OA
ATOM     29  C   UNL     1     -33.322  26.582   6.430  0.00  0.00    +0.252 C 
ENDBRANCH   4  28
TORSDOF 8
ENDMDL
