MODEL 1
REMARK VINA RESULT:      -5.7      0.000      0.000
REMARK  Name = 5459896
REMARK  9 active torsions:
REMARK  status: ('A' for Active; 'I' for Inactive)
REMARK    1  A    between atoms: C_2  and  O_7
REMARK    2  A    between atoms: C_3  and  O_9
REMARK    3  A    between atoms: C_4  and  C_19
REMARK    4  A    between atoms: C_5  and  O_11
REMARK    5  A    between atoms: C_6  and  O_13
REMARK    6  A    between atoms: O_13  and  C_14
REMARK    7  A    between atoms: C_14  and  N_16
REMARK    8  A    between atoms: N_16  and  N_17
REMARK    9  A    between atoms: C_19  and  O_20
REMARK                            x       y       z     vdW  Elec       q    Type
REMARK                         _______ _______ _______ _____ _____    ______ ____
ROOT
ATOM      1  O   UNL     1     -35.122  24.135   5.528  0.00  0.00    -0.326 OA
ATOM      2  C   UNL     1     -36.839  23.994   3.229  0.00  0.00    +0.172 C 
ATOM      3  C   UNL     1     -36.010  22.801   3.708  0.00  0.00    +0.169 C 
ATOM      4  C   UNL     1     -35.750  22.891   5.215  0.00  0.00    +0.176 C 
ATOM      5  C   UNL     1     -36.250  25.313   3.729  0.00  0.00    +0.196 C 
ATOM      6  C   UNL     1     -35.950  25.257   5.227  0.00  0.00    +0.267 C 
ENDROOT
BRANCH   2   7
ATOM      7  O   UNL     1     -36.841  23.984   1.801  0.00  0.00    -0.379 OA
ATOM      8  H   UNL     1     -36.418  24.792   1.471  0.00  0.00    +0.211 HD
ENDBRANCH   2   7
BRANCH   3   9
ATOM      9  O   UNL     1     -36.711  21.595   3.422  0.00  0.00    -0.379 OA
ATOM     10  H   UNL     1     -36.255  21.117   2.711  0.00  0.00    +0.211 HD
ENDBRANCH   3   9
BRANCH   5  11
ATOM     11  O   UNL     1     -37.187  26.366   3.500  0.00  0.00    -0.378 OA
ATOM     12  H   UNL     1     -37.203  26.957   4.268  0.00  0.00    +0.211 HD
ENDBRANCH   5  11
BRANCH   6  13
ATOM     13  O   UNL     1     -35.277  26.463   5.586  0.00  0.00    -0.309 OA
BRANCH  13  14
ATOM     14  C   UNL     1     -33.871  26.384   5.336  0.00  0.00    +0.255 C 
BRANCH  14  15
ATOM     15  N   UNL     1     -32.955  27.129   6.222  0.00  0.00    -0.087 NA
BRANCH  15  17
ATOM     16  O   UNL     1     -32.913  28.763   4.624  0.00  0.00    -0.101 OA
ATOM     17  N   UNL     1     -32.583  28.249   5.744  0.00  0.00    -0.055 NA
ATOM     18  C   UNL     1     -31.671  29.002   6.615  0.00  0.00    +0.145 C 
ENDBRANCH  15  17
ENDBRANCH  14  15
ENDBRANCH  13  14
ENDBRANCH   6  13
BRANCH   4  19
ATOM     19  C   UNL     1     -34.827  21.776   5.696  0.00  0.00    +0.169 C 
BRANCH  19  20
ATOM     20  O   UNL     1     -35.598  20.602   5.883  0.00  0.00    -0.379 OA
ATOM     21  H   UNL     1     -36.026  20.360   5.047  0.00  0.00    +0.211 HD
ENDBRANCH  19  20
ENDBRANCH   4  19
TORSDOF 9
ENDMDL
MODEL 2
REMARK VINA RESULT:      -5.7      4.297      6.544
REMARK  Name = 5459896
REMARK  9 active torsions:
REMARK  status: ('A' for Active; 'I' for Inactive)
REMARK    1  A    between atoms: C_2  and  O_7
REMARK    2  A    between atoms: C_3  and  O_9
REMARK    3  A    between atoms: C_4  and  C_19
REMARK    4  A    between atoms: C_5  and  O_11
REMARK    5  A    between atoms: C_6  and  O_13
REMARK    6  A    between atoms: O_13  and  C_14
REMARK    7  A    between atoms: C_14  and  N_16
REMARK    8  A    between atoms: N_16  and  N_17
REMARK    9  A    between atoms: C_19  and  O_20
REMARK                            x       y       z     vdW  Elec       q    Type
REMARK                         _______ _______ _______ _____ _____    ______ ____
ROOT
ATOM      1  O   UNL     1     -37.075  22.831   3.865  0.00  0.00    -0.326 OA
ATOM      2  C   UNL     1     -36.425  25.562   4.472  0.00  0.00    +0.172 C 
ATOM      3  C   UNL     1     -35.848  24.387   5.262  0.00  0.00    +0.169 C 
ATOM      4  C   UNL     1     -35.781  23.129   4.391  0.00  0.00    +0.176 C 
ATOM      5  C   UNL     1     -37.722  25.171   3.764  0.00  0.00    +0.196 C 
ATOM      6  C   UNL     1     -37.563  23.855   3.001  0.00  0.00    +0.267 C 
ENDROOT
BRANCH   2   7
ATOM      7  O   UNL     1     -36.687  26.625   5.391  0.00  0.00    -0.379 OA
ATOM      8  H   UNL     1     -37.641  26.789   5.432  0.00  0.00    +0.211 HD
ENDBRANCH   2   7
BRANCH   3   9
ATOM      9  O   UNL     1     -34.537  24.719   5.710  0.00  0.00    -0.379 OA
ATOM     10  H   UNL     1     -34.033  23.906   5.868  0.00  0.00    +0.211 HD
ENDBRANCH   3   9
BRANCH   5  11
ATOM     11  O   UNL     1     -38.079  26.190   2.831  0.00  0.00    -0.378 OA
ATOM     12  H   UNL     1     -37.920  27.060   3.226  0.00  0.00    +0.211 HD
ENDBRANCH   5  11
BRANCH   6  13
ATOM     13  O   UNL     1     -38.844  23.486   2.490  0.00  0.00    -0.309 OA
BRANCH  13  14
ATOM     14  C   UNL     1     -38.874  22.122   2.061  0.00  0.00    +0.255 C 
BRANCH  14  15
ATOM     15  N   UNL     1     -40.181  21.441   1.971  0.00  0.00    -0.087 NA
BRANCH  15  17
ATOM     16  O   UNL     1     -41.573  20.715   0.310  0.00  0.00    -0.101 OA
ATOM     17  N   UNL     1     -40.430  20.973   0.813  0.00  0.00    -0.055 NA
ATOM     18  C   UNL     1     -39.235  20.717  -0.002  0.00  0.00    +0.145 C 
ENDBRANCH  15  17
ENDBRANCH  14  15
ENDBRANCH  13  14
ENDBRANCH   6  13
BRANCH   4  19
ATOM     19  C   UNL     1     -35.319  21.914   5.189  0.00  0.00    +0.169 C 
BRANCH  19  20
ATOM     20  O   UNL     1     -36.003  21.902   6.428  0.00  0.00    -0.379 OA
ATOM     21  H   UNL     1     -35.741  21.118   6.936  0.00  0.00    +0.211 HD
ENDBRANCH  19  20
ENDBRANCH   4  19
TORSDOF 9
ENDMDL
MODEL 3
REMARK VINA RESULT:      -5.4      1.485      1.755
REMARK  Name = 5459896
REMARK  9 active torsions:
REMARK  status: ('A' for Active; 'I' for Inactive)
REMARK    1  A    between atoms: C_2  and  O_7
REMARK    2  A    between atoms: C_3  and  O_9
REMARK    3  A    between atoms: C_4  and  C_19
REMARK    4  A    between atoms: C_5  and  O_11
REMARK    5  A    between atoms: C_6  and  O_13
REMARK    6  A    between atoms: O_13  and  C_14
REMARK    7  A    between atoms: C_14  and  N_16
REMARK    8  A    between atoms: N_16  and  N_17
REMARK    9  A    between atoms: C_19  and  O_20
REMARK                            x       y       z     vdW  Elec       q    Type
REMARK                         _______ _______ _______ _____ _____    ______ ____
ROOT
ATOM      1  O   UNL     1     -34.101  24.519   5.378  0.00  0.00    -0.326 OA
ATOM      2  C   UNL     1     -36.218  25.655   3.803  0.00  0.00    +0.172 C 
ATOM      3  C   UNL     1     -36.087  24.149   4.038  0.00  0.00    +0.169 C 
ATOM      4  C   UNL     1     -35.372  23.867   5.362  0.00  0.00    +0.176 C 
ATOM      5  C   UNL     1     -34.879  26.364   4.003  0.00  0.00    +0.196 C 
ATOM      6  C   UNL     1     -34.214  25.939   5.313  0.00  0.00    +0.267 C 
ENDROOT
BRANCH   2   7
ATOM      7  O   UNL     1     -36.666  25.855   2.461  0.00  0.00    -0.379 OA
ATOM      8  H   UNL     1     -36.207  25.237   1.871  0.00  0.00    +0.211 HD
ENDBRANCH   2   7
BRANCH   3   9
ATOM      9  O   UNL     1     -37.386  23.563   4.070  0.00  0.00    -0.379 OA
ATOM     10  H   UNL     1     -37.510  23.100   4.913  0.00  0.00    +0.211 HD
ENDBRANCH   3   9
BRANCH   5  11
ATOM     11  O   UNL     1     -35.092  27.775   4.047  0.00  0.00    -0.378 OA
ATOM     12  H   UNL     1     -35.122  28.126   3.144  0.00  0.00    +0.211 HD
ENDBRANCH   5  11
BRANCH   6  13
ATOM     13  O   UNL     1     -32.916  26.529   5.359  0.00  0.00    -0.309 OA
BRANCH  13  14
ATOM     14  C   UNL     1     -32.750  27.367   6.507  0.00  0.00    +0.255 C 
BRANCH  14  15
ATOM     15  N   UNL     1     -32.112  28.686   6.331  0.00  0.00    -0.087 NA
BRANCH  15  17
ATOM     16  O   UNL     1     -33.202  29.655   4.571  0.00  0.00    -0.101 OA
ATOM     17  N   UNL     1     -32.189  29.132   5.141  0.00  0.00    -0.055 NA
ATOM     18  C   UNL     1     -30.942  29.011   4.372  0.00  0.00    +0.145 C 
ENDBRANCH  15  17
ENDBRANCH  14  15
ENDBRANCH  13  14
ENDBRANCH   6  13
BRANCH   4  19
ATOM     19  C   UNL     1     -35.125  22.375   5.563  0.00  0.00    +0.169 C 
BRANCH  19  20
ATOM     20  O   UNL     1     -36.158  21.854   6.379  0.00  0.00    -0.379 OA
ATOM     21  H   UNL     1     -35.851  21.804   7.298  0.00  0.00    +0.211 HD
ENDBRANCH  19  20
ENDBRANCH   4  19
TORSDOF 9
ENDMDL
MODEL 4
REMARK VINA RESULT:      -5.4      1.747      3.208
REMARK  Name = 5459896
REMARK  9 active torsions:
REMARK  status: ('A' for Active; 'I' for Inactive)
REMARK    1  A    between atoms: C_2  and  O_7
REMARK    2  A    between atoms: C_3  and  O_9
REMARK    3  A    between atoms: C_4  and  C_19
REMARK    4  A    between atoms: C_5  and  O_11
REMARK    5  A    between atoms: C_6  and  O_13
REMARK    6  A    between atoms: O_13  and  C_14
REMARK    7  A    between atoms: C_14  and  N_16
REMARK    8  A    between atoms: N_16  and  N_17
REMARK    9  A    between atoms: C_19  and  O_20
REMARK                            x       y       z     vdW  Elec       q    Type
REMARK                         _______ _______ _______ _____ _____    ______ ____
ROOT
ATOM      1  O   UNL     1     -37.307  23.486   3.353  0.00  0.00    -0.326 OA
ATOM      2  C   UNL     1     -35.355  21.654   4.395  0.00  0.00    +0.172 C 
ATOM      3  C   UNL     1     -36.496  21.205   3.481  0.00  0.00    +0.169 C 
ATOM      4  C   UNL     1     -36.942  22.350   2.568  0.00  0.00    +0.176 C 
ATOM      5  C   UNL     1     -35.691  22.973   5.092  0.00  0.00    +0.196 C 
ATOM      6  C   UNL     1     -36.209  24.012   4.097  0.00  0.00    +0.267 C 
ENDROOT
BRANCH   2   7
ATOM      7  O   UNL     1     -35.149  20.636   5.377  0.00  0.00    -0.379 OA
ATOM      8  H   UNL     1     -35.166  19.766   4.949  0.00  0.00    +0.211 HD
ENDBRANCH   2   7
BRANCH   3   9
ATOM      9  O   UNL     1     -36.057  20.110   2.683  0.00  0.00    -0.379 OA
ATOM     10  H   UNL     1     -35.140  20.261   2.403  0.00  0.00    +0.211 HD
ENDBRANCH   3   9
BRANCH   5  11
ATOM     11  O   UNL     1     -34.515  23.494   5.711  0.00  0.00    -0.378 OA
ATOM     12  H   UNL     1     -33.816  23.592   5.047  0.00  0.00    +0.211 HD
ENDBRANCH   5  11
BRANCH   6  13
ATOM     13  O   UNL     1     -36.632  25.156   4.838  0.00  0.00    -0.309 OA
BRANCH  13  14
ATOM     14  C   UNL     1     -35.792  26.289   4.595  0.00  0.00    +0.255 C 
BRANCH  14  15
ATOM     15  N   UNL     1     -34.634  26.509   5.483  0.00  0.00    -0.087 NA
BRANCH  15  17
ATOM     16  O   UNL     1     -33.077  25.421   4.210  0.00  0.00    -0.101 OA
ATOM     17  N   UNL     1     -33.512  26.410   4.888  0.00  0.00    -0.055 NA
ATOM     18  C   UNL     1     -32.653  27.595   5.023  0.00  0.00    +0.145 C 
ENDBRANCH  15  17
ENDBRANCH  14  15
ENDBRANCH  13  14
ENDBRANCH   6  13
BRANCH   4  19
ATOM     19  C   UNL     1     -38.156  21.963   1.729  0.00  0.00    +0.169 C 
BRANCH  19  20
ATOM     20  O   UNL     1     -38.790  20.854   2.339  0.00  0.00    -0.379 OA
ATOM     21  H   UNL     1     -39.278  21.150   3.123  0.00  0.00    +0.211 HD
ENDBRANCH  19  20
ENDBRANCH   4  19
TORSDOF 9
ENDMDL
MODEL 5
REMARK VINA RESULT:      -5.3      1.932      2.398
REMARK  Name = 5459896
REMARK  9 active torsions:
REMARK  status: ('A' for Active; 'I' for Inactive)
REMARK    1  A    between atoms: C_2  and  O_7
REMARK    2  A    between atoms: C_3  and  O_9
REMARK    3  A    between atoms: C_4  and  C_19
REMARK    4  A    between atoms: C_5  and  O_11
REMARK    5  A    between atoms: C_6  and  O_13
REMARK    6  A    between atoms: O_13  and  C_14
REMARK    7  A    between atoms: C_14  and  N_16
REMARK    8  A    between atoms: N_16  and  N_17
REMARK    9  A    between atoms: C_19  and  O_20
REMARK                            x       y       z     vdW  Elec       q    Type
REMARK                         _______ _______ _______ _____ _____    ______ ____
ROOT
ATOM      1  O   UNL     1     -34.549  24.524   2.257  0.00  0.00    -0.326 OA
ATOM      2  C   UNL     1     -36.692  24.691   4.162  0.00  0.00    +0.172 C 
ATOM      3  C   UNL     1     -36.579  23.547   3.153  0.00  0.00    +0.169 C 
ATOM      4  C   UNL     1     -35.118  23.314   2.759  0.00  0.00    +0.176 C 
ATOM      5  C   UNL     1     -35.923  25.924   3.689  0.00  0.00    +0.196 C 
ATOM      6  C   UNL     1     -34.508  25.558   3.238  0.00  0.00    +0.267 C 
ENDROOT
BRANCH   2   7
ATOM      7  O   UNL     1     -38.076  25.019   4.304  0.00  0.00    -0.379 OA
ATOM      8  H   UNL     1     -38.579  24.215   4.507  0.00  0.00    +0.211 HD
ENDBRANCH   2   7
BRANCH   3   9
ATOM      9  O   UNL     1     -37.107  22.356   3.729  0.00  0.00    -0.379 OA
ATOM     10  H   UNL     1     -36.977  21.616   3.117  0.00  0.00    +0.211 HD
ENDBRANCH   3   9
BRANCH   5  11
ATOM     11  O   UNL     1     -35.822  26.859   4.763  0.00  0.00    -0.378 OA
ATOM     12  H   UNL     1     -35.021  27.394   4.651  0.00  0.00    +0.211 HD
ENDBRANCH   5  11
BRANCH   6  13
ATOM     13  O   UNL     1     -33.908  26.727   2.682  0.00  0.00    -0.309 OA
BRANCH  13  14
ATOM     14  C   UNL     1     -32.818  27.199   3.480  0.00  0.00    +0.255 C 
BRANCH  14  15
ATOM     15  N   UNL     1     -33.099  28.176   4.550  0.00  0.00    -0.087 NA
BRANCH  15  17
ATOM     16  O   UNL     1     -33.492  26.815   6.344  0.00  0.00    -0.101 OA
ATOM     17  N   UNL     1     -32.863  27.731   5.719  0.00  0.00    -0.055 NA
ATOM     18  C   UNL     1     -31.724  28.375   6.389  0.00  0.00    +0.145 C 
ENDBRANCH  15  17
ENDBRANCH  14  15
ENDBRANCH  13  14
ENDBRANCH   6  13
BRANCH   4  19
ATOM     19  C   UNL     1     -34.989  22.257   1.666  0.00  0.00    +0.169 C 
BRANCH  19  20
ATOM     20  O   UNL     1     -35.074  20.977   2.265  0.00  0.00    -0.379 OA
ATOM     21  H   UNL     1     -35.368  20.330   1.605  0.00  0.00    +0.211 HD
ENDBRANCH  19  20
ENDBRANCH   4  19
TORSDOF 9
ENDMDL
MODEL 6
REMARK VINA RESULT:      -5.3      3.692      5.378
REMARK  Name = 5459896
REMARK  9 active torsions:
REMARK  status: ('A' for Active; 'I' for Inactive)
REMARK    1  A    between atoms: C_2  and  O_7
REMARK    2  A    between atoms: C_3  and  O_9
REMARK    3  A    between atoms: C_4  and  C_19
REMARK    4  A    between atoms: C_5  and  O_11
REMARK    5  A    between atoms: C_6  and  O_13
REMARK    6  A    between atoms: O_13  and  C_14
REMARK    7  A    between atoms: C_14  and  N_16
REMARK    8  A    between atoms: N_16  and  N_17
REMARK    9  A    between atoms: C_19  and  O_20
REMARK                            x       y       z     vdW  Elec       q    Type
REMARK                         _______ _______ _______ _____ _____    ______ ____
ROOT
ATOM      1  O   UNL     1     -36.923  23.708   4.606  0.00  0.00    -0.326 OA
ATOM      2  C   UNL     1     -35.541  26.104   3.833  0.00  0.00    +0.172 C 
ATOM      3  C   UNL     1     -34.943  25.092   4.810  0.00  0.00    +0.169 C 
ATOM      4  C   UNL     1     -35.496  23.689   4.544  0.00  0.00    +0.176 C 
ATOM      5  C   UNL     1     -37.064  25.987   3.776  0.00  0.00    +0.196 C 
ATOM      6  C   UNL     1     -37.503  24.533   3.598  0.00  0.00    +0.267 C 
ENDROOT
BRANCH   2   7
ATOM      7  O   UNL     1     -35.181  27.414   4.278  0.00  0.00    -0.379 OA
ATOM      8  H   UNL     1     -34.630  27.345   5.073  0.00  0.00    +0.211 HD
ENDBRANCH   2   7
BRANCH   3   9
ATOM      9  O   UNL     1     -33.526  25.075   4.663  0.00  0.00    -0.379 OA
ATOM     10  H   UNL     1     -33.299  24.911   3.734  0.00  0.00    +0.211 HD
ENDBRANCH   3   9
BRANCH   5  11
ATOM     11  O   UNL     1     -37.557  26.742   2.671  0.00  0.00    -0.378 OA
ATOM     12  H   UNL     1     -37.105  27.599   2.637  0.00  0.00    +0.211 HD
ENDBRANCH   5  11
BRANCH   6  13
ATOM     13  O   UNL     1     -38.926  24.488   3.697  0.00  0.00    -0.309 OA
BRANCH  13  14
ATOM     14  C   UNL     1     -39.523  23.880   2.548  0.00  0.00    +0.255 C 
BRANCH  14  15
ATOM     15  N   UNL     1     -40.573  24.623   1.824  0.00  0.00    -0.087 NA
BRANCH  15  17
ATOM     16  O   UNL     1     -40.255  26.886   1.774  0.00  0.00    -0.101 OA
ATOM     17  N   UNL     1     -40.159  25.706   1.299  0.00  0.00    -0.055 NA
ATOM     18  C   UNL     1     -39.502  25.530  -0.004  0.00  0.00    +0.145 C 
ENDBRANCH  15  17
ENDBRANCH  14  15
ENDBRANCH  13  14
ENDBRANCH   6  13
BRANCH   4  19
ATOM     19  C   UNL     1     -35.004  22.683   5.580  0.00  0.00    +0.169 C 
BRANCH  19  20
ATOM     20  O   UNL     1     -36.127  22.022   6.135  0.00  0.00    -0.379 OA
ATOM     21  H   UNL     1     -35.971  21.065   6.136  0.00  0.00    +0.211 HD
ENDBRANCH  19  20
ENDBRANCH   4  19
TORSDOF 9
ENDMDL
MODEL 7
REMARK VINA RESULT:      -5.1      1.642      2.401
REMARK  Name = 5459896
REMARK  9 active torsions:
REMARK  status: ('A' for Active; 'I' for Inactive)
REMARK    1  A    between atoms: C_2  and  O_7
REMARK    2  A    between atoms: C_3  and  O_9
REMARK    3  A    between atoms: C_4  and  C_19
REMARK    4  A    between atoms: C_5  and  O_11
REMARK    5  A    between atoms: C_6  and  O_13
REMARK    6  A    between atoms: O_13  and  C_14
REMARK    7  A    between atoms: C_14  and  N_16
REMARK    8  A    between atoms: N_16  and  N_17
REMARK    9  A    between atoms: C_19  and  O_20
REMARK                            x       y       z     vdW  Elec       q    Type
REMARK                         _______ _______ _______ _____ _____    ______ ____
ROOT
ATOM      1  O   UNL     1     -35.983  23.240   3.884  0.00  0.00    -0.326 OA
ATOM      2  C   UNL     1     -37.731  25.485   3.485  0.00  0.00    +0.172 C 
ATOM      3  C   UNL     1     -37.689  24.297   2.523  0.00  0.00    +0.169 C 
ATOM      4  C   UNL     1     -37.246  23.025   3.251  0.00  0.00    +0.176 C 
ATOM      5  C   UNL     1     -36.434  25.592   4.289  0.00  0.00    +0.196 C 
ATOM      6  C   UNL     1     -36.042  24.244   4.895  0.00  0.00    +0.267 C 
ENDROOT
BRANCH   2   7
ATOM      7  O   UNL     1     -37.911  26.673   2.712  0.00  0.00    -0.379 OA
ATOM      8  H   UNL     1     -38.021  26.437   1.778  0.00  0.00    +0.211 HD
ENDBRANCH   2   7
BRANCH   3   9
ATOM      9  O   UNL     1     -38.986  24.094   1.969  0.00  0.00    -0.379 OA
ATOM     10  H   UNL     1     -39.142  24.745   1.267  0.00  0.00    +0.211 HD
ENDBRANCH   3   9
BRANCH   5  11
ATOM     11  O   UNL     1     -36.613  26.526   5.353  0.00  0.00    -0.378 OA
ATOM     12  H   UNL     1     -37.219  26.155   6.011  0.00  0.00    +0.211 HD
ENDBRANCH   5  11
BRANCH   6  13
ATOM     13  O   UNL     1     -34.760  24.392   5.503  0.00  0.00    -0.309 OA
BRANCH  13  14
ATOM     14  C   UNL     1     -33.946  25.342   4.809  0.00  0.00    +0.255 C 
BRANCH  14  15
ATOM     15  N   UNL     1     -33.312  26.426   5.584  0.00  0.00    -0.087 NA
BRANCH  15  17
ATOM     16  O   UNL     1     -34.109  28.001   4.132  0.00  0.00    -0.101 OA
ATOM     17  N   UNL     1     -33.258  27.534   4.959  0.00  0.00    -0.055 NA
ATOM     18  C   UNL     1     -32.060  28.334   5.254  0.00  0.00    +0.145 C 
ENDBRANCH  15  17
ENDBRANCH  14  15
ENDBRANCH  13  14
ENDBRANCH   6  13
BRANCH   4  19
ATOM     19  C   UNL     1     -37.083  21.852   2.289  0.00  0.00    +0.169 C 
BRANCH  19  20
ATOM     20  O   UNL     1     -38.267  21.076   2.322  0.00  0.00    -0.379 OA
ATOM     21  H   UNL     1     -38.512  20.897   3.243  0.00  0.00    +0.211 HD
ENDBRANCH  19  20
ENDBRANCH   4  19
TORSDOF 9
ENDMDL
MODEL 8
REMARK VINA RESULT:      -5.1      1.539      1.925
REMARK  Name = 5459896
REMARK  9 active torsions:
REMARK  status: ('A' for Active; 'I' for Inactive)
REMARK    1  A    between atoms: C_2  and  O_7
REMARK    2  A    between atoms: C_3  and  O_9
REMARK    3  A    between atoms: C_4  and  C_19
REMARK    4  A    between atoms: C_5  and  O_11
REMARK    5  A    between atoms: C_6  and  O_13
REMARK    6  A    between atoms: O_13  and  C_14
REMARK    7  A    between atoms: C_14  and  N_16
REMARK    8  A    between atoms: N_16  and  N_17
REMARK    9  A    between atoms: C_19  and  O_20
REMARK                            x       y       z     vdW  Elec       q    Type
REMARK                         _______ _______ _______ _____ _____    ______ ____
ROOT
ATOM      1  O   UNL     1     -34.801  23.748   3.999  0.00  0.00    -0.326 OA
ATOM      2  C   UNL     1     -37.360  25.042   4.151  0.00  0.00    +0.172 C 
ATOM      3  C   UNL     1     -37.092  23.862   3.216  0.00  0.00    +0.169 C 
ATOM      4  C   UNL     1     -35.978  22.972   3.772  0.00  0.00    +0.176 C 
ATOM      5  C   UNL     1     -36.062  25.755   4.529  0.00  0.00    +0.196 C 
ATOM      6  C   UNL     1     -34.994  24.760   4.985  0.00  0.00    +0.267 C 
ENDROOT
BRANCH   2   7
ATOM      7  O   UNL     1     -38.224  25.956   3.472  0.00  0.00    -0.379 OA
ATOM      8  H   UNL     1     -38.183  25.791   2.517  0.00  0.00    +0.211 HD
ENDBRANCH   2   7
BRANCH   3   9
ATOM      9  O   UNL     1     -38.283  23.094   3.074  0.00  0.00    -0.379 OA
ATOM     10  H   UNL     1     -38.147  22.213   3.456  0.00  0.00    +0.211 HD
ENDBRANCH   3   9
BRANCH   5  11
ATOM     11  O   UNL     1     -36.315  26.662   5.602  0.00  0.00    -0.378 OA
ATOM     12  H   UNL     1     -36.587  26.165   6.388  0.00  0.00    +0.211 HD
ENDBRANCH   5  11
BRANCH   6  13
ATOM     13  O   UNL     1     -33.778  25.480   5.182  0.00  0.00    -0.309 OA
BRANCH  13  14
ATOM     14  C   UNL     1     -33.541  26.425   4.135  0.00  0.00    +0.255 C 
BRANCH  14  15
ATOM     15  N   UNL     1     -33.481  27.859   4.480  0.00  0.00    -0.087 NA
BRANCH  15  17
ATOM     16  O   UNL     1     -32.510  28.142   6.530  0.00  0.00    -0.101 OA
ATOM     17  N   UNL     1     -32.515  28.155   5.255  0.00  0.00    -0.055 NA
ATOM     18  C   UNL     1     -31.284  28.550   4.557  0.00  0.00    +0.145 C 
ENDBRANCH  15  17
ENDBRANCH  14  15
ENDBRANCH  13  14
ENDBRANCH   6  13
BRANCH   4  19
ATOM     19  C   UNL     1     -35.612  21.853   2.801  0.00  0.00    +0.169 C 
BRANCH  19  20
ATOM     20  O   UNL     1     -35.783  20.612   3.459  0.00  0.00    -0.379 OA
ATOM     21  H   UNL     1     -34.976  20.081   3.364  0.00  0.00    +0.211 HD
ENDBRANCH  19  20
ENDBRANCH   4  19
TORSDOF 9
ENDMDL
MODEL 9
REMARK VINA RESULT:      -5.0      3.972      6.594
REMARK  Name = 5459896
REMARK  9 active torsions:
REMARK  status: ('A' for Active; 'I' for Inactive)
REMARK    1  A    between atoms: C_2  and  O_7
REMARK    2  A    between atoms: C_3  and  O_9
REMARK    3  A    between atoms: C_4  and  C_19
REMARK    4  A    between atoms: C_5  and  O_11
REMARK    5  A    between atoms: C_6  and  O_13
REMARK    6  A    between atoms: O_13  and  C_14
REMARK    7  A    between atoms: C_14  and  N_16
REMARK    8  A    between atoms: N_16  and  N_17
REMARK    9  A    between atoms: C_19  and  O_20
REMARK                            x       y       z     vdW  Elec       q    Type
REMARK                         _______ _______ _______ _____ _____    ______ ____
ROOT
ATOM      1  O   UNL     1     -36.719  24.594   3.153  0.00  0.00    -0.326 OA
ATOM      2  C   UNL     1     -36.245  21.925   4.102  0.00  0.00    +0.172 C 
ATOM      3  C   UNL     1     -35.481  23.135   4.641  0.00  0.00    +0.169 C 
ATOM      4  C   UNL     1     -36.321  24.408   4.512  0.00  0.00    +0.176 C 
ATOM      5  C   UNL     1     -36.820  22.207   2.714  0.00  0.00    +0.196 C 
ATOM      6  C   UNL     1     -37.561  23.544   2.681  0.00  0.00    +0.267 C 
ENDROOT
BRANCH   2   7
ATOM      7  O   UNL     1     -35.334  20.827   4.024  0.00  0.00    -0.379 OA
ATOM      8  H   UNL     1     -34.600  20.971   4.641  0.00  0.00    +0.211 HD
ENDBRANCH   2   7
BRANCH   3   9
ATOM      9  O   UNL     1     -35.163  22.917   6.013  0.00  0.00    -0.379 OA
ATOM     10  H   UNL     1     -35.970  22.686   6.499  0.00  0.00    +0.211 HD
ENDBRANCH   3   9
BRANCH   5  11
ATOM     11  O   UNL     1     -37.743  21.176   2.365  0.00  0.00    -0.378 OA
ATOM     12  H   UNL     1     -37.593  20.403   2.931  0.00  0.00    +0.211 HD
ENDBRANCH   5  11
BRANCH   6  13
ATOM     13  O   UNL     1     -37.942  23.802   1.330  0.00  0.00    -0.309 OA
BRANCH  13  14
ATOM     14  C   UNL     1     -39.314  24.197   1.229  0.00  0.00    +0.255 C 
BRANCH  14  15
ATOM     15  N   UNL     1     -40.344  23.328   1.830  0.00  0.00    -0.087 NA
BRANCH  15  17
ATOM     16  O   UNL     1     -40.376  21.043   1.783  0.00  0.00    -0.101 OA
ATOM     17  N   UNL     1     -40.456  22.199   1.251  0.00  0.00    -0.055 NA
ATOM     18  C   UNL     1     -40.707  22.286  -0.194  0.00  0.00    +0.145 C 
ENDBRANCH  15  17
ENDBRANCH  14  15
ENDBRANCH  13  14
ENDBRANCH   6  13
BRANCH   4  19
ATOM     19  C   UNL     1     -35.538  25.647   4.935  0.00  0.00    +0.169 C 
BRANCH  19  20
ATOM     20  O   UNL     1     -36.457  26.679   5.242  0.00  0.00    -0.379 OA
ATOM     21  H   UNL     1     -37.271  26.549   4.731  0.00  0.00    +0.211 HD
ENDBRANCH  19  20
ENDBRANCH   4  19
TORSDOF 9
ENDMDL
