MODEL 1
REMARK VINA RESULT:      -6.8      0.000      0.000
REMARK  Name = 5311374
REMARK  13 active torsions:
REMARK  status: ('A' for Active; 'I' for Inactive)
REMARK    1  A    between atoms: C_1  and  C_4
REMARK    2  A    between atoms: C_1  and  C_22
REMARK    3  A    between atoms: N_3  and  C_6
REMARK    4  A    between atoms: C_6  and  C_8
REMARK    5  A    between atoms: C_6  and  C_11
REMARK    6  A    between atoms: C_8  and  O_9
REMARK    7  A    between atoms: C_11  and  C_12
REMARK    8  A    between atoms: C_12  and  C_13
REMARK    9  A    between atoms: C_13  and  N_14
REMARK   10  A    between atoms: N_14  and  C_17
REMARK   11  A    between atoms: C_22  and  C_23
REMARK   12  A    between atoms: C_23  and  C_27
REMARK   13  A    between atoms: C_29  and  C_36
REMARK                            x       y       z     vdW  Elec       q    Type
REMARK                         _______ _______ _______ _____ _____    ______ ____
ROOT
ATOM      1  C   UNL     1     -35.525  23.663   5.786  0.00  0.00    +0.085 C 
ENDROOT
BRANCH   1   4
ATOM      2  O   UNL     1     -36.283  25.920   5.348  0.00  0.00    -0.275 OA
ATOM      3  N   UNL     1     -34.023  25.547   5.741  0.00  0.00    -0.297 N 
ATOM      4  C   UNL     1     -35.349  25.159   5.589  0.00  0.00    +0.223 C 
ATOM      5  H   UNL     1     -33.354  24.851   5.934  0.00  0.00    +0.150 HD
BRANCH   3   6
ATOM      6  C   UNL     1     -33.578  26.912   5.631  0.00  0.00    +0.171 C 
BRANCH   6   8
ATOM      7  O   UNL     1     -32.193  26.695   3.663  0.00  0.00    -0.248 OA
ATOM      8  C   UNL     1     -33.128  27.262   4.219  0.00  0.00    +0.335 C 
BRANCH   8   9
ATOM      9  O   UNL     1     -33.877  28.260   3.674  0.00  0.00    -0.443 OA
ATOM     10  C   UNL     1     -34.858  27.850   2.715  0.00  0.00    +0.256 C 
ENDBRANCH   8   9
ENDBRANCH   6   8
BRANCH   6  11
ATOM     11  C   UNL     1     -32.494  27.237   6.667  0.00  0.00    +0.033 C 
BRANCH  11  12
ATOM     12  C   UNL     1     -31.878  28.636   6.505  0.00  0.00    +0.029 C 
BRANCH  12  13
ATOM     13  C   UNL     1     -30.380  28.579   6.225  0.00  0.00    +0.129 C 
BRANCH  13  14
ATOM     14  N   UNL     1     -29.701  29.669   6.926  0.00  0.00    -0.240 NA
BRANCH  14  17
ATOM     15  N   UNL     1     -27.769  30.210   8.248  0.00  0.00    -0.370 N 
ATOM     16  N   UNL     1     -28.205  28.054   7.651  0.00  0.00    -0.370 N 
ATOM     17  C   UNL     1     -28.621  29.362   7.576  0.00  0.00    +0.189 C 
ATOM     18  H   UNL     1     -27.953  31.177   8.271  0.00  0.00    +0.159 HD
ATOM     19  H   UNL     1     -26.974  29.849   8.705  0.00  0.00    +0.159 HD
ATOM     20  H   UNL     1     -28.728  27.345   7.212  0.00  0.00    +0.159 HD
ATOM     21  H   UNL     1     -27.384  27.826   8.145  0.00  0.00    +0.159 HD
ENDBRANCH  14  17
ENDBRANCH  13  14
ENDBRANCH  12  13
ENDBRANCH  11  12
ENDBRANCH   6  11
ENDBRANCH   3   6
ENDBRANCH   1   4
BRANCH   1  22
ATOM     22  C   UNL     1     -34.948  22.823   4.647  0.00  0.00    +0.014 C 
BRANCH  22  23
ATOM     23  C   UNL     1     -35.068  23.524   3.288  0.00  0.00    +0.028 C 
BRANCH  23  27
ATOM     24  F   UNL     1     -40.061  21.746   0.237  0.00  0.00    -0.203 F 
ATOM     25  F   UNL     1     -40.364  25.317   3.344  0.00  0.00    -0.204 F 
ATOM     26  N   UNL     1     -37.157  21.600   0.952  0.00  0.00    -0.352 N 
ATOM     27  C   UNL     1     -36.125  22.904   2.423  0.00  0.00    -0.005 A 
ATOM     28  C   UNL     1     -37.494  23.291   2.369  0.00  0.00    +0.017 A 
ATOM     29  C   UNL     1     -35.949  21.863   1.541  0.00  0.00    +0.053 A 
ATOM     30  C   UNL     1     -38.118  22.457   1.439  0.00  0.00    +0.084 A 
ATOM     31  C   UNL     1     -38.263  24.272   3.024  0.00  0.00    +0.031 C 
ATOM     32  C   UNL     1     -39.480  22.557   1.131  0.00  0.00    +0.158 C 
ATOM     33  C   UNL     1     -39.626  24.384   2.725  0.00  0.00    +0.142 C 
ATOM     34  C   UNL     1     -40.222  23.538   1.794  0.00  0.00    +0.061 C 
ATOM     35  H   UNL     1     -37.315  20.899   0.279  0.00  0.00    +0.166 HD
BRANCH  29  36
ATOM     36  C   UNL     1     -34.766  21.106   1.209  0.00  0.00    +0.015 C 
ATOM     37  C   UNL     1     -34.566  19.843   1.768  0.00  0.00    +0.001 C 
ATOM     38  C   UNL     1     -33.821  21.636   0.329  0.00  0.00    +0.001 C 
ATOM     39  C   UNL     1     -33.422  19.112   1.448  0.00  0.00    +0.000 C 
ATOM     40  C   UNL     1     -32.678  20.904   0.009  0.00  0.00    +0.000 C 
ATOM     41  C   UNL     1     -32.478  19.641   0.569  0.00  0.00    +0.000 C 
ENDBRANCH  29  36
ENDBRANCH  23  27
ENDBRANCH  22  23
ENDBRANCH   1  22
TORSDOF 13
ENDMDL
MODEL 2
REMARK VINA RESULT:      -6.8      2.893      4.399
REMARK  Name = 5311374
REMARK  13 active torsions:
REMARK  status: ('A' for Active; 'I' for Inactive)
REMARK    1  A    between atoms: C_1  and  C_4
REMARK    2  A    between atoms: C_1  and  C_22
REMARK    3  A    between atoms: N_3  and  C_6
REMARK    4  A    between atoms: C_6  and  C_8
REMARK    5  A    between atoms: C_6  and  C_11
REMARK    6  A    between atoms: C_8  and  O_9
REMARK    7  A    between atoms: C_11  and  C_12
REMARK    8  A    between atoms: C_12  and  C_13
REMARK    9  A    between atoms: C_13  and  N_14
REMARK   10  A    between atoms: N_14  and  C_17
REMARK   11  A    between atoms: C_22  and  C_23
REMARK   12  A    between atoms: C_23  and  C_27
REMARK   13  A    between atoms: C_29  and  C_36
REMARK                            x       y       z     vdW  Elec       q    Type
REMARK                         _______ _______ _______ _____ _____    ______ ____
ROOT
ATOM      1  C   UNL     1     -33.981  25.081   0.924  0.00  0.00    +0.085 C 
ENDROOT
BRANCH   1   4
ATOM      2  O   UNL     1     -35.476  26.710   1.910  0.00  0.00    -0.275 OA
ATOM      3  N   UNL     1     -33.494  26.189   3.008  0.00  0.00    -0.297 N 
ATOM      4  C   UNL     1     -34.419  26.087   1.975  0.00  0.00    +0.223 C 
ATOM      5  H   UNL     1     -32.678  25.642   2.957  0.00  0.00    +0.150 HD
BRANCH   3   6
ATOM      6  C   UNL     1     -33.670  27.052   4.147  0.00  0.00    +0.171 C 
BRANCH   6   8
ATOM      7  O   UNL     1     -31.366  27.719   4.440  0.00  0.00    -0.248 OA
ATOM      8  C   UNL     1     -32.536  28.058   4.292  0.00  0.00    +0.335 C 
BRANCH   8   9
ATOM      9  O   UNL     1     -32.980  29.344   4.240  0.00  0.00    -0.443 OA
ATOM     10  C   UNL     1     -33.810  29.672   3.121  0.00  0.00    +0.256 C 
ENDBRANCH   8   9
ENDBRANCH   6   8
BRANCH   6  11
ATOM     11  C   UNL     1     -33.881  26.248   5.437  0.00  0.00    +0.033 C 
BRANCH  11  12
ATOM     12  C   UNL     1     -34.394  24.818   5.201  0.00  0.00    +0.029 C 
BRANCH  12  13
ATOM     13  C   UNL     1     -35.908  24.716   5.348  0.00  0.00    +0.129 C 
BRANCH  13  14
ATOM     14  N   UNL     1     -36.395  23.517   4.662  0.00  0.00    -0.240 NA
BRANCH  14  17
ATOM     15  N   UNL     1     -35.340  21.382   4.347  0.00  0.00    -0.370 N 
ATOM     16  N   UNL     1     -36.024  22.048   6.417  0.00  0.00    -0.370 N 
ATOM     17  C   UNL     1     -35.939  22.378   5.085  0.00  0.00    +0.189 C 
ATOM     18  H   UNL     1     -35.218  21.493   3.376  0.00  0.00    +0.159 HD
ATOM     19  H   UNL     1     -35.036  20.556   4.790  0.00  0.00    +0.159 HD
ATOM     20  H   UNL     1     -36.432  22.676   7.055  0.00  0.00    +0.159 HD
ATOM     21  H   UNL     1     -35.677  21.182   6.732  0.00  0.00    +0.159 HD
ENDBRANCH  14  17
ENDBRANCH  13  14
ENDBRANCH  12  13
ENDBRANCH  11  12
ENDBRANCH   6  11
ENDBRANCH   3   6
ENDBRANCH   1   4
BRANCH   1  22
ATOM     22  C   UNL     1     -34.157  23.626   1.358  0.00  0.00    +0.014 C 
BRANCH  22  23
ATOM     23  C   UNL     1     -34.862  22.781   0.289  0.00  0.00    +0.028 C 
BRANCH  23  27
ATOM     24  F   UNL     1     -40.255  20.956   2.522  0.00  0.00    -0.203 F 
ATOM     25  F   UNL     1     -39.528  25.556   1.625  0.00  0.00    -0.204 F 
ATOM     26  N   UNL     1     -37.458  20.505   1.553  0.00  0.00    -0.352 N 
ATOM     27  C   UNL     1     -36.074  22.082   0.829  0.00  0.00    -0.005 A 
ATOM     28  C   UNL     1     -37.302  22.701   1.196  0.00  0.00    +0.017 A 
ATOM     29  C   UNL     1     -36.201  20.732   1.059  0.00  0.00    +0.053 A 
ATOM     30  C   UNL     1     -38.152  21.689   1.647  0.00  0.00    +0.084 A 
ATOM     31  C   UNL     1     -37.772  24.029   1.189  0.00  0.00    +0.031 C 
ATOM     32  C   UNL     1     -39.455  21.941   2.092  0.00  0.00    +0.158 C 
ATOM     33  C   UNL     1     -39.073  24.295   1.631  0.00  0.00    +0.142 C 
ATOM     34  C   UNL     1     -39.899  23.266   2.075  0.00  0.00    +0.061 C 
ATOM     35  H   UNL     1     -37.813  19.621   1.805  0.00  0.00    +0.166 HD
BRANCH  29  36
ATOM     36  C   UNL     1     -35.261  19.654   0.861  0.00  0.00    +0.015 C 
ATOM     37  C   UNL     1     -34.078  19.616   1.600  0.00  0.00    +0.001 C 
ATOM     38  C   UNL     1     -35.534  18.651  -0.070  0.00  0.00    +0.001 C 
ATOM     39  C   UNL     1     -33.169  18.576   1.408  0.00  0.00    +0.000 C 
ATOM     40  C   UNL     1     -34.624  17.612  -0.262  0.00  0.00    +0.000 C 
ATOM     41  C   UNL     1     -33.441  17.574   0.477  0.00  0.00    +0.000 C 
ENDBRANCH  29  36
ENDBRANCH  23  27
ENDBRANCH  22  23
ENDBRANCH   1  22
TORSDOF 13
ENDMDL
MODEL 3
REMARK VINA RESULT:      -6.8      5.143      7.394
REMARK  Name = 5311374
REMARK  13 active torsions:
REMARK  status: ('A' for Active; 'I' for Inactive)
REMARK    1  A    between atoms: C_1  and  C_4
REMARK    2  A    between atoms: C_1  and  C_22
REMARK    3  A    between atoms: N_3  and  C_6
REMARK    4  A    between atoms: C_6  and  C_8
REMARK    5  A    between atoms: C_6  and  C_11
REMARK    6  A    between atoms: C_8  and  O_9
REMARK    7  A    between atoms: C_11  and  C_12
REMARK    8  A    between atoms: C_12  and  C_13
REMARK    9  A    between atoms: C_13  and  N_14
REMARK   10  A    between atoms: N_14  and  C_17
REMARK   11  A    between atoms: C_22  and  C_23
REMARK   12  A    between atoms: C_23  and  C_27
REMARK   13  A    between atoms: C_29  and  C_36
REMARK                            x       y       z     vdW  Elec       q    Type
REMARK                         _______ _______ _______ _____ _____    ______ ____
ROOT
ATOM      1  C   UNL     1     -36.152  22.938  -1.495  0.00  0.00    +0.085 C 
ENDROOT
BRANCH   1   4
ATOM      2  O   UNL     1     -37.651  21.183  -2.226  0.00  0.00    -0.275 OA
ATOM      3  N   UNL     1     -38.288  22.544  -0.452  0.00  0.00    -0.297 N 
ATOM      4  C   UNL     1     -37.431  22.119  -1.460  0.00  0.00    +0.223 C 
ATOM      5  H   UNL     1     -38.010  23.307   0.104  0.00  0.00    +0.150 HD
BRANCH   3   6
ATOM      6  C   UNL     1     -39.561  21.927  -0.180  0.00  0.00    +0.171 C 
BRANCH   6   8
ATOM      7  O   UNL     1     -40.873  22.987  -1.910  0.00  0.00    -0.248 OA
ATOM      8  C   UNL     1     -40.727  22.745  -0.716  0.00  0.00    +0.335 C 
BRANCH   8   9
ATOM      9  O   UNL     1     -41.561  23.163   0.277  0.00  0.00    -0.443 OA
ATOM     10  C   UNL     1     -41.744  24.579   0.380  0.00  0.00    +0.256 C 
ENDBRANCH   8   9
ENDBRANCH   6   8
BRANCH   6  11
ATOM     11  C   UNL     1     -39.728  21.614   1.313  0.00  0.00    +0.033 C 
BRANCH  11  12
ATOM     12  C   UNL     1     -38.640  22.236   2.204  0.00  0.00    +0.029 C 
BRANCH  12  13
ATOM     13  C   UNL     1     -39.052  23.598   2.753  0.00  0.00    +0.129 C 
BRANCH  13  14
ATOM     14  N   UNL     1     -38.416  24.661   1.975  0.00  0.00    -0.240 NA
BRANCH  14  17
ATOM     15  N   UNL     1     -37.487  26.861   2.236  0.00  0.00    -0.370 N 
ATOM     16  N   UNL     1     -39.227  26.170   3.536  0.00  0.00    -0.370 N 
ATOM     17  C   UNL     1     -38.355  25.833   2.528  0.00  0.00    +0.189 C 
ATOM     18  H   UNL     1     -36.809  26.749   1.531  0.00  0.00    +0.159 HD
ATOM     19  H   UNL     1     -37.543  27.709   2.734  0.00  0.00    +0.159 HD
ATOM     20  H   UNL     1     -39.902  25.522   3.841  0.00  0.00    +0.159 HD
ATOM     21  H   UNL     1     -39.176  27.061   3.953  0.00  0.00    +0.159 HD
ENDBRANCH  14  17
ENDBRANCH  13  14
ENDBRANCH  12  13
ENDBRANCH  11  12
ENDBRANCH   6  11
ENDBRANCH   3   6
ENDBRANCH   1   4
BRANCH   1  22
ATOM     22  C   UNL     1     -35.832  23.632  -0.172  0.00  0.00    +0.014 C 
BRANCH  22  23
ATOM     23  C   UNL     1     -34.614  23.015   0.529  0.00  0.00    +0.028 C 
BRANCH  23  27
ATOM     24  F   UNL     1     -35.959  21.867   6.383  0.00  0.00    -0.203 F 
ATOM     25  F   UNL     1     -35.164  26.332   4.996  0.00  0.00    -0.204 F 
ATOM     26  N   UNL     1     -35.461  21.079   3.538  0.00  0.00    -0.352 N 
ATOM     27  C   UNL     1     -34.958  22.471   1.883  0.00  0.00    -0.005 A 
ATOM     28  C   UNL     1     -35.118  23.234   3.075  0.00  0.00    +0.017 A 
ATOM     29  C   UNL     1     -35.175  21.150   2.200  0.00  0.00    +0.053 A 
ATOM     30  C   UNL     1     -35.432  22.336   4.097  0.00  0.00    +0.084 A 
ATOM     31  C   UNL     1     -35.025  24.606   3.382  0.00  0.00    +0.031 C 
ATOM     32  C   UNL     1     -35.660  22.744   5.417  0.00  0.00    +0.158 C 
ATOM     33  C   UNL     1     -35.250  25.028   4.697  0.00  0.00    +0.142 C 
ATOM     34  C   UNL     1     -35.561  24.110   5.697  0.00  0.00    +0.061 C 
ATOM     35  H   UNL     1     -35.657  20.247   4.028  0.00  0.00    +0.166 HD
BRANCH  29  36
ATOM     36  C   UNL     1     -35.138  19.969   1.371  0.00  0.00    +0.015 C 
ATOM     37  C   UNL     1     -36.286  19.556   0.694  0.00  0.00    +0.001 C 
ATOM     38  C   UNL     1     -33.954  19.241   1.246  0.00  0.00    +0.001 C 
ATOM     39  C   UNL     1     -36.250  18.415  -0.107  0.00  0.00    +0.000 C 
ATOM     40  C   UNL     1     -33.919  18.100   0.445  0.00  0.00    +0.000 C 
ATOM     41  C   UNL     1     -35.067  17.686  -0.232  0.00  0.00    +0.000 C 
ENDBRANCH  29  36
ENDBRANCH  23  27
ENDBRANCH  22  23
ENDBRANCH   1  22
TORSDOF 13
ENDMDL
MODEL 4
REMARK VINA RESULT:      -6.7      3.421      6.210
REMARK  Name = 5311374
REMARK  13 active torsions:
REMARK  status: ('A' for Active; 'I' for Inactive)
REMARK    1  A    between atoms: C_1  and  C_4
REMARK    2  A    between atoms: C_1  and  C_22
REMARK    3  A    between atoms: N_3  and  C_6
REMARK    4  A    between atoms: C_6  and  C_8
REMARK    5  A    between atoms: C_6  and  C_11
REMARK    6  A    between atoms: C_8  and  O_9
REMARK    7  A    between atoms: C_11  and  C_12
REMARK    8  A    between atoms: C_12  and  C_13
REMARK    9  A    between atoms: C_13  and  N_14
REMARK   10  A    between atoms: N_14  and  C_17
REMARK   11  A    between atoms: C_22  and  C_23
REMARK   12  A    between atoms: C_23  and  C_27
REMARK   13  A    between atoms: C_29  and  C_36
REMARK                            x       y       z     vdW  Elec       q    Type
REMARK                         _______ _______ _______ _____ _____    ______ ____
ROOT
ATOM      1  C   UNL     1     -31.746  26.210   1.177  0.00  0.00    +0.085 C 
ENDROOT
BRANCH   1   4
ATOM      2  O   UNL     1     -29.812  26.229   2.633  0.00  0.00    -0.275 OA
ATOM      3  N   UNL     1     -31.548  27.718   3.046  0.00  0.00    -0.297 N 
ATOM      4  C   UNL     1     -30.916  26.691   2.355  0.00  0.00    +0.223 C 
ATOM      5  H   UNL     1     -32.435  28.011   2.736  0.00  0.00    +0.150 HD
BRANCH   3   6
ATOM      6  C   UNL     1     -30.973  28.375   4.191  0.00  0.00    +0.171 C 
BRANCH   6   8
ATOM      7  O   UNL     1     -32.053  29.549   6.006  0.00  0.00    -0.248 OA
ATOM      8  C   UNL     1     -31.970  28.528   5.332  0.00  0.00    +0.335 C 
BRANCH   8   9
ATOM      9  O   UNL     1     -32.731  27.411   5.501  0.00  0.00    -0.443 OA
ATOM     10  C   UNL     1     -32.882  26.959   6.851  0.00  0.00    +0.256 C 
ENDBRANCH   8   9
ENDBRANCH   6   8
BRANCH   6  11
ATOM     11  C   UNL     1     -30.339  29.719   3.811  0.00  0.00    +0.033 C 
BRANCH  11  12
ATOM     12  C   UNL     1     -28.802  29.717   3.854  0.00  0.00    +0.029 C 
BRANCH  12  13
ATOM     13  C   UNL     1     -28.253  28.685   4.834  0.00  0.00    +0.129 C 
BRANCH  13  14
ATOM     14  N   UNL     1     -27.979  29.320   6.123  0.00  0.00    -0.240 NA
BRANCH  14  17
ATOM     15  N   UNL     1     -28.710  29.335   8.412  0.00  0.00    -0.370 N 
ATOM     16  N   UNL     1     -28.976  27.479   7.116  0.00  0.00    -0.370 N 
ATOM     17  C   UNL     1     -28.517  28.774   7.169  0.00  0.00    +0.189 C 
ATOM     18  H   UNL     1     -28.424  30.262   8.584  0.00  0.00    +0.159 HD
ATOM     19  H   UNL     1     -29.133  28.810   9.129  0.00  0.00    +0.159 HD
ATOM     20  H   UNL     1     -28.899  26.962   6.282  0.00  0.00    +0.159 HD
ATOM     21  H   UNL     1     -29.383  27.068   7.914  0.00  0.00    +0.159 HD
ENDBRANCH  14  17
ENDBRANCH  13  14
ENDBRANCH  12  13
ENDBRANCH  11  12
ENDBRANCH   6  11
ENDBRANCH   3   6
ENDBRANCH   1   4
BRANCH   1  22
ATOM     22  C   UNL     1     -32.694  27.272   0.620  0.00  0.00    +0.014 C 
BRANCH  22  23
ATOM     23  C   UNL     1     -34.161  26.825   0.668  0.00  0.00    +0.028 C 
BRANCH  23  27
ATOM     24  F   UNL     1     -36.320  25.793   6.296  0.00  0.00    -0.203 F 
ATOM     25  F   UNL     1     -35.017  22.130   3.580  0.00  0.00    -0.204 F 
ATOM     26  N   UNL     1     -35.523  27.550   4.006  0.00  0.00    -0.352 N 
ATOM     27  C   UNL     1     -34.712  26.846   2.063  0.00  0.00    -0.005 A 
ATOM     28  C   UNL     1     -34.964  25.707   2.879  0.00  0.00    +0.017 A 
ATOM     29  C   UNL     1     -35.066  27.963   2.783  0.00  0.00    +0.053 A 
ATOM     30  C   UNL     1     -35.472  26.177   4.092  0.00  0.00    +0.084 A 
ATOM     31  C   UNL     1     -34.808  24.318   2.702  0.00  0.00    +0.031 C 
ATOM     32  C   UNL     1     -35.833  25.323   5.141  0.00  0.00    +0.158 C 
ATOM     33  C   UNL     1     -35.164  23.453   3.742  0.00  0.00    +0.142 C 
ATOM     34  C   UNL     1     -35.669  23.949   4.941  0.00  0.00    +0.061 C 
ATOM     35  H   UNL     1     -35.843  28.148   4.720  0.00  0.00    +0.166 HD
BRANCH  29  36
ATOM     36  C   UNL     1     -35.013  29.362   2.429  0.00  0.00    +0.015 C 
ATOM     37  C   UNL     1     -34.006  30.176   2.949  0.00  0.00    +0.001 C 
ATOM     38  C   UNL     1     -35.970  29.901   1.568  0.00  0.00    +0.001 C 
ATOM     39  C   UNL     1     -33.955  31.527   2.607  0.00  0.00    +0.000 C 
ATOM     40  C   UNL     1     -35.919  31.252   1.228  0.00  0.00    +0.000 C 
ATOM     41  C   UNL     1     -34.911  32.066   1.747  0.00  0.00    +0.000 C 
ENDBRANCH  29  36
ENDBRANCH  23  27
ENDBRANCH  22  23
ENDBRANCH   1  22
TORSDOF 13
ENDMDL
MODEL 5
REMARK VINA RESULT:      -6.7      2.745      4.641
REMARK  Name = 5311374
REMARK  13 active torsions:
REMARK  status: ('A' for Active; 'I' for Inactive)
REMARK    1  A    between atoms: C_1  and  C_4
REMARK    2  A    between atoms: C_1  and  C_22
REMARK    3  A    between atoms: N_3  and  C_6
REMARK    4  A    between atoms: C_6  and  C_8
REMARK    5  A    between atoms: C_6  and  C_11
REMARK    6  A    between atoms: C_8  and  O_9
REMARK    7  A    between atoms: C_11  and  C_12
REMARK    8  A    between atoms: C_12  and  C_13
REMARK    9  A    between atoms: C_13  and  N_14
REMARK   10  A    between atoms: N_14  and  C_17
REMARK   11  A    between atoms: C_22  and  C_23
REMARK   12  A    between atoms: C_23  and  C_27
REMARK   13  A    between atoms: C_29  and  C_36
REMARK                            x       y       z     vdW  Elec       q    Type
REMARK                         _______ _______ _______ _____ _____    ______ ____
ROOT
ATOM      1  C   UNL     1     -33.469  24.825   1.215  0.00  0.00    +0.085 C 
ENDROOT
BRANCH   1   4
ATOM      2  O   UNL     1     -34.668  26.862   1.738  0.00  0.00    -0.275 OA
ATOM      3  N   UNL     1     -33.294  25.916   3.357  0.00  0.00    -0.297 N 
ATOM      4  C   UNL     1     -33.885  25.987   2.101  0.00  0.00    +0.223 C 
ATOM      5  H   UNL     1     -32.680  25.169   3.540  0.00  0.00    +0.150 HD
BRANCH   3   6
ATOM      6  C   UNL     1     -33.533  26.878   4.402  0.00  0.00    +0.171 C 
BRANCH   6   8
ATOM      7  O   UNL     1     -31.292  27.685   4.003  0.00  0.00    -0.248 OA
ATOM      8  C   UNL     1     -32.344  27.802   4.622  0.00  0.00    +0.335 C 
BRANCH   8   9
ATOM      9  O   UNL     1     -32.595  28.745   5.572  0.00  0.00    -0.443 OA
ATOM     10  C   UNL     1     -31.459  29.194   6.318  0.00  0.00    +0.256 C 
ENDBRANCH   8   9
ENDBRANCH   6   8
BRANCH   6  11
ATOM     11  C   UNL     1     -33.969  26.196   5.706  0.00  0.00    +0.033 C 
BRANCH  11  12
ATOM     12  C   UNL     1     -34.658  24.838   5.497  0.00  0.00    +0.029 C 
BRANCH  12  13
ATOM     13  C   UNL     1     -36.178  24.946   5.553  0.00  0.00    +0.129 C 
BRANCH  13  14
ATOM     14  N   UNL     1     -36.759  24.448   4.306  0.00  0.00    -0.240 NA
BRANCH  14  17
ATOM     15  N   UNL     1     -37.391  26.333   2.956  0.00  0.00    -0.370 N 
ATOM     16  N   UNL     1     -38.973  24.942   3.828  0.00  0.00    -0.370 N 
ATOM     17  C   UNL     1     -37.629  25.213   3.721  0.00  0.00    +0.189 C 
ATOM     18  H   UNL     1     -36.468  26.636   2.800  0.00  0.00    +0.159 HD
ATOM     19  H   UNL     1     -38.145  26.831   2.564  0.00  0.00    +0.159 HD
ATOM     20  H   UNL     1     -39.279  24.166   4.350  0.00  0.00    +0.159 HD
ATOM     21  H   UNL     1     -39.629  25.526   3.383  0.00  0.00    +0.159 HD
ENDBRANCH  14  17
ENDBRANCH  13  14
ENDBRANCH  12  13
ENDBRANCH  11  12
ENDBRANCH   6  11
ENDBRANCH   3   6
ENDBRANCH   1   4
BRANCH   1  22
ATOM     22  C   UNL     1     -34.635  23.938   0.779  0.00  0.00    +0.014 C 
BRANCH  22  23
ATOM     23  C   UNL     1     -34.879  22.777   1.751  0.00  0.00    +0.028 C 
BRANCH  23  27
ATOM     24  F   UNL     1     -39.006  18.947  -0.634  0.00  0.00    -0.203 F 
ATOM     25  F   UNL     1     -40.414  23.148   1.056  0.00  0.00    -0.204 F 
ATOM     26  N   UNL     1     -36.234  19.751   0.161  0.00  0.00    -0.352 N 
ATOM     27  C   UNL     1     -35.675  21.672   1.124  0.00  0.00    -0.005 A 
ATOM     28  C   UNL     1     -37.082  21.675   0.906  0.00  0.00    +0.017 A 
ATOM     29  C   UNL     1     -35.183  20.476   0.655  0.00  0.00    +0.053 A 
ATOM     30  C   UNL     1     -37.406  20.459   0.302  0.00  0.00    +0.084 A 
ATOM     31  C   UNL     1     -38.114  22.599   1.166  0.00  0.00    +0.031 C 
ATOM     32  C   UNL     1     -38.716  20.119  -0.057  0.00  0.00    +0.158 C 
ATOM     33  C   UNL     1     -39.428  22.273   0.812  0.00  0.00    +0.142 C 
ATOM     34  C   UNL     1     -39.722  21.052   0.211  0.00  0.00    +0.061 C 
ATOM     35  H   UNL     1     -36.161  18.853  -0.236  0.00  0.00    +0.166 HD
BRANCH  29  36
ATOM     36  C   UNL     1     -33.833  19.963   0.632  0.00  0.00    +0.015 C 
ATOM     37  C   UNL     1     -33.525  18.781   1.306  0.00  0.00    +0.001 C 
ATOM     38  C   UNL     1     -32.836  20.650  -0.063  0.00  0.00    +0.001 C 
ATOM     39  C   UNL     1     -32.222  18.285   1.284  0.00  0.00    +0.000 C 
ATOM     40  C   UNL     1     -31.533  20.154  -0.083  0.00  0.00    +0.000 C 
ATOM     41  C   UNL     1     -31.225  18.971   0.590  0.00  0.00    +0.000 C 
ENDBRANCH  29  36
ENDBRANCH  23  27
ENDBRANCH  22  23
ENDBRANCH   1  22
TORSDOF 13
ENDMDL
MODEL 6
REMARK VINA RESULT:      -6.7      4.777      7.754
REMARK  Name = 5311374
REMARK  13 active torsions:
REMARK  status: ('A' for Active; 'I' for Inactive)
REMARK    1  A    between atoms: C_1  and  C_4
REMARK    2  A    between atoms: C_1  and  C_22
REMARK    3  A    between atoms: N_3  and  C_6
REMARK    4  A    between atoms: C_6  and  C_8
REMARK    5  A    between atoms: C_6  and  C_11
REMARK    6  A    between atoms: C_8  and  O_9
REMARK    7  A    between atoms: C_11  and  C_12
REMARK    8  A    between atoms: C_12  and  C_13
REMARK    9  A    between atoms: C_13  and  N_14
REMARK   10  A    between atoms: N_14  and  C_17
REMARK   11  A    between atoms: C_22  and  C_23
REMARK   12  A    between atoms: C_23  and  C_27
REMARK   13  A    between atoms: C_29  and  C_36
REMARK                            x       y       z     vdW  Elec       q    Type
REMARK                         _______ _______ _______ _____ _____    ______ ____
ROOT
ATOM      1  C   UNL     1     -36.346  24.574  -0.788  0.00  0.00    +0.085 C 
ENDROOT
BRANCH   1   4
ATOM      2  O   UNL     1     -38.573  25.473  -1.089  0.00  0.00    -0.275 OA
ATOM      3  N   UNL     1     -38.006  24.532   0.958  0.00  0.00    -0.297 N 
ATOM      4  C   UNL     1     -37.758  24.926  -0.351  0.00  0.00    +0.223 C 
ATOM      5  H   UNL     1     -37.277  24.100   1.460  0.00  0.00    +0.150 HD
BRANCH   3   6
ATOM      6  C   UNL     1     -39.272  24.721   1.618  0.00  0.00    +0.171 C 
BRANCH   6   8
ATOM      7  O   UNL     1     -38.371  26.408   3.094  0.00  0.00    -0.248 OA
ATOM      8  C   UNL     1     -39.318  26.013   2.422  0.00  0.00    +0.335 C 
BRANCH   8   9
ATOM      9  O   UNL     1     -40.515  26.651   2.301  0.00  0.00    -0.443 OA
ATOM     10  C   UNL     1     -41.394  26.544   3.426  0.00  0.00    +0.256 C 
ENDBRANCH   8   9
ENDBRANCH   6   8
BRANCH   6  11
ATOM     11  C   UNL     1     -39.648  23.507   2.477  0.00  0.00    +0.033 C 
BRANCH  11  12
ATOM     12  C   UNL     1     -38.815  22.251   2.176  0.00  0.00    +0.029 C 
BRANCH  12  13
ATOM     13  C   UNL     1     -39.547  21.277   1.258  0.00  0.00    +0.129 C 
BRANCH  13  14
ATOM     14  N   UNL     1     -39.343  21.662  -0.139  0.00  0.00    -0.240 NA
BRANCH  14  17
ATOM     15  N   UNL     1     -40.378  23.006  -1.841  0.00  0.00    -0.370 N 
ATOM     16  N   UNL     1     -41.645  21.798  -0.381  0.00  0.00    -0.370 N 
ATOM     17  C   UNL     1     -40.371  22.143  -0.768  0.00  0.00    +0.189 C 
ATOM     18  H   UNL     1     -39.528  23.331  -2.217  0.00  0.00    +0.159 HD
ATOM     19  H   UNL     1     -41.233  23.300  -2.231  0.00  0.00    +0.159 HD
ATOM     20  H   UNL     1     -41.780  21.184   0.376  0.00  0.00    +0.159 HD
ATOM     21  H   UNL     1     -42.422  22.166  -0.861  0.00  0.00    +0.159 HD
ENDBRANCH  14  17
ENDBRANCH  13  14
ENDBRANCH  12  13
ENDBRANCH  11  12
ENDBRANCH   6  11
ENDBRANCH   3   6
ENDBRANCH   1   4
BRANCH   1  22
ATOM     22  C   UNL     1     -35.944  23.136  -0.464  0.00  0.00    +0.014 C 
BRANCH  22  23
ATOM     23  C   UNL     1     -34.701  23.067   0.435  0.00  0.00    +0.028 C 
BRANCH  23  27
ATOM     24  F   UNL     1     -36.006  22.028   6.318  0.00  0.00    -0.203 F 
ATOM     25  F   UNL     1     -35.430  26.484   4.800  0.00  0.00    -0.204 F 
ATOM     26  N   UNL     1     -35.460  21.182   3.498  0.00  0.00    -0.352 N 
ATOM     27  C   UNL     1     -35.022  22.547   1.804  0.00  0.00    -0.005 A 
ATOM     28  C   UNL     1     -35.224  23.336   2.972  0.00  0.00    +0.017 A 
ATOM     29  C   UNL     1     -35.174  21.227   2.160  0.00  0.00    +0.053 A 
ATOM     30  C   UNL     1     -35.496  22.455   4.019  0.00  0.00    +0.084 A 
ATOM     31  C   UNL     1     -35.200  24.720   3.238  0.00  0.00    +0.031 C 
ATOM     32  C   UNL     1     -35.748  22.890   5.326  0.00  0.00    +0.158 C 
ATOM     33  C   UNL     1     -35.450  25.169   4.539  0.00  0.00    +0.142 C 
ATOM     34  C   UNL     1     -35.719  24.266   5.566  0.00  0.00    +0.061 C 
ATOM     35  H   UNL     1     -35.616  20.356   4.013  0.00  0.00    +0.166 HD
BRANCH  29  36
ATOM     36  C   UNL     1     -35.075  20.025   1.366  0.00  0.00    +0.015 C 
ATOM     37  C   UNL     1     -36.177  19.580   0.635  0.00  0.00    +0.001 C 
ATOM     38  C   UNL     1     -33.879  19.308   1.331  0.00  0.00    +0.001 C 
ATOM     39  C   UNL     1     -36.082  18.419  -0.132  0.00  0.00    +0.000 C 
ATOM     40  C   UNL     1     -33.784  18.147   0.564  0.00  0.00    +0.000 C 
ATOM     41  C   UNL     1     -34.886  17.702  -0.167  0.00  0.00    +0.000 C 
ENDBRANCH  29  36
ENDBRANCH  23  27
ENDBRANCH  22  23
ENDBRANCH   1  22
TORSDOF 13
ENDMDL
MODEL 7
REMARK VINA RESULT:      -6.7      4.836      7.613
REMARK  Name = 5311374
REMARK  13 active torsions:
REMARK  status: ('A' for Active; 'I' for Inactive)
REMARK    1  A    between atoms: C_1  and  C_4
REMARK    2  A    between atoms: C_1  and  C_22
REMARK    3  A    between atoms: N_3  and  C_6
REMARK    4  A    between atoms: C_6  and  C_8
REMARK    5  A    between atoms: C_6  and  C_11
REMARK    6  A    between atoms: C_8  and  O_9
REMARK    7  A    between atoms: C_11  and  C_12
REMARK    8  A    between atoms: C_12  and  C_13
REMARK    9  A    between atoms: C_13  and  N_14
REMARK   10  A    between atoms: N_14  and  C_17
REMARK   11  A    between atoms: C_22  and  C_23
REMARK   12  A    between atoms: C_23  and  C_27
REMARK   13  A    between atoms: C_29  and  C_36
REMARK                            x       y       z     vdW  Elec       q    Type
REMARK                         _______ _______ _______ _____ _____    ______ ____
ROOT
ATOM      1  C   UNL     1     -37.012  24.145   0.376  0.00  0.00    +0.085 C 
ENDROOT
BRANCH   1   4
ATOM      2  O   UNL     1     -38.298  22.797   1.921  0.00  0.00    -0.275 OA
ATOM      3  N   UNL     1     -39.370  23.737   0.085  0.00  0.00    -0.297 N 
ATOM      4  C   UNL     1     -38.271  23.472   0.895  0.00  0.00    +0.223 C 
ATOM      5  H   UNL     1     -39.234  24.292  -0.716  0.00  0.00    +0.150 HD
BRANCH   3   6
ATOM      6  C   UNL     1     -40.695  23.242   0.358  0.00  0.00    +0.171 C 
BRANCH   6   8
ATOM      7  O   UNL     1     -41.936  22.139  -1.396  0.00  0.00    -0.248 OA
ATOM      8  C   UNL     1     -41.068  22.066  -0.533  0.00  0.00    +0.335 C 
BRANCH   8   9
ATOM      9  O   UNL     1     -40.334  20.954  -0.250  0.00  0.00    -0.443 OA
ATOM     10  C   UNL     1     -39.689  20.332  -1.366  0.00  0.00    +0.256 C 
ENDBRANCH   8   9
ENDBRANCH   6   8
BRANCH   6  11
ATOM     11  C   UNL     1     -41.741  24.362   0.285  0.00  0.00    +0.033 C 
BRANCH  11  12
ATOM     12  C   UNL     1     -41.137  25.776   0.262  0.00  0.00    +0.029 C 
BRANCH  12  13
ATOM     13  C   UNL     1     -41.056  26.393   1.654  0.00  0.00    +0.129 C 
BRANCH  13  14
ATOM     14  N   UNL     1     -39.655  26.563   2.042  0.00  0.00    -0.240 NA
BRANCH  14  17
ATOM     15  N   UNL     1     -39.911  24.897   3.754  0.00  0.00    -0.370 N 
ATOM     16  N   UNL     1     -38.041  26.198   3.665  0.00  0.00    -0.370 N 
ATOM     17  C   UNL     1     -39.255  25.909   3.088  0.00  0.00    +0.189 C 
ATOM     18  H   UNL     1     -40.794  24.593   3.442  0.00  0.00    +0.159 HD
ATOM     19  H   UNL     1     -39.497  24.478   4.544  0.00  0.00    +0.159 HD
ATOM     20  H   UNL     1     -37.470  26.904   3.284  0.00  0.00    +0.159 HD
ATOM     21  H   UNL     1     -37.743  25.699   4.460  0.00  0.00    +0.159 HD
ENDBRANCH  14  17
ENDBRANCH  13  14
ENDBRANCH  12  13
ENDBRANCH  11  12
ENDBRANCH   6  11
ENDBRANCH   3   6
ENDBRANCH   1   4
BRANCH   1  22
ATOM     22  C   UNL     1     -35.977  23.166  -0.177  0.00  0.00    +0.014 C 
BRANCH  22  23
ATOM     23  C   UNL     1     -34.728  23.078   0.709  0.00  0.00    +0.028 C 
BRANCH  23  27
ATOM     24  F   UNL     1     -35.815  21.657   6.556  0.00  0.00    -0.203 F 
ATOM     25  F   UNL     1     -34.869  26.152   5.377  0.00  0.00    -0.204 F 
ATOM     26  N   UNL     1     -35.510  21.013   3.648  0.00  0.00    -0.352 N 
ATOM     27  C   UNL     1     -35.026  22.473   2.048  0.00  0.00    -0.005 A 
ATOM     28  C   UNL     1     -35.083  23.173   3.287  0.00  0.00    +0.017 A 
ATOM     29  C   UNL     1     -35.293  21.148   2.303  0.00  0.00    +0.053 A 
ATOM     30  C   UNL     1     -35.388  22.233   4.274  0.00  0.00    +0.084 A 
ATOM     31  C   UNL     1     -34.904  24.518   3.664  0.00  0.00    +0.031 C 
ATOM     32  C   UNL     1     -35.524  22.574   5.625  0.00  0.00    +0.158 C 
ATOM     33  C   UNL     1     -35.037  24.873   5.011  0.00  0.00    +0.142 C 
ATOM     34  C   UNL     1     -35.341  23.914   5.974  0.00  0.00    +0.061 C 
ATOM     35  H   UNL     1     -35.722  20.165   4.102  0.00  0.00    +0.166 HD
BRANCH  29  36
ATOM     36  C   UNL     1     -35.360  20.017   1.409  0.00  0.00    +0.015 C 
ATOM     37  C   UNL     1     -36.579  19.650   0.838  0.00  0.00    +0.001 C 
ATOM     38  C   UNL     1     -34.205  19.289   1.115  0.00  0.00    +0.001 C 
ATOM     39  C   UNL     1     -36.644  18.557  -0.026  0.00  0.00    +0.000 C 
ATOM     40  C   UNL     1     -34.271  18.196   0.252  0.00  0.00    +0.000 C 
ATOM     41  C   UNL     1     -35.491  17.830  -0.319  0.00  0.00    +0.000 C 
ENDBRANCH  29  36
ENDBRANCH  23  27
ENDBRANCH  22  23
ENDBRANCH   1  22
TORSDOF 13
ENDMDL
MODEL 8
REMARK VINA RESULT:      -6.7      3.691      6.480
REMARK  Name = 5311374
REMARK  13 active torsions:
REMARK  status: ('A' for Active; 'I' for Inactive)
REMARK    1  A    between atoms: C_1  and  C_4
REMARK    2  A    between atoms: C_1  and  C_22
REMARK    3  A    between atoms: N_3  and  C_6
REMARK    4  A    between atoms: C_6  and  C_8
REMARK    5  A    between atoms: C_6  and  C_11
REMARK    6  A    between atoms: C_8  and  O_9
REMARK    7  A    between atoms: C_11  and  C_12
REMARK    8  A    between atoms: C_12  and  C_13
REMARK    9  A    between atoms: C_13  and  N_14
REMARK   10  A    between atoms: N_14  and  C_17
REMARK   11  A    between atoms: C_22  and  C_23
REMARK   12  A    between atoms: C_23  and  C_27
REMARK   13  A    between atoms: C_29  and  C_36
REMARK                            x       y       z     vdW  Elec       q    Type
REMARK                         _______ _______ _______ _____ _____    ______ ____
ROOT
ATOM      1  C   UNL     1     -33.642  24.738   1.047  0.00  0.00    +0.085 C 
ENDROOT
BRANCH   1   4
ATOM      2  O   UNL     1     -34.746  26.834   1.547  0.00  0.00    -0.275 OA
ATOM      3  N   UNL     1     -33.509  25.786   3.213  0.00  0.00    -0.297 N 
ATOM      4  C   UNL     1     -34.033  25.910   1.932  0.00  0.00    +0.223 C 
ATOM      5  H   UNL     1     -32.948  25.002   3.413  0.00  0.00    +0.150 HD
BRANCH   3   6
ATOM      6  C   UNL     1     -33.743  26.745   4.262  0.00  0.00    +0.171 C 
BRANCH   6   8
ATOM      7  O   UNL     1     -31.499  27.546   3.863  0.00  0.00    -0.248 OA
ATOM      8  C   UNL     1     -32.523  27.614   4.534  0.00  0.00    +0.335 C 
BRANCH   8   9
ATOM      9  O   UNL     1     -32.714  28.450   5.593  0.00  0.00    -0.443 OA
ATOM     10  C   UNL     1     -31.526  28.891   6.260  0.00  0.00    +0.256 C 
ENDBRANCH   8   9
ENDBRANCH   6   8
BRANCH   6  11
ATOM     11  C   UNL     1     -34.252  26.068   5.541  0.00  0.00    +0.033 C 
BRANCH  11  12
ATOM     12  C   UNL     1     -34.508  24.560   5.387  0.00  0.00    +0.029 C 
BRANCH  12  13
ATOM     13  C   UNL     1     -35.996  24.226   5.353  0.00  0.00    +0.129 C 
BRANCH  13  14
ATOM     14  N   UNL     1     -36.488  24.290   3.976  0.00  0.00    -0.240 NA
BRANCH  14  17
ATOM     15  N   UNL     1     -37.250  26.457   3.275  0.00  0.00    -0.370 N 
ATOM     16  N   UNL     1     -38.737  24.848   3.907  0.00  0.00    -0.370 N 
ATOM     17  C   UNL     1     -37.411  25.166   3.726  0.00  0.00    +0.189 C 
ATOM     18  H   UNL     1     -36.348  26.811   3.105  0.00  0.00    +0.159 HD
ATOM     19  H   UNL     1     -38.039  27.028   3.124  0.00  0.00    +0.159 HD
ATOM     20  H   UNL     1     -38.989  23.952   4.227  0.00  0.00    +0.159 HD
ATOM     21  H   UNL     1     -39.433  25.518   3.716  0.00  0.00    +0.159 HD
ENDBRANCH  14  17
ENDBRANCH  13  14
ENDBRANCH  12  13
ENDBRANCH  11  12
ENDBRANCH   6  11
ENDBRANCH   3   6
ENDBRANCH   1   4
BRANCH   1  22
ATOM     22  C   UNL     1     -34.451  23.470   1.316  0.00  0.00    +0.014 C 
BRANCH  22  23
ATOM     23  C   UNL     1     -34.665  22.635   0.047  0.00  0.00    +0.028 C 
BRANCH  23  27
ATOM     24  F   UNL     1     -33.491  16.714   1.022  0.00  0.00    -0.203 F 
ATOM     25  F   UNL     1     -29.932  19.661  -0.043  0.00  0.00    -0.204 F 
ATOM     26  N   UNL     1     -35.294  19.096   0.818  0.00  0.00    -0.352 N 
ATOM     27  C   UNL     1     -34.649  21.162   0.329  0.00  0.00    -0.005 A 
ATOM     28  C   UNL     1     -33.497  20.325   0.329  0.00  0.00    +0.017 A 
ATOM     29  C   UNL     1     -35.737  20.378   0.633  0.00  0.00    +0.053 A 
ATOM     30  C   UNL     1     -33.931  19.034   0.638  0.00  0.00    +0.084 A 
ATOM     31  C   UNL     1     -32.125  20.542   0.094  0.00  0.00    +0.031 C 
ATOM     32  C   UNL     1     -33.055  17.945   0.725  0.00  0.00    +0.158 C 
ATOM     33  C   UNL     1     -31.239  19.462   0.178  0.00  0.00    +0.142 C 
ATOM     34  C   UNL     1     -31.699  18.185   0.488  0.00  0.00    +0.061 C 
ATOM     35  H   UNL     1     -35.868  18.329   1.046  0.00  0.00    +0.166 HD
BRANCH  29  36
ATOM     36  C   UNL     1     -37.133  20.722   0.763  0.00  0.00    +0.015 C 
ATOM     37  C   UNL     1     -37.583  21.393   1.900  0.00  0.00    +0.001 C 
ATOM     38  C   UNL     1     -38.033  20.383  -0.249  0.00  0.00    +0.001 C 
ATOM     39  C   UNL     1     -38.932  21.725   2.025  0.00  0.00    +0.000 C 
ATOM     40  C   UNL     1     -39.381  20.715  -0.123  0.00  0.00    +0.000 C 
ATOM     41  C   UNL     1     -39.831  21.386   1.015  0.00  0.00    +0.000 C 
ENDBRANCH  29  36
ENDBRANCH  23  27
ENDBRANCH  22  23
ENDBRANCH   1  22
TORSDOF 13
ENDMDL
MODEL 9
REMARK VINA RESULT:      -6.6      1.909      2.424
REMARK  Name = 5311374
REMARK  13 active torsions:
REMARK  status: ('A' for Active; 'I' for Inactive)
REMARK    1  A    between atoms: C_1  and  C_4
REMARK    2  A    between atoms: C_1  and  C_22
REMARK    3  A    between atoms: N_3  and  C_6
REMARK    4  A    between atoms: C_6  and  C_8
REMARK    5  A    between atoms: C_6  and  C_11
REMARK    6  A    between atoms: C_8  and  O_9
REMARK    7  A    between atoms: C_11  and  C_12
REMARK    8  A    between atoms: C_12  and  C_13
REMARK    9  A    between atoms: C_13  and  N_14
REMARK   10  A    between atoms: N_14  and  C_17
REMARK   11  A    between atoms: C_22  and  C_23
REMARK   12  A    between atoms: C_23  and  C_27
REMARK   13  A    between atoms: C_29  and  C_36
REMARK                            x       y       z     vdW  Elec       q    Type
REMARK                         _______ _______ _______ _____ _____    ______ ____
ROOT
ATOM      1  C   UNL     1     -35.257  24.201   5.518  0.00  0.00    +0.085 C 
ENDROOT
BRANCH   1   4
ATOM      2  O   UNL     1     -35.080  26.615   5.508  0.00  0.00    -0.275 OA
ATOM      3  N   UNL     1     -34.599  25.441   3.560  0.00  0.00    -0.297 N 
ATOM      4  C   UNL     1     -34.985  25.557   4.890  0.00  0.00    +0.223 C 
ATOM      5  H   UNL     1     -34.557  24.541   3.164  0.00  0.00    +0.150 HD
BRANCH   3   6
ATOM      6  C   UNL     1     -34.258  26.569   2.732  0.00  0.00    +0.171 C 
BRANCH   6   8
ATOM      7  O   UNL     1     -34.054  25.355   0.653  0.00  0.00    -0.248 OA
ATOM      8  C   UNL     1     -34.533  26.308   1.257  0.00  0.00    +0.335 C 
BRANCH   8   9
ATOM      9  O   UNL     1     -35.355  27.249   0.714  0.00  0.00    -0.443 OA
ATOM     10  C   UNL     1     -36.179  27.965   1.640  0.00  0.00    +0.256 C 
ENDBRANCH   8   9
ENDBRANCH   6   8
BRANCH   6  11
ATOM     11  C   UNL     1     -32.811  27.023   2.966  0.00  0.00    +0.033 C 
BRANCH  11  12
ATOM     12  C   UNL     1     -32.634  28.549   2.988  0.00  0.00    +0.029 C 
BRANCH  12  13
ATOM     13  C   UNL     1     -32.207  29.062   4.360  0.00  0.00    +0.129 C 
BRANCH  13  14
ATOM     14  N   UNL     1     -31.757  27.944   5.191  0.00  0.00    -0.240 NA
BRANCH  14  17
ATOM     15  N   UNL     1     -32.673  27.118   7.252  0.00  0.00    -0.370 N 
ATOM     16  N   UNL     1     -31.581  29.118   7.182  0.00  0.00    -0.370 N 
ATOM     17  C   UNL     1     -32.004  28.026   6.462  0.00  0.00    +0.189 C 
ATOM     18  H   UNL     1     -33.029  26.289   6.858  0.00  0.00    +0.159 HD
ATOM     19  H   UNL     1     -32.796  27.299   8.213  0.00  0.00    +0.159 HD
ATOM     20  H   UNL     1     -31.088  29.842   6.734  0.00  0.00    +0.159 HD
ATOM     21  H   UNL     1     -31.772  29.175   8.146  0.00  0.00    +0.159 HD
ENDBRANCH  14  17
ENDBRANCH  13  14
ENDBRANCH  12  13
ENDBRANCH  11  12
ENDBRANCH   6  11
ENDBRANCH   3   6
ENDBRANCH   1   4
BRANCH   1  22
ATOM     22  C   UNL     1     -34.779  23.024   4.668  0.00  0.00    +0.014 C 
BRANCH  22  23
ATOM     23  C   UNL     1     -35.944  22.246   4.043  0.00  0.00    +0.028 C 
BRANCH  23  27
ATOM     24  F   UNL     1     -38.126  24.968  -0.979  0.00  0.00    -0.203 F 
ATOM     25  F   UNL     1     -39.887  26.133   3.268  0.00  0.00    -0.204 F 
ATOM     26  N   UNL     1     -36.333  23.066   0.480  0.00  0.00    -0.352 N 
ATOM     27  C   UNL     1     -36.297  22.756   2.678  0.00  0.00    -0.005 A 
ATOM     28  C   UNL     1     -37.283  23.740   2.383  0.00  0.00    +0.017 A 
ATOM     29  C   UNL     1     -35.731  22.361   1.488  0.00  0.00    +0.053 A 
ATOM     30  C   UNL     1     -37.285  23.915   0.998  0.00  0.00    +0.084 A 
ATOM     31  C   UNL     1     -38.176  24.500   3.164  0.00  0.00    +0.031 C 
ATOM     32  C   UNL     1     -38.139  24.817   0.352  0.00  0.00    +0.158 C 
ATOM     33  C   UNL     1     -39.035  25.406   2.531  0.00  0.00    +0.142 C 
ATOM     34  C   UNL     1     -39.016  25.559   1.147  0.00  0.00    +0.061 C 
ATOM     35  H   UNL     1     -36.116  22.977  -0.476  0.00  0.00    +0.166 HD
BRANCH  29  36
ATOM     36  C   UNL     1     -34.691  21.396   1.220  0.00  0.00    +0.015 C 
ATOM     37  C   UNL     1     -34.748  20.130   1.804  0.00  0.00    +0.001 C 
ATOM     38  C   UNL     1     -33.630  21.728   0.377  0.00  0.00    +0.001 C 
ATOM     39  C   UNL     1     -33.744  19.197   1.546  0.00  0.00    +0.000 C 
ATOM     40  C   UNL     1     -32.626  20.795   0.119  0.00  0.00    +0.000 C 
ATOM     41  C   UNL     1     -32.683  19.529   0.704  0.00  0.00    +0.000 C 
ENDBRANCH  29  36
ENDBRANCH  23  27
ENDBRANCH  22  23
ENDBRANCH   1  22
TORSDOF 13
ENDMDL
