MODEL 1
REMARK VINA RESULT:      -6.3      0.000      0.000
REMARK  Name = 56641420
REMARK  7 active torsions:
REMARK  status: ('A' for Active; 'I' for Inactive)
REMARK    1  A    between atoms: C_3  and  C_12
REMARK    2  A    between atoms: C_3  and  O_29
REMARK    3  A    between atoms: C_5  and  C_32
REMARK    4  A    between atoms: C_6  and  C_26
REMARK    5  A    between atoms: C_18  and  O_24
REMARK    6  A    between atoms: C_32  and  C_33
REMARK    7  A    between atoms: C_33  and  C_35
REMARK                            x       y       z     vdW  Elec       q    Type
REMARK                         _______ _______ _______ _____ _____    ______ ____
ROOT
ATOM      1  O   UNL     1     -34.285  24.823   2.243  0.00  0.00    -0.446 OA
ATOM      2  O   UNL     1     -33.383  25.168   0.137  0.00  0.00    -0.250 OA
ATOM      3  C   UNL     1     -35.148  26.951   2.547  0.00  0.00    +0.147 C 
ATOM      4  C   UNL     1     -33.878  27.033   1.679  0.00  0.00    +0.117 C 
ATOM      5  C   UNL     1     -34.569  25.753   3.310  0.00  0.00    +0.212 C 
ATOM      6  C   UNL     1     -33.186  26.217   3.849  0.00  0.00    +0.065 C 
ATOM      7  C   UNL     1     -32.730  27.170   2.710  0.00  0.00    +0.021 C 
ATOM      8  C   UNL     1     -33.799  25.591   1.200  0.00  0.00    +0.319 C 
ATOM      9  C   UNL     1     -33.856  28.066   0.577  0.00  0.00    +0.014 C 
ENDROOT
BRANCH   3  12
ATOM     10  O   UNL     1     -37.464  27.414  -0.193  0.00  0.00    -0.456 OA
ATOM     11  O   UNL     1     -36.716  29.079   1.213  0.00  0.00    -0.250 OA
ATOM     12  C   UNL     1     -36.457  26.714   1.808  0.00  0.00    +0.119 C 
ATOM     13  C   UNL     1     -38.973  26.224   2.051  0.00  0.00    +0.029 C 
ATOM     14  C   UNL     1     -37.546  25.971  -0.100  0.00  0.00    +0.137 C 
ATOM     15  C   UNL     1     -38.864  25.626   0.625  0.00  0.00    +0.039 C 
ATOM     16  C   UNL     1     -37.604  26.335   2.763  0.00  0.00    +0.016 C 
ATOM     17  C   UNL     1     -36.319  25.647   0.731  0.00  0.00    +0.053 C 
ATOM     18  C   UNL     1     -40.031  25.340   2.773  0.00  0.00    +0.088 C 
ATOM     19  C   UNL     1     -36.862  27.897   0.948  0.00  0.00    +0.318 C 
ATOM     20  C   UNL     1     -39.148  24.144   0.847  0.00  0.00    +0.006 C 
ATOM     21  C   UNL     1     -40.327  24.171   1.815  0.00  0.00    +0.027 C 
ATOM     22  C   UNL     1     -37.472  25.381  -1.501  0.00  0.00    +0.044 C 
ATOM     23  C   UNL     1     -41.308  26.116   3.095  0.00  0.00    +0.029 C 
BRANCH  18  24
ATOM     24  O   UNL     1     -39.537  24.796   3.994  0.00  0.00    -0.387 OA
ATOM     25  H   UNL     1     -38.573  24.702   3.940  0.00  0.00    +0.210 HD
ENDBRANCH  18  24
ENDBRANCH   3  12
BRANCH   6  26
ATOM     26  C   UNL     1     -33.190  26.896   5.183  0.00  0.00    -0.040 C 
ATOM     27  C   UNL     1     -32.586  28.269   5.227  0.00  0.00    +0.026 C 
ATOM     28  C   UNL     1     -33.701  26.311   6.276  0.00  0.00    -0.009 C 
ENDBRANCH   6  26
BRANCH   3  29
ATOM     29  O   UNL     1     -35.298  28.088   3.388  0.00  0.00    -0.382 OA
ATOM     30  H   UNL     1     -35.683  28.819   2.878  0.00  0.00    +0.210 HD
ENDBRANCH   3  29
BRANCH   5  32
ATOM     31  O   UNL     1     -36.193  25.747   5.043  0.00  0.00    -0.292 OA
ATOM     32  C   UNL     1     -35.465  25.086   4.302  0.00  0.00    +0.189 C 
BRANCH  32  33
ATOM     33  C   UNL     1     -35.457  23.560   4.316  0.00  0.00    +0.061 C 
ATOM     34  C   UNL     1     -35.378  23.089   5.765  0.00  0.00    +0.008 C 
BRANCH  33  35
ATOM     35  C   UNL     1     -36.697  22.974   3.623  0.00  0.00    +0.007 C 
ATOM     36  C   UNL     1     -36.342  22.123   2.411  0.00  0.00    +0.000 C 
ENDBRANCH  33  35
ENDBRANCH  32  33
ENDBRANCH   5  32
TORSDOF 7
ENDMDL
MODEL 2
REMARK VINA RESULT:      -6.2      1.678      3.209
REMARK  Name = 56641420
REMARK  7 active torsions:
REMARK  status: ('A' for Active; 'I' for Inactive)
REMARK    1  A    between atoms: C_3  and  C_12
REMARK    2  A    between atoms: C_3  and  O_29
REMARK    3  A    between atoms: C_5  and  C_32
REMARK    4  A    between atoms: C_6  and  C_26
REMARK    5  A    between atoms: C_18  and  O_24
REMARK    6  A    between atoms: C_32  and  C_33
REMARK    7  A    between atoms: C_33  and  C_35
REMARK                            x       y       z     vdW  Elec       q    Type
REMARK                         _______ _______ _______ _____ _____    ______ ____
ROOT
ATOM      1  O   UNL     1     -34.909  24.090   1.532  0.00  0.00    -0.446 OA
ATOM      2  O   UNL     1     -33.560  25.478   0.259  0.00  0.00    -0.250 OA
ATOM      3  C   UNL     1     -36.138  25.752   2.577  0.00  0.00    +0.147 C 
ATOM      4  C   UNL     1     -34.715  26.271   2.292  0.00  0.00    +0.117 C 
ATOM      5  C   UNL     1     -35.597  24.331   2.778  0.00  0.00    +0.212 C 
ATOM      6  C   UNL     1     -34.489  24.444   3.862  0.00  0.00    +0.065 C 
ATOM      7  C   UNL     1     -33.907  25.850   3.544  0.00  0.00    +0.021 C 
ATOM      8  C   UNL     1     -34.295  25.287   1.209  0.00  0.00    +0.319 C 
ATOM      9  C   UNL     1     -34.571  27.726   1.914  0.00  0.00    +0.014 C 
ENDROOT
BRANCH   3  12
ATOM     10  O   UNL     1     -39.151  27.132   1.128  0.00  0.00    -0.456 OA
ATOM     11  O   UNL     1     -39.069  25.791   2.999  0.00  0.00    -0.250 OA
ATOM     12  C   UNL     1     -37.160  25.936   1.465  0.00  0.00    +0.119 C 
ATOM     13  C   UNL     1     -38.343  24.828  -0.535  0.00  0.00    +0.029 C 
ATOM     14  C   UNL     1     -38.263  27.363   0.007  0.00  0.00    +0.137 C 
ATOM     15  C   UNL     1     -38.554  26.275  -1.048  0.00  0.00    +0.039 C 
ATOM     16  C   UNL     1     -37.217  24.722   0.520  0.00  0.00    +0.016 C 
ATOM     17  C   UNL     1     -36.901  27.199   0.656  0.00  0.00    +0.053 C 
ATOM     18  C   UNL     1     -38.136  23.976  -1.822  0.00  0.00    +0.088 C 
ATOM     19  C   UNL     1     -38.547  26.250   1.996  0.00  0.00    +0.318 C 
ATOM     20  C   UNL     1     -37.711  26.320  -2.319  0.00  0.00    +0.006 C 
ATOM     21  C   UNL     1     -38.034  24.985  -2.982  0.00  0.00    +0.027 C 
ATOM     22  C   UNL     1     -38.490  28.773  -0.521  0.00  0.00    +0.044 C 
ATOM     23  C   UNL     1     -39.283  22.993  -2.054  0.00  0.00    +0.029 C 
BRANCH  18  24
ATOM     24  O   UNL     1     -36.925  23.226  -1.782  0.00  0.00    -0.387 OA
ATOM     25  H   UNL     1     -36.717  22.899  -2.671  0.00  0.00    +0.210 HD
ENDBRANCH  18  24
ENDBRANCH   3  12
BRANCH   6  26
ATOM     26  C   UNL     1     -34.939  24.331   5.285  0.00  0.00    -0.040 C 
ATOM     27  C   UNL     1     -34.958  22.947   5.865  0.00  0.00    +0.026 C 
ATOM     28  C   UNL     1     -35.307  25.405   6.000  0.00  0.00    -0.009 C 
ENDBRANCH   6  26
BRANCH   3  29
ATOM     29  O   UNL     1     -36.673  26.287   3.782  0.00  0.00    -0.382 OA
ATOM     30  H   UNL     1     -37.143  27.113   3.589  0.00  0.00    +0.210 HD
ENDBRANCH   3  29
BRANCH   5  32
ATOM     31  O   UNL     1     -37.557  23.406   3.750  0.00  0.00    -0.292 OA
ATOM     32  C   UNL     1     -36.604  23.247   2.987  0.00  0.00    +0.189 C 
BRANCH  32  33
ATOM     33  C   UNL     1     -36.411  21.966   2.179  0.00  0.00    +0.061 C 
ATOM     34  C   UNL     1     -35.562  21.000   3.000  0.00  0.00    +0.008 C 
BRANCH  33  35
ATOM     35  C   UNL     1     -37.752  21.321   1.798  0.00  0.00    +0.007 C 
ATOM     36  C   UNL     1     -37.704  20.629   0.442  0.00  0.00    +0.000 C 
ENDBRANCH  33  35
ENDBRANCH  32  33
ENDBRANCH   5  32
TORSDOF 7
ENDMDL
MODEL 3
REMARK VINA RESULT:      -6.2      1.511      2.295
REMARK  Name = 56641420
REMARK  7 active torsions:
REMARK  status: ('A' for Active; 'I' for Inactive)
REMARK    1  A    between atoms: C_3  and  C_12
REMARK    2  A    between atoms: C_3  and  O_29
REMARK    3  A    between atoms: C_5  and  C_32
REMARK    4  A    between atoms: C_6  and  C_26
REMARK    5  A    between atoms: C_18  and  O_24
REMARK    6  A    between atoms: C_32  and  C_33
REMARK    7  A    between atoms: C_33  and  C_35
REMARK                            x       y       z     vdW  Elec       q    Type
REMARK                         _______ _______ _______ _____ _____    ______ ____
ROOT
ATOM      1  O   UNL     1     -34.851  23.918   1.429  0.00  0.00    -0.446 OA
ATOM      2  O   UNL     1     -33.535  25.230   0.045  0.00  0.00    -0.250 OA
ATOM      3  C   UNL     1     -36.137  25.626   2.320  0.00  0.00    +0.147 C 
ATOM      4  C   UNL     1     -34.728  26.161   1.997  0.00  0.00    +0.117 C 
ATOM      5  C   UNL     1     -35.555  24.245   2.646  0.00  0.00    +0.212 C 
ATOM      6  C   UNL     1     -34.458  24.486   3.722  0.00  0.00    +0.065 C 
ATOM      7  C   UNL     1     -33.916  25.875   3.284  0.00  0.00    +0.021 C 
ATOM      8  C   UNL     1     -34.271  25.101   1.006  0.00  0.00    +0.319 C 
ATOM      9  C   UNL     1     -34.624  27.582   1.494  0.00  0.00    +0.014 C 
ENDROOT
BRANCH   3  12
ATOM     10  O   UNL     1     -37.615  27.054  -0.656  0.00  0.00    -0.456 OA
ATOM     11  O   UNL     1     -37.450  28.110   1.384  0.00  0.00    -0.250 OA
ATOM     12  C   UNL     1     -37.156  25.682   1.192  0.00  0.00    +0.119 C 
ATOM     13  C   UNL     1     -39.583  25.176   0.496  0.00  0.00    +0.029 C 
ATOM     14  C   UNL     1     -37.589  25.671  -1.086  0.00  0.00    +0.137 C 
ATOM     15  C   UNL     1     -39.021  25.114  -0.947  0.00  0.00    +0.039 C 
ATOM     16  C   UNL     1     -38.487  25.011   1.576  0.00  0.00    +0.016 C 
ATOM     17  C   UNL     1     -36.623  25.058  -0.090  0.00  0.00    +0.053 C 
ATOM     18  C   UNL     1     -40.717  24.111   0.528  0.00  0.00    +0.088 C 
ATOM     19  C   UNL     1     -37.406  27.098   0.704  0.00  0.00    +0.318 C 
ATOM     20  C   UNL     1     -39.221  23.652  -1.335  0.00  0.00    +0.006 C 
ATOM     21  C   UNL     1     -40.623  23.356  -0.811  0.00  0.00    +0.027 C 
ATOM     22  C   UNL     1     -37.068  25.608  -2.516  0.00  0.00    +0.044 C 
ATOM     23  C   UNL     1     -42.098  24.744   0.699  0.00  0.00    +0.029 C 
BRANCH  18  24
ATOM     24  O   UNL     1     -40.542  23.167   1.580  0.00  0.00    -0.387 OA
ATOM     25  H   UNL     1     -40.621  23.616   2.436  0.00  0.00    +0.210 HD
ENDBRANCH  18  24
ENDBRANCH   3  12
BRANCH   6  26
ATOM     26  C   UNL     1     -34.915  24.483   5.146  0.00  0.00    -0.040 C 
ATOM     27  C   UNL     1     -34.976  23.144   5.819  0.00  0.00    +0.026 C 
ATOM     28  C   UNL     1     -35.252  25.613   5.785  0.00  0.00    -0.009 C 
ENDBRANCH   6  26
BRANCH   3  29
ATOM     29  O   UNL     1     -36.695  26.248   3.472  0.00  0.00    -0.382 OA
ATOM     30  H   UNL     1     -37.631  26.001   3.550  0.00  0.00    +0.210 HD
ENDBRANCH   3  29
BRANCH   5  32
ATOM     31  O   UNL     1     -37.413  23.306   3.789  0.00  0.00    -0.292 OA
ATOM     32  C   UNL     1     -36.531  23.154   2.944  0.00  0.00    +0.189 C 
BRANCH  32  33
ATOM     33  C   UNL     1     -36.401  21.874   2.122  0.00  0.00    +0.061 C 
ATOM     34  C   UNL     1     -35.545  20.882   2.903  0.00  0.00    +0.008 C 
BRANCH  33  35
ATOM     35  C   UNL     1     -37.771  21.264   1.790  0.00  0.00    +0.007 C 
ATOM     36  C   UNL     1     -37.845  20.733   0.365  0.00  0.00    +0.000 C 
ENDBRANCH  33  35
ENDBRANCH  32  33
ENDBRANCH   5  32
TORSDOF 7
ENDMDL
MODEL 4
REMARK VINA RESULT:      -5.9      6.912     11.275
REMARK  Name = 56641420
REMARK  7 active torsions:
REMARK  status: ('A' for Active; 'I' for Inactive)
REMARK    1  A    between atoms: C_3  and  C_12
REMARK    2  A    between atoms: C_3  and  O_29
REMARK    3  A    between atoms: C_5  and  C_32
REMARK    4  A    between atoms: C_6  and  C_26
REMARK    5  A    between atoms: C_18  and  O_24
REMARK    6  A    between atoms: C_32  and  C_33
REMARK    7  A    between atoms: C_33  and  C_35
REMARK                            x       y       z     vdW  Elec       q    Type
REMARK                         _______ _______ _______ _____ _____    ______ ____
ROOT
ATOM      1  O   UNL     1     -46.989  30.206   4.428  0.00  0.00    -0.446 OA
ATOM      2  O   UNL     1     -47.907  28.342   3.402  0.00  0.00    -0.250 OA
ATOM      3  C   UNL     1     -45.416  29.091   5.712  0.00  0.00    +0.147 C 
ATOM      4  C   UNL     1     -46.654  28.192   5.525  0.00  0.00    +0.117 C 
ATOM      5  C   UNL     1     -46.301  30.343   5.690  0.00  0.00    +0.212 C 
ATOM      6  C   UNL     1     -47.380  30.124   6.788  0.00  0.00    +0.065 C 
ATOM      7  C   UNL     1     -47.581  28.585   6.701  0.00  0.00    +0.021 C 
ATOM      8  C   UNL     1     -47.273  28.857   4.304  0.00  0.00    +0.319 C 
ATOM      9  C   UNL     1     -46.419  26.706   5.383  0.00  0.00    +0.014 C 
ENDROOT
BRANCH   3  12
ATOM     10  O   UNL     1     -42.035  28.606   4.522  0.00  0.00    -0.456 OA
ATOM     11  O   UNL     1     -42.717  30.288   5.939  0.00  0.00    -0.250 OA
ATOM     12  C   UNL     1     -44.346  28.999   4.635  0.00  0.00    +0.119 C 
ATOM     13  C   UNL     1     -43.575  29.853   2.331  0.00  0.00    +0.029 C 
ATOM     14  C   UNL     1     -42.710  27.746   3.571  0.00  0.00    +0.137 C 
ATOM     15  C   UNL     1     -42.802  28.513   2.235  0.00  0.00    +0.039 C 
ATOM     16  C   UNL     1     -44.708  29.820   3.383  0.00  0.00    +0.016 C 
ATOM     17  C   UNL     1     -44.062  27.559   4.233  0.00  0.00    +0.053 C 
ATOM     18  C   UNL     1     -44.026  30.157   0.873  0.00  0.00    +0.088 C 
ATOM     19  C   UNL     1     -42.974  29.400   5.143  0.00  0.00    +0.318 C 
ATOM     20  C   UNL     1     -43.499  27.792   1.085  0.00  0.00    +0.006 C 
ATOM     21  C   UNL     1     -43.676  28.901   0.053  0.00  0.00    +0.027 C 
ATOM     22  C   UNL     1     -41.936  26.441   3.449  0.00  0.00    +0.044 C 
ATOM     23  C   UNL     1     -43.330  31.392   0.300  0.00  0.00    +0.029 C 
BRANCH  18  24
ATOM     24  O   UNL     1     -45.432  30.369   0.776  0.00  0.00    -0.387 OA
ATOM     25  H   UNL     1     -45.684  31.129   1.325  0.00  0.00    +0.210 HD
ENDBRANCH  18  24
ENDBRANCH   3  12
BRANCH   6  26
ATOM     26  C   UNL     1     -47.017  30.566   8.171  0.00  0.00    -0.040 C 
ATOM     27  C   UNL     1     -47.497  31.929   8.577  0.00  0.00    +0.026 C 
ATOM     28  C   UNL     1     -46.303  29.790   8.999  0.00  0.00    -0.009 C 
ENDBRANCH   6  26
BRANCH   3  29
ATOM     29  O   UNL     1     -44.803  28.901   6.982  0.00  0.00    -0.382 OA
ATOM     30  H   UNL     1     -43.838  28.928   6.882  0.00  0.00    +0.210 HD
ENDBRANCH   3  29
BRANCH   5  32
ATOM     31  O   UNL     1     -44.679  31.877   6.499  0.00  0.00    -0.292 OA
ATOM     32  C   UNL     1     -45.604  31.664   5.716  0.00  0.00    +0.189 C 
BRANCH  32  33
ATOM     33  C   UNL     1     -46.070  32.705   4.701  0.00  0.00    +0.061 C 
ATOM     34  C   UNL     1     -46.886  33.765   5.434  0.00  0.00    +0.008 C 
BRANCH  33  35
ATOM     35  C   UNL     1     -44.889  33.348   3.957  0.00  0.00    +0.007 C 
ATOM     36  C   UNL     1     -45.187  33.585   2.482  0.00  0.00    +0.000 C 
ENDBRANCH  33  35
ENDBRANCH  32  33
ENDBRANCH   5  32
TORSDOF 7
ENDMDL
MODEL 5
REMARK VINA RESULT:      -5.9      1.679      4.929
REMARK  Name = 56641420
REMARK  7 active torsions:
REMARK  status: ('A' for Active; 'I' for Inactive)
REMARK    1  A    between atoms: C_3  and  C_12
REMARK    2  A    between atoms: C_3  and  O_29
REMARK    3  A    between atoms: C_5  and  C_32
REMARK    4  A    between atoms: C_6  and  C_26
REMARK    5  A    between atoms: C_18  and  O_24
REMARK    6  A    between atoms: C_32  and  C_33
REMARK    7  A    between atoms: C_33  and  C_35
REMARK                            x       y       z     vdW  Elec       q    Type
REMARK                         _______ _______ _______ _____ _____    ______ ____
ROOT
ATOM      1  O   UNL     1     -37.158  25.977   3.587  0.00  0.00    -0.446 OA
ATOM      2  O   UNL     1     -39.299  26.493   2.869  0.00  0.00    -0.250 OA
ATOM      3  C   UNL     1     -36.415  25.002   1.622  0.00  0.00    +0.147 C 
ATOM      4  C   UNL     1     -37.928  24.754   1.776  0.00  0.00    +0.117 C 
ATOM      5  C   UNL     1     -36.236  24.958   3.144  0.00  0.00    +0.212 C 
ATOM      6  C   UNL     1     -36.844  23.604   3.608  0.00  0.00    +0.065 C 
ATOM      7  C   UNL     1     -38.010  23.441   2.593  0.00  0.00    +0.021 C 
ATOM      8  C   UNL     1     -38.268  25.854   2.772  0.00  0.00    +0.319 C 
ATOM      9  C   UNL     1     -38.764  24.761   0.517  0.00  0.00    +0.014 C 
ENDROOT
BRANCH   3  12
ATOM     10  O   UNL     1     -35.214  26.950  -1.179  0.00  0.00    -0.456 OA
ATOM     11  O   UNL     1     -34.032  25.284  -0.114  0.00  0.00    -0.250 OA
ATOM     12  C   UNL     1     -36.009  26.294   0.930  0.00  0.00    +0.119 C 
ATOM     13  C   UNL     1     -34.979  28.634   1.237  0.00  0.00    +0.029 C 
ATOM     14  C   UNL     1     -36.332  27.794  -0.810  0.00  0.00    +0.137 C 
ATOM     15  C   UNL     1     -35.765  29.009  -0.045  0.00  0.00    +0.039 C 
ATOM     16  C   UNL     1     -35.525  27.363   1.928  0.00  0.00    +0.016 C 
ATOM     17  C   UNL     1     -37.136  26.865   0.081  0.00  0.00    +0.053 C 
ATOM     18  C   UNL     1     -34.996  29.926   2.106  0.00  0.00    +0.088 C 
ATOM     19  C   UNL     1     -34.962  26.073  -0.147  0.00  0.00    +0.318 C 
ATOM     20  C   UNL     1     -36.782  30.029   0.456  0.00  0.00    +0.006 C 
ATOM     21  C   UNL     1     -35.948  30.902   1.389  0.00  0.00    +0.027 C 
ATOM     22  C   UNL     1     -37.088  28.191  -2.070  0.00  0.00    +0.044 C 
ATOM     23  C   UNL     1     -33.604  30.536   2.259  0.00  0.00    +0.029 C 
BRANCH  18  24
ATOM     24  O   UNL     1     -35.511  29.689   3.414  0.00  0.00    -0.387 OA
ATOM     25  H   UNL     1     -35.208  28.823   3.729  0.00  0.00    +0.210 HD
ENDBRANCH  18  24
ENDBRANCH   3  12
BRANCH   6  26
ATOM     26  C   UNL     1     -35.921  22.426   3.599  0.00  0.00    -0.040 C 
ATOM     27  C   UNL     1     -35.284  22.074   4.911  0.00  0.00    +0.026 C 
ATOM     28  C   UNL     1     -35.677  21.725   2.481  0.00  0.00    -0.009 C 
ENDBRANCH   6  26
BRANCH   3  29
ATOM     29  O   UNL     1     -35.756  23.915   0.983  0.00  0.00    -0.382 OA
ATOM     30  H   UNL     1     -35.453  23.281   1.653  0.00  0.00    +0.210 HD
ENDBRANCH   3  29
BRANCH   5  32
ATOM     31  O   UNL     1     -33.866  24.808   3.151  0.00  0.00    -0.292 OA
ATOM     32  C   UNL     1     -34.876  25.277   3.675  0.00  0.00    +0.189 C 
BRANCH  32  33
ATOM     33  C   UNL     1     -34.811  26.238   4.859  0.00  0.00    +0.061 C 
ATOM     34  C   UNL     1     -35.127  25.459   6.133  0.00  0.00    +0.008 C 
BRANCH  33  35
ATOM     35  C   UNL     1     -33.438  26.920   4.968  0.00  0.00    +0.007 C 
ATOM     36  C   UNL     1     -32.948  27.020   6.407  0.00  0.00    +0.000 C 
ENDBRANCH  33  35
ENDBRANCH  32  33
ENDBRANCH   5  32
TORSDOF 7
ENDMDL
MODEL 6
REMARK VINA RESULT:      -5.8      9.304     12.218
REMARK  Name = 56641420
REMARK  7 active torsions:
REMARK  status: ('A' for Active; 'I' for Inactive)
REMARK    1  A    between atoms: C_3  and  C_12
REMARK    2  A    between atoms: C_3  and  O_29
REMARK    3  A    between atoms: C_5  and  C_32
REMARK    4  A    between atoms: C_6  and  C_26
REMARK    5  A    between atoms: C_18  and  O_24
REMARK    6  A    between atoms: C_32  and  C_33
REMARK    7  A    between atoms: C_33  and  C_35
REMARK                            x       y       z     vdW  Elec       q    Type
REMARK                         _______ _______ _______ _____ _____    ______ ____
ROOT
ATOM      1  O   UNL     1     -44.718  28.764   6.019  0.00  0.00    -0.446 OA
ATOM      2  O   UNL     1     -43.364  30.056   7.384  0.00  0.00    -0.250 OA
ATOM      3  C   UNL     1     -46.753  29.586   6.758  0.00  0.00    +0.147 C 
ATOM      4  C   UNL     1     -45.736  29.622   7.915  0.00  0.00    +0.117 C 
ATOM      5  C   UNL     1     -46.085  28.330   6.187  0.00  0.00    +0.212 C 
ATOM      6  C   UNL     1     -46.063  27.293   7.345  0.00  0.00    +0.065 C 
ATOM      7  C   UNL     1     -45.872  28.226   8.573  0.00  0.00    +0.021 C 
ATOM      8  C   UNL     1     -44.440  29.552   7.121  0.00  0.00    +0.319 C 
ATOM      9  C   UNL     1     -45.824  30.780   8.881  0.00  0.00    +0.014 C 
ENDROOT
BRANCH   3  12
ATOM     10  O   UNL     1     -48.308  32.504   5.291  0.00  0.00    -0.456 OA
ATOM     11  O   UNL     1     -49.062  30.340   5.063  0.00  0.00    -0.250 OA
ATOM     12  C   UNL     1     -46.786  30.807   5.851  0.00  0.00    +0.119 C 
ATOM     13  C   UNL     1     -45.949  31.835   3.643  0.00  0.00    +0.029 C 
ATOM     14  C   UNL     1     -47.033  33.102   5.629  0.00  0.00    +0.137 C 
ATOM     15  C   UNL     1     -46.206  33.200   4.329  0.00  0.00    +0.039 C 
ATOM     16  C   UNL     1     -45.831  30.667   4.651  0.00  0.00    +0.016 C 
ATOM     17  C   UNL     1     -46.468  32.089   6.607  0.00  0.00    +0.053 C 
ATOM     18  C   UNL     1     -44.699  32.070   2.745  0.00  0.00    +0.088 C 
ATOM     19  C   UNL     1     -48.187  31.134   5.367  0.00  0.00    +0.318 C 
ATOM     20  C   UNL     1     -44.806  33.793   4.460  0.00  0.00    +0.006 C 
ATOM     21  C   UNL     1     -44.182  33.475   3.105  0.00  0.00    +0.027 C 
ATOM     22  C   UNL     1     -47.280  34.459   6.274  0.00  0.00    +0.044 C 
ATOM     23  C   UNL     1     -45.034  31.978   1.256  0.00  0.00    +0.029 C 
BRANCH  18  24
ATOM     24  O   UNL     1     -43.658  31.134   3.013  0.00  0.00    -0.387 OA
ATOM     25  H   UNL     1     -43.546  30.548   2.249  0.00  0.00    +0.210 HD
ENDBRANCH  18  24
ENDBRANCH   3  12
BRANCH   6  26
ATOM     26  C   UNL     1     -47.274  26.425   7.481  0.00  0.00    -0.040 C 
ATOM     27  C   UNL     1     -48.207  26.763   8.606  0.00  0.00    +0.026 C 
ATOM     28  C   UNL     1     -47.512  25.403   6.645  0.00  0.00    -0.009 C 
ENDBRANCH   6  26
BRANCH   3  29
ATOM     29  O   UNL     1     -48.075  29.319   7.213  0.00  0.00    -0.382 OA
ATOM     30  H   UNL     1     -48.547  28.796   6.545  0.00  0.00    +0.210 HD
ENDBRANCH   3  29
BRANCH   5  32
ATOM     31  O   UNL     1     -47.801  27.799   4.634  0.00  0.00    -0.292 OA
ATOM     32  C   UNL     1     -46.594  27.830   4.874  0.00  0.00    +0.189 C 
BRANCH  32  33
ATOM     33  C   UNL     1     -45.546  27.406   3.848  0.00  0.00    +0.061 C 
ATOM     34  C   UNL     1     -45.464  25.882   3.842  0.00  0.00    +0.008 C 
BRANCH  33  35
ATOM     35  C   UNL     1     -45.872  27.937   2.444  0.00  0.00    +0.007 C 
ATOM     36  C   UNL     1     -44.627  28.128   1.588  0.00  0.00    +0.000 C 
ENDBRANCH  33  35
ENDBRANCH  32  33
ENDBRANCH   5  32
TORSDOF 7
ENDMDL
MODEL 7
REMARK VINA RESULT:      -5.8      1.874      5.709
REMARK  Name = 56641420
REMARK  7 active torsions:
REMARK  status: ('A' for Active; 'I' for Inactive)
REMARK    1  A    between atoms: C_3  and  C_12
REMARK    2  A    between atoms: C_3  and  O_29
REMARK    3  A    between atoms: C_5  and  C_32
REMARK    4  A    between atoms: C_6  and  C_26
REMARK    5  A    between atoms: C_18  and  O_24
REMARK    6  A    between atoms: C_32  and  C_33
REMARK    7  A    between atoms: C_33  and  C_35
REMARK                            x       y       z     vdW  Elec       q    Type
REMARK                         _______ _______ _______ _____ _____    ______ ____
ROOT
ATOM      1  O   UNL     1     -36.163  26.300   3.445  0.00  0.00    -0.446 OA
ATOM      2  O   UNL     1     -37.965  26.880   2.109  0.00  0.00    -0.250 OA
ATOM      3  C   UNL     1     -35.287  24.660   2.063  0.00  0.00    +0.147 C 
ATOM      4  C   UNL     1     -36.819  24.703   1.900  0.00  0.00    +0.117 C 
ATOM      5  C   UNL     1     -35.416  25.068   3.536  0.00  0.00    +0.212 C 
ATOM      6  C   UNL     1     -36.380  24.033   4.183  0.00  0.00    +0.065 C 
ATOM      7  C   UNL     1     -37.337  23.738   2.995  0.00  0.00    +0.021 C 
ATOM      8  C   UNL     1     -37.097  26.096   2.445  0.00  0.00    +0.319 C 
ATOM      9  C   UNL     1     -37.377  24.441   0.520  0.00  0.00    +0.014 C 
ENDROOT
BRANCH   3  12
ATOM     10  O   UNL     1     -34.695  26.547  -0.965  0.00  0.00    -0.456 OA
ATOM     11  O   UNL     1     -34.892  24.256  -0.844  0.00  0.00    -0.250 OA
ATOM     12  C   UNL     1     -34.486  25.596   1.170  0.00  0.00    +0.119 C 
ATOM     13  C   UNL     1     -32.130  26.385   0.493  0.00  0.00    +0.029 C 
ATOM     14  C   UNL     1     -34.372  27.588  -0.012  0.00  0.00    +0.137 C 
ATOM     15  C   UNL     1     -32.833  27.696   0.057  0.00  0.00    +0.039 C 
ATOM     16  C   UNL     1     -32.978  25.547   1.478  0.00  0.00    +0.016 C 
ATOM     17  C   UNL     1     -34.977  27.034   1.265  0.00  0.00    +0.053 C 
ATOM     18  C   UNL     1     -30.740  26.838   1.026  0.00  0.00    +0.088 C 
ATOM     19  C   UNL     1     -34.726  25.338  -0.306  0.00  0.00    +0.318 C 
ATOM     20  C   UNL     1     -32.268  28.732   1.023  0.00  0.00    +0.006 C 
ATOM     21  C   UNL     1     -30.785  28.377   1.062  0.00  0.00    +0.027 C 
ATOM     22  C   UNL     1     -35.034  28.886  -0.453  0.00  0.00    +0.044 C 
ATOM     23  C   UNL     1     -29.595  26.348   0.140  0.00  0.00    +0.029 C 
BRANCH  18  24
ATOM     24  O   UNL     1     -30.492  26.373   2.350  0.00  0.00    -0.387 OA
ATOM     25  H   UNL     1     -31.226  25.807   2.637  0.00  0.00    +0.210 HD
ENDBRANCH  18  24
ENDBRANCH   3  12
BRANCH   6  26
ATOM     26  C   UNL     1     -35.750  22.787   4.721  0.00  0.00    -0.040 C 
ATOM     27  C   UNL     1     -35.367  22.812   6.171  0.00  0.00    +0.026 C 
ATOM     28  C   UNL     1     -35.538  21.710   3.950  0.00  0.00    -0.009 C 
ENDBRANCH   6  26
BRANCH   3  29
ATOM     29  O   UNL     1     -34.769  23.342   1.925  0.00  0.00    -0.382 OA
ATOM     30  H   UNL     1     -34.286  23.271   1.086  0.00  0.00    +0.210 HD
ENDBRANCH   3  29
BRANCH   5  32
ATOM     31  O   UNL     1     -33.225  24.514   4.264  0.00  0.00    -0.292 OA
ATOM     32  C   UNL     1     -34.147  25.329   4.279  0.00  0.00    +0.189 C 
BRANCH  32  33
ATOM     33  C   UNL     1     -34.044  26.665   5.012  0.00  0.00    +0.061 C 
ATOM     34  C   UNL     1     -33.622  26.395   6.453  0.00  0.00    +0.008 C 
BRANCH  33  35
ATOM     35  C   UNL     1     -33.054  27.620   4.327  0.00  0.00    +0.007 C 
ATOM     36  C   UNL     1     -32.060  28.231   5.306  0.00  0.00    +0.000 C 
ENDBRANCH  33  35
ENDBRANCH  32  33
ENDBRANCH   5  32
TORSDOF 7
ENDMDL
MODEL 8
REMARK VINA RESULT:      -5.8      2.715      6.779
REMARK  Name = 56641420
REMARK  7 active torsions:
REMARK  status: ('A' for Active; 'I' for Inactive)
REMARK    1  A    between atoms: C_3  and  C_12
REMARK    2  A    between atoms: C_3  and  O_29
REMARK    3  A    between atoms: C_5  and  C_32
REMARK    4  A    between atoms: C_6  and  C_26
REMARK    5  A    between atoms: C_18  and  O_24
REMARK    6  A    between atoms: C_32  and  C_33
REMARK    7  A    between atoms: C_33  and  C_35
REMARK                            x       y       z     vdW  Elec       q    Type
REMARK                         _______ _______ _______ _____ _____    ______ ____
ROOT
ATOM      1  O   UNL     1     -35.147  22.527  -0.570  0.00  0.00    -0.446 OA
ATOM      2  O   UNL     1     -33.064  21.808   0.147  0.00  0.00    -0.250 OA
ATOM      3  C   UNL     1     -36.398  21.512   1.094  0.00  0.00    +0.147 C 
ATOM      4  C   UNL     1     -35.149  20.658   0.799  0.00  0.00    +0.117 C 
ATOM      5  C   UNL     1     -36.459  21.958  -0.372  0.00  0.00    +0.212 C 
ATOM      6  C   UNL     1     -36.488  20.653  -1.216  0.00  0.00    +0.065 C 
ATOM      7  C   UNL     1     -35.602  19.719  -0.346  0.00  0.00    +0.021 C 
ATOM      8  C   UNL     1     -34.276  21.704   0.121  0.00  0.00    +0.319 C 
ATOM      9  C   UNL     1     -34.499  19.953   1.967  0.00  0.00    +0.014 C 
ENDROOT
BRANCH   3  12
ATOM     10  O   UNL     1     -37.146  23.171   4.219  0.00  0.00    -0.456 OA
ATOM     11  O   UNL     1     -38.648  22.815   2.511  0.00  0.00    -0.250 OA
ATOM     12  C   UNL     1     -36.233  22.613   2.130  0.00  0.00    +0.119 C 
ATOM     13  C   UNL     1     -35.696  25.102   2.516  0.00  0.00    +0.029 C 
ATOM     14  C   UNL     1     -35.701  23.222   4.303  0.00  0.00    +0.137 C 
ATOM     15  C   UNL     1     -35.264  24.657   3.936  0.00  0.00    +0.039 C 
ATOM     16  C   UNL     1     -35.739  23.932   1.506  0.00  0.00    +0.016 C 
ATOM     17  C   UNL     1     -35.296  22.202   3.256  0.00  0.00    +0.053 C 
ATOM     18  C   UNL     1     -34.727  26.264   2.151  0.00  0.00    +0.088 C 
ATOM     19  C   UNL     1     -37.502  22.856   2.927  0.00  0.00    +0.318 C 
ATOM     20  C   UNL     1     -33.764  24.932   3.946  0.00  0.00    +0.006 C 
ATOM     21  C   UNL     1     -33.670  26.297   3.272  0.00  0.00    +0.027 C 
ATOM     22  C   UNL     1     -35.273  22.817   5.707  0.00  0.00    +0.044 C 
ATOM     23  C   UNL     1     -35.450  27.606   2.045  0.00  0.00    +0.029 C 
BRANCH  18  24
ATOM     24  O   UNL     1     -34.053  26.036   0.916  0.00  0.00    -0.387 OA
ATOM     25  H   UNL     1     -34.069  25.089   0.708  0.00  0.00    +0.210 HD
ENDBRANCH  18  24
ENDBRANCH   3  12
BRANCH   6  26
ATOM     26  C   UNL     1     -37.839  20.064  -1.478  0.00  0.00    -0.040 C 
ATOM     27  C   UNL     1     -38.525  20.514  -2.734  0.00  0.00    +0.026 C 
ATOM     28  C   UNL     1     -38.404  19.184  -0.637  0.00  0.00    -0.009 C 
ENDBRANCH   6  26
BRANCH   3  29
ATOM     29  O   UNL     1     -37.522  20.715   1.448  0.00  0.00    -0.382 OA
ATOM     30  H   UNL     1     -38.042  20.518   0.653  0.00  0.00    +0.210 HD
ENDBRANCH   3  29
BRANCH   5  32
ATOM     31  O   UNL     1     -38.643  22.888  -0.319  0.00  0.00    -0.292 OA
ATOM     32  C   UNL     1     -37.485  22.985  -0.724  0.00  0.00    +0.189 C 
BRANCH  32  33
ATOM     33  C   UNL     1     -37.012  24.167  -1.567  0.00  0.00    +0.061 C 
ATOM     34  C   UNL     1     -37.299  23.861  -3.034  0.00  0.00    +0.008 C 
BRANCH  33  35
ATOM     35  C   UNL     1     -37.689  25.480  -1.145  0.00  0.00    +0.007 C 
ATOM     36  C   UNL     1     -36.775  26.687  -1.304  0.00  0.00    +0.000 C 
ENDBRANCH  33  35
ENDBRANCH  32  33
ENDBRANCH   5  32
TORSDOF 7
ENDMDL
MODEL 9
REMARK VINA RESULT:      -5.8      2.000      5.562
REMARK  Name = 56641420
REMARK  7 active torsions:
REMARK  status: ('A' for Active; 'I' for Inactive)
REMARK    1  A    between atoms: C_3  and  C_12
REMARK    2  A    between atoms: C_3  and  O_29
REMARK    3  A    between atoms: C_5  and  C_32
REMARK    4  A    between atoms: C_6  and  C_26
REMARK    5  A    between atoms: C_18  and  O_24
REMARK    6  A    between atoms: C_32  and  C_33
REMARK    7  A    between atoms: C_33  and  C_35
REMARK                            x       y       z     vdW  Elec       q    Type
REMARK                         _______ _______ _______ _____ _____    ______ ____
ROOT
ATOM      1  O   UNL     1     -37.489  25.092   0.907  0.00  0.00    -0.446 OA
ATOM      2  O   UNL     1     -38.458  26.680   2.289  0.00  0.00    -0.250 OA
ATOM      3  C   UNL     1     -35.456  26.163   0.608  0.00  0.00    +0.147 C 
ATOM      4  C   UNL     1     -36.567  27.215   0.793  0.00  0.00    +0.117 C 
ATOM      5  C   UNL     1     -36.446  25.216  -0.084  0.00  0.00    +0.212 C 
ATOM      6  C   UNL     1     -37.067  26.028  -1.255  0.00  0.00    +0.065 C 
ATOM      7  C   UNL     1     -37.095  27.456  -0.642  0.00  0.00    +0.021 C 
ATOM      8  C   UNL     1     -37.630  26.353   1.459  0.00  0.00    +0.319 C 
ATOM      9  C   UNL     1     -36.211  28.474   1.549  0.00  0.00    +0.014 C 
ENDROOT
BRANCH   3  12
ATOM     10  O   UNL     1     -32.681  25.728   2.887  0.00  0.00    -0.456 OA
ATOM     11  O   UNL     1     -32.748  24.969   0.713  0.00  0.00    -0.250 OA
ATOM     12  C   UNL     1     -34.799  25.644   1.878  0.00  0.00    +0.119 C 
ATOM     13  C   UNL     1     -34.749  23.749   3.621  0.00  0.00    +0.029 C 
ATOM     14  C   UNL     1     -33.686  26.102   3.860  0.00  0.00    +0.137 C 
ATOM     15  C   UNL     1     -34.147  24.813   4.573  0.00  0.00    +0.039 C 
ATOM     16  C   UNL     1     -35.483  24.371   2.410  0.00  0.00    +0.016 C 
ATOM     17  C   UNL     1     -34.764  26.698   2.975  0.00  0.00    +0.053 C 
ATOM     18  C   UNL     1     -35.621  22.843   4.538  0.00  0.00    +0.088 C 
ATOM     19  C   UNL     1     -33.310  25.402   1.705  0.00  0.00    +0.318 C 
ATOM     20  C   UNL     1     -35.226  24.976   5.639  0.00  0.00    +0.006 C 
ATOM     21  C   UNL     1     -35.645  23.535   5.913  0.00  0.00    +0.027 C 
ATOM     22  C   UNL     1     -33.089  27.124   4.818  0.00  0.00    +0.044 C 
ATOM     23  C   UNL     1     -35.059  21.426   4.651  0.00  0.00    +0.029 C 
BRANCH  18  24
ATOM     24  O   UNL     1     -36.964  22.739   4.073  0.00  0.00    -0.387 OA
ATOM     25  H   UNL     1     -37.406  22.000   4.520  0.00  0.00    +0.210 HD
ENDBRANCH  18  24
ENDBRANCH   3  12
BRANCH   6  26
ATOM     26  C   UNL     1     -36.325  25.989  -2.555  0.00  0.00    -0.040 C 
ATOM     27  C   UNL     1     -36.753  24.930  -3.528  0.00  0.00    +0.026 C 
ATOM     28  C   UNL     1     -35.334  26.849  -2.832  0.00  0.00    -0.009 C 
ENDBRANCH   6  26
BRANCH   3  29
ATOM     29  O   UNL     1     -34.441  26.606  -0.284  0.00  0.00    -0.382 OA
ATOM     30  H   UNL     1     -33.707  25.971  -0.280  0.00  0.00    +0.210 HD
ENDBRANCH   3  29
BRANCH   5  32
ATOM     31  O   UNL     1     -34.850  23.695  -0.965  0.00  0.00    -0.292 OA
ATOM     32  C   UNL     1     -35.947  23.851  -0.429  0.00  0.00    +0.189 C 
BRANCH  32  33
ATOM     33  C   UNL     1     -36.844  22.676  -0.047  0.00  0.00    +0.061 C 
ATOM     34  C   UNL     1     -37.730  22.336  -1.241  0.00  0.00    +0.008 C 
BRANCH  33  35
ATOM     35  C   UNL     1     -36.027  21.450   0.389  0.00  0.00    +0.007 C 
ATOM     36  C   UNL     1     -36.788  20.555   1.357  0.00  0.00    +0.000 C 
ENDBRANCH  33  35
ENDBRANCH  32  33
ENDBRANCH   5  32
TORSDOF 7
ENDMDL
