MODEL 1
REMARK VINA RESULT:      -6.9      0.000      0.000
REMARK  Name = 58459229
REMARK  4 active torsions:
REMARK  status: ('A' for Active; 'I' for Inactive)
REMARK    1  A    between atoms: N_2  and  C_12
REMARK    2  A    between atoms: C_4  and  C_17
REMARK    3  A    between atoms: C_17  and  N_19
REMARK    4  A    between atoms: C_23  and  C_31
REMARK                            x       y       z     vdW  Elec       q    Type
REMARK                         _______ _______ _______ _____ _____    ______ ____
ROOT
ATOM      1  F   UNL     1     -34.781  21.485   5.716  0.00  0.00    -0.204 F 
ATOM      2  N   UNL     1     -37.753  23.845   2.654  0.00  0.00    -0.240 N 
ATOM      3  N   UNL     1     -37.267  25.846   3.491  0.00  0.00    -0.392 NA
ATOM      4  C   UNL     1     -37.972  25.193   2.594  0.00  0.00    +0.185 C 
ATOM      5  C   UNL     1     -36.847  23.612   3.656  0.00  0.00    +0.086 C 
ATOM      6  C   UNL     1     -36.559  24.876   4.164  0.00  0.00    +0.129 C 
ATOM      7  C   UNL     1     -36.271  22.440   4.149  0.00  0.00    +0.047 C 
ATOM      8  C   UNL     1     -35.646  24.997   5.225  0.00  0.00    +0.089 C 
ATOM      9  C   UNL     1     -35.364  22.579   5.204  0.00  0.00    +0.138 C 
ATOM     10  C   UNL     1     -35.056  23.834   5.735  0.00  0.00    +0.011 C 
ENDROOT
BRANCH   2  12
ATOM     11  N   UNL     1     -40.154  21.315   1.474  0.00  0.00    -0.241 NA
ATOM     12  C   UNL     1     -38.345  22.876   1.842  0.00  0.00    +0.077 C 
ATOM     13  C   UNL     1     -37.763  22.497   0.638  0.00  0.00    +0.018 C 
ATOM     14  C   UNL     1     -39.531  22.262   2.212  0.00  0.00    +0.114 C 
ATOM     15  C   UNL     1     -38.374  21.527  -0.148  0.00  0.00    +0.022 C 
ATOM     16  C   UNL     1     -39.558  20.972   0.310  0.00  0.00    +0.099 C 
ENDBRANCH   2  12
BRANCH   4  17
ATOM     17  C   UNL     1     -38.900  25.807   1.621  0.00  0.00    +0.138 C 
ATOM     18  C   UNL     1     -38.261  26.898   0.740  0.00  0.00    +0.030 C 
BRANCH  17  19
ATOM     19  N   UNL     1     -40.065  26.388   2.285  0.00  0.00    -0.315 N 
ATOM     20  N   UNL     1     -41.534  25.054   1.066  0.00  0.00    -0.233 NA
ATOM     21  N   UNL     1     -43.910  25.238   1.424  0.00  0.00    -0.233 NA
ATOM     22  C   UNL     1     -41.357  26.008   2.004  0.00  0.00    +0.124 C 
ATOM     23  C   UNL     1     -42.393  26.615   2.685  0.00  0.00    +0.197 C 
ATOM     24  C   UNL     1     -43.661  26.185   2.350  0.00  0.00    +0.120 C 
ATOM     25  C   UNL     1     -42.817  24.722   0.830  0.00  0.00    +0.252 C 
ATOM     26  H   UNL     1     -39.919  27.084   2.966  0.00  0.00    +0.148 HD
ATOM     27  N   UNL     1     -44.774  26.766   3.007  0.00  0.00    -0.345 N 
ATOM     28  H   UNL     1     -45.687  26.472   2.781  0.00  0.00    +0.143 HD
ATOM     29  H   UNL     1     -44.636  27.463   3.689  0.00  0.00    +0.143 HD
BRANCH  23  31
ATOM     30  N   UNL     1     -41.982  28.446   4.474  0.00  0.00    -0.195 NA
ATOM     31  C   UNL     1     -42.166  27.626   3.673  0.00  0.00    +0.087 C 
ENDBRANCH  23  31
ENDBRANCH  17  19
ENDBRANCH   4  17
TORSDOF 4
ENDMDL
MODEL 2
REMARK VINA RESULT:      -6.4      3.729      6.881
REMARK  Name = 58459229
REMARK  4 active torsions:
REMARK  status: ('A' for Active; 'I' for Inactive)
REMARK    1  A    between atoms: N_2  and  C_12
REMARK    2  A    between atoms: C_4  and  C_17
REMARK    3  A    between atoms: C_17  and  N_19
REMARK    4  A    between atoms: C_23  and  C_31
REMARK                            x       y       z     vdW  Elec       q    Type
REMARK                         _______ _______ _______ _____ _____    ______ ____
ROOT
ATOM      1  F   UNL     1     -40.603  23.451   0.237  0.00  0.00    -0.204 F 
ATOM      2  N   UNL     1     -36.507  22.987   2.841  0.00  0.00    -0.240 N 
ATOM      3  N   UNL     1     -37.170  24.412   4.412  0.00  0.00    -0.392 NA
ATOM      4  C   UNL     1     -36.202  23.617   4.015  0.00  0.00    +0.185 C 
ATOM      5  C   UNL     1     -37.755  23.404   2.454  0.00  0.00    +0.086 C 
ATOM      6  C   UNL     1     -38.147  24.292   3.450  0.00  0.00    +0.129 C 
ATOM      7  C   UNL     1     -38.550  23.089   1.351  0.00  0.00    +0.047 C 
ATOM      8  C   UNL     1     -39.404  24.914   3.358  0.00  0.00    +0.089 C 
ATOM      9  C   UNL     1     -39.798  23.716   1.275  0.00  0.00    +0.138 C 
ATOM     10  C   UNL     1     -40.220  24.614   2.260  0.00  0.00    +0.011 C 
ENDROOT
BRANCH   2  12
ATOM     11  N   UNL     1     -34.154  21.654   0.341  0.00  0.00    -0.241 NA
ATOM     12  C   UNL     1     -35.695  22.082   2.155  0.00  0.00    +0.077 C 
ATOM     13  C   UNL     1     -35.604  20.754   2.556  0.00  0.00    +0.018 C 
ATOM     14  C   UNL     1     -34.956  22.479   1.051  0.00  0.00    +0.114 C 
ATOM     15  C   UNL     1     -34.789  19.875   1.851  0.00  0.00    +0.022 C 
ATOM     16  C   UNL     1     -34.091  20.370   0.762  0.00  0.00    +0.099 C 
ENDBRANCH   2  12
BRANCH   4  17
ATOM     17  C   UNL     1     -34.923  23.403   4.725  0.00  0.00    +0.138 C 
ATOM     18  C   UNL     1     -35.044  22.546   6.000  0.00  0.00    +0.030 C 
BRANCH  17  19
ATOM     19  N   UNL     1     -34.295  24.670   5.090  0.00  0.00    -0.315 N 
ATOM     20  N   UNL     1     -34.105  25.318   2.861  0.00  0.00    -0.233 NA
ATOM     21  N   UNL     1     -33.115  27.443   2.303  0.00  0.00    -0.233 NA
ATOM     22  C   UNL     1     -33.897  25.607   4.163  0.00  0.00    +0.124 C 
ATOM     23  C   UNL     1     -33.312  26.775   4.606  0.00  0.00    +0.197 C 
ATOM     24  C   UNL     1     -32.937  27.666   3.621  0.00  0.00    +0.120 C 
ATOM     25  C   UNL     1     -33.696  26.268   1.998  0.00  0.00    +0.252 C 
ATOM     26  H   UNL     1     -34.149  24.864   6.044  0.00  0.00    +0.148 HD
ATOM     27  N   UNL     1     -32.328  28.888   4.001  0.00  0.00    -0.345 N 
ATOM     28  H   UNL     1     -32.054  29.536   3.312  0.00  0.00    +0.143 HD
ATOM     29  H   UNL     1     -32.178  29.089   4.954  0.00  0.00    +0.143 HD
BRANCH  23  31
ATOM     30  N   UNL     1     -32.937  27.263   7.125  0.00  0.00    -0.195 NA
ATOM     31  C   UNL     1     -33.105  27.045   5.997  0.00  0.00    +0.087 C 
ENDBRANCH  23  31
ENDBRANCH  17  19
ENDBRANCH   4  17
TORSDOF 4
ENDMDL
MODEL 3
REMARK VINA RESULT:      -6.3      4.968      8.693
REMARK  Name = 58459229
REMARK  4 active torsions:
REMARK  status: ('A' for Active; 'I' for Inactive)
REMARK    1  A    between atoms: N_2  and  C_12
REMARK    2  A    between atoms: C_4  and  C_17
REMARK    3  A    between atoms: C_17  and  N_19
REMARK    4  A    between atoms: C_23  and  C_31
REMARK                            x       y       z     vdW  Elec       q    Type
REMARK                         _______ _______ _______ _____ _____    ______ ____
ROOT
ATOM      1  F   UNL     1     -36.030  25.299   6.030  0.00  0.00    -0.204 F 
ATOM      2  N   UNL     1     -35.582  22.459   2.092  0.00  0.00    -0.240 N 
ATOM      3  N   UNL     1     -35.086  20.644   3.275  0.00  0.00    -0.392 NA
ATOM      4  C   UNL     1     -35.269  21.128   2.067  0.00  0.00    +0.185 C 
ATOM      5  C   UNL     1     -35.603  22.860   3.403  0.00  0.00    +0.086 C 
ATOM      6  C   UNL     1     -35.289  21.710   4.121  0.00  0.00    +0.129 C 
ATOM      7  C   UNL     1     -35.860  24.093   4.004  0.00  0.00    +0.047 C 
ATOM      8  C   UNL     1     -35.224  21.775   5.524  0.00  0.00    +0.089 C 
ATOM      9  C   UNL     1     -35.792  24.140   5.400  0.00  0.00    +0.138 C 
ATOM     10  C   UNL     1     -35.479  23.002   6.149  0.00  0.00    +0.011 C 
ENDROOT
BRANCH   2  12
ATOM     11  N   UNL     1     -35.024  24.881  -0.626  0.00  0.00    -0.241 NA
ATOM     12  C   UNL     1     -35.836  23.268   0.982  0.00  0.00    +0.077 C 
ATOM     13  C   UNL     1     -37.090  23.291   0.384  0.00  0.00    +0.018 C 
ATOM     14  C   UNL     1     -34.844  24.073   0.444  0.00  0.00    +0.114 C 
ATOM     15  C   UNL     1     -37.314  24.109  -0.718  0.00  0.00    +0.022 C 
ATOM     16  C   UNL     1     -36.258  24.877  -1.180  0.00  0.00    +0.099 C 
ENDBRANCH   2  12
BRANCH   4  17
ATOM     17  C   UNL     1     -35.158  20.359   0.809  0.00  0.00    +0.138 C 
ATOM     18  C   UNL     1     -36.283  19.327   0.599  0.00  0.00    +0.030 C 
BRANCH  17  19
ATOM     19  N   UNL     1     -33.879  19.658   0.722  0.00  0.00    -0.315 N 
ATOM     20  N   UNL     1     -32.835  21.502  -0.246  0.00  0.00    -0.233 NA
ATOM     21  N   UNL     1     -30.503  21.394  -0.839  0.00  0.00    -0.233 NA
ATOM     22  C   UNL     1     -32.742  20.232   0.201  0.00  0.00    +0.124 C 
ATOM     23  C   UNL     1     -31.580  19.489   0.161  0.00  0.00    +0.197 C 
ATOM     24  C   UNL     1     -30.480  20.128  -0.375  0.00  0.00    +0.120 C 
ATOM     25  C   UNL     1     -31.694  22.013  -0.745  0.00  0.00    +0.252 C 
ATOM     26  H   UNL     1     -33.828  18.732   1.051  0.00  0.00    +0.148 HD
ATOM     27  N   UNL     1     -29.252  19.426  -0.452  0.00  0.00    -0.345 N 
ATOM     28  H   UNL     1     -28.456  19.865  -0.831  0.00  0.00    +0.143 HD
ATOM     29  H   UNL     1     -29.193  18.498  -0.125  0.00  0.00    +0.143 HD
BRANCH  23  31
ATOM     30  N   UNL     1     -31.470  17.049   1.032  0.00  0.00    -0.195 NA
ATOM     31  C   UNL     1     -31.519  18.142   0.642  0.00  0.00    +0.087 C 
ENDBRANCH  23  31
ENDBRANCH  17  19
ENDBRANCH   4  17
TORSDOF 4
ENDMDL
MODEL 4
REMARK VINA RESULT:      -6.0      3.183      5.785
REMARK  Name = 58459229
REMARK  4 active torsions:
REMARK  status: ('A' for Active; 'I' for Inactive)
REMARK    1  A    between atoms: N_2  and  C_12
REMARK    2  A    between atoms: C_4  and  C_17
REMARK    3  A    between atoms: C_17  and  N_19
REMARK    4  A    between atoms: C_23  and  C_31
REMARK                            x       y       z     vdW  Elec       q    Type
REMARK                         _______ _______ _______ _____ _____    ______ ____
ROOT
ATOM      1  F   UNL     1     -32.170  18.004   1.344  0.00  0.00    -0.204 F 
ATOM      2  N   UNL     1     -35.942  20.994   2.123  0.00  0.00    -0.240 N 
ATOM      3  N   UNL     1     -37.192  20.071   0.534  0.00  0.00    -0.392 NA
ATOM      4  C   UNL     1     -37.138  21.001   1.461  0.00  0.00    +0.185 C 
ATOM      5  C   UNL     1     -35.172  19.994   1.588  0.00  0.00    +0.086 C 
ATOM      6  C   UNL     1     -35.974  19.433   0.598  0.00  0.00    +0.129 C 
ATOM      7  C   UNL     1     -33.883  19.544   1.875  0.00  0.00    +0.047 C 
ATOM      8  C   UNL     1     -35.476  18.360  -0.161  0.00  0.00    +0.089 C 
ATOM      9  C   UNL     1     -33.403  18.476   1.111  0.00  0.00    +0.138 C 
ATOM     10  C   UNL     1     -34.184  17.892   0.110  0.00  0.00    +0.011 C 
ENDROOT
BRANCH   2  12
ATOM     11  N   UNL     1     -34.811  24.040   3.857  0.00  0.00    -0.241 NA
ATOM     12  C   UNL     1     -35.567  21.852   3.159  0.00  0.00    +0.077 C 
ATOM     13  C   UNL     1     -35.562  21.421   4.480  0.00  0.00    +0.018 C 
ATOM     14  C   UNL     1     -35.188  23.160   2.901  0.00  0.00    +0.114 C 
ATOM     15  C   UNL     1     -35.182  22.297   5.491  0.00  0.00    +0.022 C 
ATOM     16  C   UNL     1     -34.819  23.584   5.130  0.00  0.00    +0.099 C 
ENDBRANCH   2  12
BRANCH   4  17
ATOM     17  C   UNL     1     -38.219  21.958   1.779  0.00  0.00    +0.138 C 
ATOM     18  C   UNL     1     -39.619  21.319   1.875  0.00  0.00    +0.030 C 
BRANCH  17  19
ATOM     19  N   UNL     1     -38.282  23.040   0.800  0.00  0.00    -0.315 N 
ATOM     20  N   UNL     1     -38.287  24.666   2.467  0.00  0.00    -0.233 NA
ATOM     21  N   UNL     1     -38.380  27.000   1.875  0.00  0.00    -0.233 NA
ATOM     22  C   UNL     1     -38.314  24.370   1.150  0.00  0.00    +0.124 C 
ATOM     23  C   UNL     1     -38.373  25.321   0.152  0.00  0.00    +0.197 C 
ATOM     24  C   UNL     1     -38.404  26.633   0.578  0.00  0.00    +0.120 C 
ATOM     25  C   UNL     1     -38.322  25.981   2.753  0.00  0.00    +0.252 C 
ATOM     26  H   UNL     1     -38.302  22.807  -0.157  0.00  0.00    +0.148 HD
ATOM     27  N   UNL     1     -38.467  27.665  -0.392  0.00  0.00    -0.345 N 
ATOM     28  H   UNL     1     -38.490  28.607  -0.108  0.00  0.00    +0.143 HD
ATOM     29  H   UNL     1     -38.488  27.439  -1.351  0.00  0.00    +0.143 HD
BRANCH  23  31
ATOM     30  N   UNL     1     -38.426  24.683  -2.361  0.00  0.00    -0.195 NA
ATOM     31  C   UNL     1     -38.402  24.968  -1.235  0.00  0.00    +0.087 C 
ENDBRANCH  23  31
ENDBRANCH  17  19
ENDBRANCH   4  17
TORSDOF 4
ENDMDL
MODEL 5
REMARK VINA RESULT:      -5.8      3.300      6.392
REMARK  Name = 58459229
REMARK  4 active torsions:
REMARK  status: ('A' for Active; 'I' for Inactive)
REMARK    1  A    between atoms: N_2  and  C_12
REMARK    2  A    between atoms: C_4  and  C_17
REMARK    3  A    between atoms: C_17  and  N_19
REMARK    4  A    between atoms: C_23  and  C_31
REMARK                            x       y       z     vdW  Elec       q    Type
REMARK                         _______ _______ _______ _____ _____    ______ ____
ROOT
ATOM      1  F   UNL     1     -33.596  30.491   2.434  0.00  0.00    -0.204 F 
ATOM      2  N   UNL     1     -35.482  26.088   3.346  0.00  0.00    -0.240 N 
ATOM      3  N   UNL     1     -33.837  25.506   4.722  0.00  0.00    -0.392 NA
ATOM      4  C   UNL     1     -34.963  25.123   4.164  0.00  0.00    +0.185 C 
ATOM      5  C   UNL     1     -34.635  27.165   3.379  0.00  0.00    +0.086 C 
ATOM      6  C   UNL     1     -33.615  26.778   4.244  0.00  0.00    +0.129 C 
ATOM      7  C   UNL     1     -34.670  28.409   2.745  0.00  0.00    +0.047 C 
ATOM      8  C   UNL     1     -32.561  27.669   4.504  0.00  0.00    +0.089 C 
ATOM      9  C   UNL     1     -33.613  29.284   3.016  0.00  0.00    +0.138 C 
ATOM     10  C   UNL     1     -32.576  28.923   3.879  0.00  0.00    +0.011 C 
ENDROOT
BRANCH   2  12
ATOM     11  N   UNL     1     -39.078  26.118   2.551  0.00  0.00    -0.241 NA
ATOM     12  C   UNL     1     -36.663  25.996   2.608  0.00  0.00    +0.077 C 
ATOM     13  C   UNL     1     -36.639  25.701   1.250  0.00  0.00    +0.018 C 
ATOM     14  C   UNL     1     -37.897  26.196   3.207  0.00  0.00    +0.114 C 
ATOM     15  C   UNL     1     -37.832  25.612   0.541  0.00  0.00    +0.022 C 
ATOM     16  C   UNL     1     -39.013  25.828   1.232  0.00  0.00    +0.099 C 
ENDBRANCH   2  12
BRANCH   4  17
ATOM     17  C   UNL     1     -35.620  23.815   4.369  0.00  0.00    +0.138 C 
ATOM     18  C   UNL     1     -35.160  23.070   5.637  0.00  0.00    +0.030 C 
BRANCH  17  19
ATOM     19  N   UNL     1     -35.419  22.929   3.226  0.00  0.00    -0.315 N 
ATOM     20  N   UNL     1     -37.711  22.637   2.937  0.00  0.00    -0.233 NA
ATOM     21  N   UNL     1     -38.534  21.229   1.163  0.00  0.00    -0.233 NA
ATOM     22  C   UNL     1     -36.456  22.355   2.527  0.00  0.00    +0.124 C 
ATOM     23  C   UNL     1     -36.165  21.531   1.460  0.00  0.00    +0.197 C 
ATOM     24  C   UNL     1     -37.255  20.990   0.808  0.00  0.00    +0.120 C 
ATOM     25  C   UNL     1     -38.687  22.049   2.220  0.00  0.00    +0.252 C 
ATOM     26  H   UNL     1     -34.497  22.733   2.941  0.00  0.00    +0.148 HD
ATOM     27  N   UNL     1     -37.033  20.132  -0.297  0.00  0.00    -0.345 N 
ATOM     28  H   UNL     1     -37.798  19.736  -0.775  0.00  0.00    +0.143 HD
ATOM     29  H   UNL     1     -36.113  19.931  -0.588  0.00  0.00    +0.143 HD
BRANCH  23  31
ATOM     30  N   UNL     1     -33.729  21.028   0.729  0.00  0.00    -0.195 NA
ATOM     31  C   UNL     1     -34.820  21.253   1.056  0.00  0.00    +0.087 C 
ENDBRANCH  23  31
ENDBRANCH  17  19
ENDBRANCH   4  17
TORSDOF 4
ENDMDL
MODEL 6
REMARK VINA RESULT:      -5.8      3.481      5.963
REMARK  Name = 58459229
REMARK  4 active torsions:
REMARK  status: ('A' for Active; 'I' for Inactive)
REMARK    1  A    between atoms: N_2  and  C_12
REMARK    2  A    between atoms: C_4  and  C_17
REMARK    3  A    between atoms: C_17  and  N_19
REMARK    4  A    between atoms: C_23  and  C_31
REMARK                            x       y       z     vdW  Elec       q    Type
REMARK                         _______ _______ _______ _____ _____    ______ ____
ROOT
ATOM      1  F   UNL     1     -31.117  20.464  -0.816  0.00  0.00    -0.204 F 
ATOM      2  N   UNL     1     -35.543  21.768   0.761  0.00  0.00    -0.240 N 
ATOM      3  N   UNL     1     -35.715  20.047   2.156  0.00  0.00    -0.392 NA
ATOM      4  C   UNL     1     -36.309  21.122   1.691  0.00  0.00    +0.185 C 
ATOM      5  C   UNL     1     -34.376  21.063   0.617  0.00  0.00    +0.086 C 
ATOM      6  C   UNL     1     -34.507  19.993   1.498  0.00  0.00    +0.129 C 
ATOM      7  C   UNL     1     -33.250  21.263  -0.183  0.00  0.00    +0.047 C 
ATOM      8  C   UNL     1     -33.465  19.057   1.599  0.00  0.00    +0.089 C 
ATOM      9  C   UNL     1     -32.222  20.321  -0.070  0.00  0.00    +0.138 C 
ATOM     10  C   UNL     1     -32.325  19.237   0.805  0.00  0.00    +0.011 C 
ENDROOT
BRANCH   2  12
ATOM     11  N   UNL     1     -37.085  23.992  -1.736  0.00  0.00    -0.241 NA
ATOM     12  C   UNL     1     -35.884  22.937   0.078  0.00  0.00    +0.077 C 
ATOM     13  C   UNL     1     -35.398  24.173   0.486  0.00  0.00    +0.018 C 
ATOM     14  C   UNL     1     -36.718  22.899  -1.029  0.00  0.00    +0.114 C 
ATOM     15  C   UNL     1     -35.754  25.320  -0.216  0.00  0.00    +0.022 C 
ATOM     16  C   UNL     1     -36.592  25.177  -1.310  0.00  0.00    +0.099 C 
ENDBRANCH   2  12
BRANCH   4  17
ATOM     17  C   UNL     1     -37.646  21.607   2.097  0.00  0.00    +0.138 C 
ATOM     18  C   UNL     1     -38.742  21.399   1.034  0.00  0.00    +0.030 C 
BRANCH  17  19
ATOM     19  N   UNL     1     -37.618  23.025   2.446  0.00  0.00    -0.315 N 
ATOM     20  N   UNL     1     -36.324  22.623   4.341  0.00  0.00    -0.233 NA
ATOM     21  N   UNL     1     -35.658  24.455   5.757  0.00  0.00    -0.233 NA
ATOM     22  C   UNL     1     -36.963  23.514   3.553  0.00  0.00    +0.124 C 
ATOM     23  C   UNL     1     -36.993  24.872   3.799  0.00  0.00    +0.197 C 
ATOM     24  C   UNL     1     -36.316  25.289   4.927  0.00  0.00    +0.120 C 
ATOM     25  C   UNL     1     -35.702  23.155   5.409  0.00  0.00    +0.252 C 
ATOM     26  H   UNL     1     -38.090  23.662   1.862  0.00  0.00    +0.148 HD
ATOM     27  N   UNL     1     -36.306  26.670   5.245  0.00  0.00    -0.345 N 
ATOM     28  H   UNL     1     -35.828  26.988   6.046  0.00  0.00    +0.143 HD
ATOM     29  H   UNL     1     -36.776  27.313   4.666  0.00  0.00    +0.143 HD
BRANCH  23  31
ATOM     30  N   UNL     1     -38.244  26.528   2.246  0.00  0.00    -0.195 NA
ATOM     31  C   UNL     1     -37.684  25.786   2.942  0.00  0.00    +0.087 C 
ENDBRANCH  23  31
ENDBRANCH  17  19
ENDBRANCH   4  17
TORSDOF 4
ENDMDL
MODEL 7
REMARK VINA RESULT:      -5.7      6.284      9.342
REMARK  Name = 58459229
REMARK  4 active torsions:
REMARK  status: ('A' for Active; 'I' for Inactive)
REMARK    1  A    between atoms: N_2  and  C_12
REMARK    2  A    between atoms: C_4  and  C_17
REMARK    3  A    between atoms: C_17  and  N_19
REMARK    4  A    between atoms: C_23  and  C_31
REMARK                            x       y       z     vdW  Elec       q    Type
REMARK                         _______ _______ _______ _____ _____    ______ ____
ROOT
ATOM      1  F   UNL     1     -31.769  35.116   2.925  0.00  0.00    -0.204 F 
ATOM      2  N   UNL     1     -32.338  30.317   3.572  0.00  0.00    -0.240 N 
ATOM      3  N   UNL     1     -33.872  30.134   1.975  0.00  0.00    -0.392 NA
ATOM      4  C   UNL     1     -33.180  29.487   2.886  0.00  0.00    +0.185 C 
ATOM      5  C   UNL     1     -32.496  31.583   3.071  0.00  0.00    +0.086 C 
ATOM      6  C   UNL     1     -33.459  31.443   2.076  0.00  0.00    +0.129 C 
ATOM      7  C   UNL     1     -31.898  32.802   3.392  0.00  0.00    +0.047 C 
ATOM      8  C   UNL     1     -33.862  32.576   1.348  0.00  0.00    +0.089 C 
ATOM      9  C   UNL     1     -32.310  33.919   2.658  0.00  0.00    +0.138 C 
ATOM     10  C   UNL     1     -33.275  33.810   1.653  0.00  0.00    +0.011 C 
ENDROOT
BRANCH   2  12
ATOM     11  N   UNL     1     -29.275  29.192   5.279  0.00  0.00    -0.241 NA
ATOM     12  C   UNL     1     -31.470  29.945   4.601  0.00  0.00    +0.077 C 
ATOM     13  C   UNL     1     -31.890  29.940   5.926  0.00  0.00    +0.018 C 
ATOM     14  C   UNL     1     -30.164  29.567   4.332  0.00  0.00    +0.114 C 
ATOM     15  C   UNL     1     -31.004  29.561   6.929  0.00  0.00    +0.022 C 
ATOM     16  C   UNL     1     -29.719  29.200   6.556  0.00  0.00    +0.099 C 
ENDBRANCH   2  12
BRANCH   4  17
ATOM     17  C   UNL     1     -33.275  28.039   3.166  0.00  0.00    +0.138 C 
ATOM     18  C   UNL     1     -32.286  27.175   2.359  0.00  0.00    +0.030 C 
BRANCH  17  19
ATOM     19  N   UNL     1     -34.623  27.532   2.920  0.00  0.00    -0.315 N 
ATOM     20  N   UNL     1     -34.483  26.042   4.704  0.00  0.00    -0.233 NA
ATOM     21  N   UNL     1     -36.341  24.597   5.217  0.00  0.00    -0.233 NA
ATOM     22  C   UNL     1     -35.208  26.550   3.685  0.00  0.00    +0.124 C 
ATOM     23  C   UNL     1     -36.487  26.137   3.374  0.00  0.00    +0.197 C 
ATOM     24  C   UNL     1     -37.009  25.148   4.183  0.00  0.00    +0.120 C 
ATOM     25  C   UNL     1     -35.102  25.084   5.419  0.00  0.00    +0.252 C 
ATOM     26  H   UNL     1     -35.138  27.912   2.171  0.00  0.00    +0.148 HD
ATOM     27  N   UNL     1     -38.318  24.672   3.922  0.00  0.00    -0.345 N 
ATOM     28  H   UNL     1     -38.707  23.966   4.489  0.00  0.00    +0.143 HD
ATOM     29  H   UNL     1     -38.839  25.047   3.175  0.00  0.00    +0.143 HD
BRANCH  23  31
ATOM     30  N   UNL     1     -37.823  27.151   1.397  0.00  0.00    -0.195 NA
ATOM     31  C   UNL     1     -37.225  26.697   2.282  0.00  0.00    +0.087 C 
ENDBRANCH  23  31
ENDBRANCH  17  19
ENDBRANCH   4  17
TORSDOF 4
ENDMDL
MODEL 8
REMARK VINA RESULT:      -5.6      5.252      8.987
REMARK  Name = 58459229
REMARK  4 active torsions:
REMARK  status: ('A' for Active; 'I' for Inactive)
REMARK    1  A    between atoms: N_2  and  C_12
REMARK    2  A    between atoms: C_4  and  C_17
REMARK    3  A    between atoms: C_17  and  N_19
REMARK    4  A    between atoms: C_23  and  C_31
REMARK                            x       y       z     vdW  Elec       q    Type
REMARK                         _______ _______ _______ _____ _____    ______ ____
ROOT
ATOM      1  F   UNL     1     -35.413  23.407   4.991  0.00  0.00    -0.204 F 
ATOM      2  N   UNL     1     -35.303  20.810   0.866  0.00  0.00    -0.240 N 
ATOM      3  N   UNL     1     -37.380  21.355   0.294  0.00  0.00    -0.392 NA
ATOM      4  C   UNL     1     -36.308  20.678  -0.051  0.00  0.00    +0.185 C 
ATOM      5  C   UNL     1     -35.756  21.626   1.870  0.00  0.00    +0.086 C 
ATOM      6  C   UNL     1     -37.055  21.953   1.490  0.00  0.00    +0.129 C 
ATOM      7  C   UNL     1     -35.160  22.094   3.042  0.00  0.00    +0.047 C 
ATOM      8  C   UNL     1     -37.820  22.794   2.317  0.00  0.00    +0.089 C 
ATOM      9  C   UNL     1     -35.935  22.930   3.853  0.00  0.00    +0.138 C 
ATOM     10  C   UNL     1     -37.242  23.275   3.499  0.00  0.00    +0.011 C 
ENDROOT
BRANCH   2  12
ATOM     11  N   UNL     1     -31.777  20.279  -0.055  0.00  0.00    -0.241 NA
ATOM     12  C   UNL     1     -34.040  20.219   0.796  0.00  0.00    +0.077 C 
ATOM     13  C   UNL     1     -33.765  19.032   1.465  0.00  0.00    +0.018 C 
ATOM     14  C   UNL     1     -33.020  20.799   0.057  0.00  0.00    +0.114 C 
ATOM     15  C   UNL     1     -32.498  18.466   1.374  0.00  0.00    +0.022 C 
ATOM     16  C   UNL     1     -31.548  19.123   0.609  0.00  0.00    +0.099 C 
ENDBRANCH   2  12
BRANCH   4  17
ATOM     17  C   UNL     1     -36.168  19.860  -1.274  0.00  0.00    +0.138 C 
ATOM     18  C   UNL     1     -37.082  20.299  -2.435  0.00  0.00    +0.030 C 
BRANCH  17  19
ATOM     19  N   UNL     1     -36.425  18.447  -1.006  0.00  0.00    -0.315 N 
ATOM     20  N   UNL     1     -34.322  17.825  -1.792  0.00  0.00    -0.233 NA
ATOM     21  N   UNL     1     -33.671  15.506  -1.789  0.00  0.00    -0.233 NA
ATOM     22  C   UNL     1     -35.508  17.454  -1.264  0.00  0.00    +0.124 C 
ATOM     23  C   UNL     1     -35.843  16.147  -0.976  0.00  0.00    +0.197 C 
ATOM     24  C   UNL     1     -34.875  15.205  -1.262  0.00  0.00    +0.120 C 
ATOM     25  C   UNL     1     -33.464  16.815  -2.025  0.00  0.00    +0.252 C 
ATOM     26  H   UNL     1     -37.295  18.192  -0.623  0.00  0.00    +0.148 HD
ATOM     27  N   UNL     1     -35.150  13.841  -0.995  0.00  0.00    -0.345 N 
ATOM     28  H   UNL     1     -34.471  13.154  -1.192  0.00  0.00    +0.143 HD
ATOM     29  H   UNL     1     -36.018  13.579  -0.612  0.00  0.00    +0.143 HD
BRANCH  23  31
ATOM     30  N   UNL     1     -38.142  15.501   0.033  0.00  0.00    -0.195 NA
ATOM     31  C   UNL     1     -37.113  15.790  -0.419  0.00  0.00    +0.087 C 
ENDBRANCH  23  31
ENDBRANCH  17  19
ENDBRANCH   4  17
TORSDOF 4
ENDMDL
MODEL 9
REMARK VINA RESULT:      -5.6      3.819      5.929
REMARK  Name = 58459229
REMARK  4 active torsions:
REMARK  status: ('A' for Active; 'I' for Inactive)
REMARK    1  A    between atoms: N_2  and  C_12
REMARK    2  A    between atoms: C_4  and  C_17
REMARK    3  A    between atoms: C_17  and  N_19
REMARK    4  A    between atoms: C_23  and  C_31
REMARK                            x       y       z     vdW  Elec       q    Type
REMARK                         _______ _______ _______ _____ _____    ______ ____
ROOT
ATOM      1  F   UNL     1     -32.002  19.018  -2.151  0.00  0.00    -0.204 F 
ATOM      2  N   UNL     1     -34.470  21.678   1.106  0.00  0.00    -0.240 N 
ATOM      3  N   UNL     1     -34.597  20.021   2.582  0.00  0.00    -0.392 NA
ATOM      4  C   UNL     1     -34.913  21.272   2.334  0.00  0.00    +0.185 C 
ATOM      5  C   UNL     1     -33.826  20.618   0.522  0.00  0.00    +0.086 C 
ATOM      6  C   UNL     1     -33.919  19.596   1.462  0.00  0.00    +0.129 C 
ATOM      7  C   UNL     1     -33.188  20.469  -0.711  0.00  0.00    +0.047 C 
ATOM      8  C   UNL     1     -33.349  18.344   1.173  0.00  0.00    +0.089 C 
ATOM      9  C   UNL     1     -32.626  19.217  -0.982  0.00  0.00    +0.138 C 
ATOM     10  C   UNL     1     -32.704  18.172  -0.058  0.00  0.00    +0.011 C 
ENDROOT
BRANCH   2  12
ATOM     11  N   UNL     1     -35.928  24.412  -0.884  0.00  0.00    -0.241 NA
ATOM     12  C   UNL     1     -34.642  22.944   0.543  0.00  0.00    +0.077 C 
ATOM     13  C   UNL     1     -33.752  23.976   0.815  0.00  0.00    +0.018 C 
ATOM     14  C   UNL     1     -35.706  23.210  -0.304  0.00  0.00    +0.114 C 
ATOM     15  C   UNL     1     -33.947  25.226   0.237  0.00  0.00    +0.022 C 
ATOM     16  C   UNL     1     -35.041  25.390  -0.597  0.00  0.00    +0.099 C 
ENDBRANCH   2  12
BRANCH   4  17
ATOM     17  C   UNL     1     -35.657  22.166   3.247  0.00  0.00    +0.138 C 
ATOM     18  C   UNL     1     -35.597  21.746   4.729  0.00  0.00    +0.030 C 
BRANCH  17  19
ATOM     19  N   UNL     1     -37.063  22.272   2.865  0.00  0.00    -0.315 N 
ATOM     20  N   UNL     1     -37.024  24.594   3.036  0.00  0.00    -0.233 NA
ATOM     21  N   UNL     1     -39.014  25.872   2.573  0.00  0.00    -0.233 NA
ATOM     22  C   UNL     1     -37.726  23.474   2.763  0.00  0.00    +0.124 C 
ATOM     23  C   UNL     1     -39.055  23.472   2.394  0.00  0.00    +0.197 C 
ATOM     24  C   UNL     1     -39.654  24.713   2.314  0.00  0.00    +0.120 C 
ATOM     25  C   UNL     1     -37.721  25.741   2.923  0.00  0.00    +0.252 C 
ATOM     26  H   UNL     1     -37.561  21.445   2.670  0.00  0.00    +0.148 HD
ATOM     27  N   UNL     1     -41.020  24.790   1.943  0.00  0.00    -0.345 N 
ATOM     28  H   UNL     1     -41.465  25.666   1.880  0.00  0.00    +0.143 HD
ATOM     29  H   UNL     1     -41.524  23.966   1.747  0.00  0.00    +0.143 HD
BRANCH  23  31
ATOM     30  N   UNL     1     -40.344  21.281   1.887  0.00  0.00    -0.195 NA
ATOM     31  C   UNL     1     -39.767  22.262   2.114  0.00  0.00    +0.087 C 
ENDBRANCH  23  31
ENDBRANCH  17  19
ENDBRANCH   4  17
TORSDOF 4
ENDMDL
