MODEL 1
REMARK VINA RESULT:      -6.9      0.000      0.000
REMARK  Name = 195731
REMARK  6 active torsions:
REMARK  status: ('A' for Active; 'I' for Inactive)
REMARK    1  A    between atoms: C_11  and  C_19
REMARK    2  A    between atoms: CA_13  and  C_23
REMARK    3  A    between atoms: CA_15  and  C_27
REMARK    4  A    between atoms: C_19  and  O_20
REMARK    5  A    between atoms: C_23  and  O_24
REMARK    6  A    between atoms: C_27  and  O_28
REMARK                            x       y       z     vdW  Elec       q    Type
REMARK                         _______ _______ _______ _____ _____    ______ ____
ROOT
ATOM      1  O   UNL     1     -38.190  26.759   0.679  0.00  0.00    -0.451 OA
ATOM      2  N   UNL     1     -34.952  26.797   4.096  0.00  0.00    -0.321 N 
ATOM      3  N   UNL     1     -37.621  22.705   3.023  0.00  0.00    -0.400 NA
ATOM      4  N   UNL     1     -36.581  27.916   1.870  0.00  0.00    -0.226 NA
ATOM      5  C   UNL     1     -36.162  24.683   3.764  0.00  0.00    +0.037 C 
ATOM      6  C   UNL     1     -35.917  26.115   3.379  0.00  0.00    +0.138 C 
ATOM      7  C   UNL     1     -37.199  23.939   2.965  0.00  0.00    +0.129 C 
ATOM      8  C   UNL     1     -37.912  24.680   1.886  0.00  0.00    +0.050 C 
ATOM      9  C   UNL     1     -36.631  26.658   2.379  0.00  0.00    +0.113 C 
ATOM     10  C   UNL     1     -37.625  25.953   1.637  0.00  0.00    +0.155 C 
ATOM     11  C   UNL     1     -35.449  24.142   4.785  0.00  0.00    +0.077 C 
ATOM     12  C   UNL     1     -38.812  23.729   1.326  0.00  0.00    +0.098 C 
ATOM     13  CA  UNL     1     -34.240  26.218   5.115  0.00  0.00    +0.122 C 
ATOM     14  C   UNL     1     -34.440  24.944   5.486  0.00  0.00    +0.027 C 
ATOM     15  CA  UNL     1     -38.587  22.613   2.033  0.00  0.00    +0.188 C 
ATOM     16  C   UNL     1     -37.471  27.892   0.936  0.00  0.00    +0.337 C 
ATOM     17  H   UNL     1     -34.767  27.736   3.866  0.00  0.00    +0.148 HD
ENDROOT
BRANCH  11  19
ATOM     18  O   UNL     1     -36.063  22.475   6.365  0.00  0.00    -0.245 OA
ATOM     19  C   UNL     1     -35.612  22.762   5.276  0.00  0.00    +0.338 C 
BRANCH  19  20
ATOM     20  O   UNL     1     -35.184  21.902   4.332  0.00  0.00    -0.477 OA
ATOM     21  H   UNL     1     -35.061  20.998   4.544  0.00  0.00    +0.295 HD
ENDBRANCH  19  20
ENDBRANCH  11  19
BRANCH  13  23
ATOM     22  OXT UNL     1     -32.718  26.695   6.878  0.00  0.00    -0.244 OA
ATOM     23  C   UNL     1     -33.234  27.013   5.820  0.00  0.00    +0.351 C 
BRANCH  23  24
ATOM     24  O   UNL     1     -32.973  28.138   5.122  0.00  0.00    -0.476 OA
ATOM     25  H   UNL     1     -32.094  28.334   4.859  0.00  0.00    +0.295 HD
ENDBRANCH  23  24
ENDBRANCH  13  23
BRANCH  15  27
ATOM     26  OXT UNL     1     -40.441  21.132   2.170  0.00  0.00    -0.243 OA
ATOM     27  C   UNL     1     -39.306  21.372   1.783  0.00  0.00    +0.364 C 
BRANCH  27  28
ATOM     28  O   UNL     1     -38.533  20.528   1.062  0.00  0.00    -0.476 OA
ATOM     29  H   UNL     1     -37.733  20.833   0.683  0.00  0.00    +0.295 HD
ENDBRANCH  27  28
ENDBRANCH  15  27
TORSDOF 6
ENDMDL
MODEL 2
REMARK VINA RESULT:      -6.7      2.641      5.501
REMARK  Name = 195731
REMARK  6 active torsions:
REMARK  status: ('A' for Active; 'I' for Inactive)
REMARK    1  A    between atoms: C_11  and  C_19
REMARK    2  A    between atoms: CA_13  and  C_23
REMARK    3  A    between atoms: CA_15  and  C_27
REMARK    4  A    between atoms: C_19  and  O_20
REMARK    5  A    between atoms: C_23  and  O_24
REMARK    6  A    between atoms: C_27  and  O_28
REMARK                            x       y       z     vdW  Elec       q    Type
REMARK                         _______ _______ _______ _____ _____    ______ ____
ROOT
ATOM      1  O   UNL     1     -34.919  24.004   4.701  0.00  0.00    -0.451 OA
ATOM      2  N   UNL     1     -39.202  25.573   3.537  0.00  0.00    -0.321 N 
ATOM      3  N   UNL     1     -37.333  21.333   1.653  0.00  0.00    -0.400 NA
ATOM      4  N   UNL     1     -36.574  25.602   4.934  0.00  0.00    -0.226 NA
ATOM      5  C   UNL     1     -38.478  23.481   2.466  0.00  0.00    +0.037 C 
ATOM      6  C   UNL     1     -38.205  24.624   3.403  0.00  0.00    +0.138 C 
ATOM      7  C   UNL     1     -37.399  22.440   2.342  0.00  0.00    +0.129 C 
ATOM      8  C   UNL     1     -36.147  22.636   3.127  0.00  0.00    +0.050 C 
ATOM      9  C   UNL     1     -37.031  24.675   4.054  0.00  0.00    +0.113 C 
ATOM     10  C   UNL     1     -36.004  23.694   3.919  0.00  0.00    +0.155 C 
ATOM     11  C   UNL     1     -39.661  23.442   1.800  0.00  0.00    +0.077 C 
ATOM     12  C   UNL     1     -35.334  21.512   2.803  0.00  0.00    +0.098 C 
ATOM     13  CA  UNL     1     -40.391  25.498   2.857  0.00  0.00    +0.122 C 
ATOM     14  C   UNL     1     -40.662  24.494   2.010  0.00  0.00    +0.027 C 
ATOM     15  CA  UNL     1     -36.086  20.804   1.948  0.00  0.00    +0.188 C 
ATOM     16  C   UNL     1     -35.402  25.160   5.245  0.00  0.00    +0.337 C 
ATOM     17  H   UNL     1     -39.053  26.332   4.145  0.00  0.00    +0.148 HD
ENDROOT
BRANCH  11  19
ATOM     18  O   UNL     1     -39.992  22.524  -0.369  0.00  0.00    -0.245 OA
ATOM     19  C   UNL     1     -40.039  22.393   0.837  0.00  0.00    +0.338 C 
BRANCH  19  20
ATOM     20  O   UNL     1     -40.436  21.295   1.509  0.00  0.00    -0.477 OA
ATOM     21  H   UNL     1     -41.339  21.046   1.507  0.00  0.00    +0.295 HD
ENDBRANCH  19  20
ENDBRANCH  11  19
BRANCH  13  23
ATOM     22  OXT UNL     1     -42.331  26.759   2.312  0.00  0.00    -0.244 OA
ATOM     23  C   UNL     1     -41.393  26.545   3.061  0.00  0.00    +0.351 C 
BRANCH  23  24
ATOM     24  O   UNL     1     -41.115  27.226   4.192  0.00  0.00    -0.476 OA
ATOM     25  H   UNL     1     -40.263  27.594   4.321  0.00  0.00    +0.295 HD
ENDBRANCH  23  24
ENDBRANCH  13  23
BRANCH  15  27
ATOM     26  OXT UNL     1     -34.459  19.261   1.158  0.00  0.00    -0.243 OA
ATOM     27  C   UNL     1     -35.630  19.553   1.360  0.00  0.00    +0.364 C 
BRANCH  27  28
ATOM     28  O   UNL     1     -36.691  18.766   1.070  0.00  0.00    -0.476 OA
ATOM     29  H   UNL     1     -37.188  18.917   0.291  0.00  0.00    +0.295 HD
ENDBRANCH  27  28
ENDBRANCH  15  27
TORSDOF 6
ENDMDL
MODEL 3
REMARK VINA RESULT:      -6.6      2.539      3.366
REMARK  Name = 195731
REMARK  6 active torsions:
REMARK  status: ('A' for Active; 'I' for Inactive)
REMARK    1  A    between atoms: C_11  and  C_19
REMARK    2  A    between atoms: CA_13  and  C_23
REMARK    3  A    between atoms: CA_15  and  C_27
REMARK    4  A    between atoms: C_19  and  O_20
REMARK    5  A    between atoms: C_23  and  O_24
REMARK    6  A    between atoms: C_27  and  O_28
REMARK                            x       y       z     vdW  Elec       q    Type
REMARK                         _______ _______ _______ _____ _____    ______ ____
ROOT
ATOM      1  O   UNL     1     -41.449  24.087   1.213  0.00  0.00    -0.451 OA
ATOM      2  N   UNL     1     -37.703  24.962   3.927  0.00  0.00    -0.321 N 
ATOM      3  N   UNL     1     -37.926  20.964   0.930  0.00  0.00    -0.400 NA
ATOM      4  N   UNL     1     -40.398  25.447   2.760  0.00  0.00    -0.226 NA
ATOM      5  C   UNL     1     -37.605  22.923   2.556  0.00  0.00    +0.037 C 
ATOM      6  C   UNL     1     -38.341  24.155   3.004  0.00  0.00    +0.138 C 
ATOM      7  C   UNL     1     -38.295  22.061   1.534  0.00  0.00    +0.129 C 
ATOM      8  C   UNL     1     -39.650  22.474   1.073  0.00  0.00    +0.050 C 
ATOM      9  C   UNL     1     -39.560  24.410   2.501  0.00  0.00    +0.113 C 
ATOM     10  C   UNL     1     -40.217  23.579   1.545  0.00  0.00    +0.155 C 
ATOM     11  C   UNL     1     -36.379  22.661   3.078  0.00  0.00    +0.077 C 
ATOM     12  C   UNL     1     -40.034  21.477   0.131  0.00  0.00    +0.098 C 
ATOM     13  CA  UNL     1     -36.459  24.674   4.427  0.00  0.00    +0.122 C 
ATOM     14  C   UNL     1     -35.779  23.580   4.052  0.00  0.00    +0.027 C 
ATOM     15  CA  UNL     1     -38.988  20.639   0.100  0.00  0.00    +0.188 C 
ATOM     16  C   UNL     1     -41.418  25.196   2.010  0.00  0.00    +0.337 C 
ATOM     17  H   UNL     1     -38.160  25.776   4.238  0.00  0.00    +0.148 HD
ENDROOT
BRANCH  11  19
ATOM     18  O   UNL     1     -34.705  21.462   1.889  0.00  0.00    -0.245 OA
ATOM     19  C   UNL     1     -35.567  21.478   2.743  0.00  0.00    +0.338 C 
BRANCH  19  20
ATOM     20  O   UNL     1     -35.938  20.447   3.527  0.00  0.00    -0.477 OA
ATOM     21  H   UNL     1     -36.366  20.611   4.344  0.00  0.00    +0.295 HD
ENDBRANCH  19  20
ENDBRANCH  11  19
BRANCH  13  23
ATOM     22  OXT UNL     1     -34.766  25.419   5.920  0.00  0.00    -0.244 OA
ATOM     23  C   UNL     1     -35.856  25.586   5.399  0.00  0.00    +0.351 C 
BRANCH  23  24
ATOM     24  O   UNL     1     -36.687  26.625   5.625  0.00  0.00    -0.476 OA
ATOM     25  H   UNL     1     -37.300  26.590   6.334  0.00  0.00    +0.295 HD
ENDBRANCH  23  24
ENDBRANCH  13  23
BRANCH  15  27
ATOM     26  OXT UNL     1     -37.944  18.857  -1.076  0.00  0.00    -0.243 OA
ATOM     27  C   UNL     1     -38.958  19.459  -0.750  0.00  0.00    +0.364 C 
BRANCH  27  28
ATOM     28  O   UNL     1     -40.215  19.128  -1.125  0.00  0.00    -0.476 OA
ATOM     29  H   UNL     1     -40.359  18.672  -1.930  0.00  0.00    +0.295 HD
ENDBRANCH  27  28
ENDBRANCH  15  27
TORSDOF 6
ENDMDL
MODEL 4
REMARK VINA RESULT:      -6.5      1.797      5.136
REMARK  Name = 195731
REMARK  6 active torsions:
REMARK  status: ('A' for Active; 'I' for Inactive)
REMARK    1  A    between atoms: C_11  and  C_19
REMARK    2  A    between atoms: CA_13  and  C_23
REMARK    3  A    between atoms: CA_15  and  C_27
REMARK    4  A    between atoms: C_19  and  O_20
REMARK    5  A    between atoms: C_23  and  O_24
REMARK    6  A    between atoms: C_27  and  O_28
REMARK                            x       y       z     vdW  Elec       q    Type
REMARK                         _______ _______ _______ _____ _____    ______ ____
ROOT
ATOM      1  O   UNL     1     -39.615  24.736   1.057  0.00  0.00    -0.451 OA
ATOM      2  N   UNL     1     -36.675  22.911   4.249  0.00  0.00    -0.321 N 
ATOM      3  N   UNL     1     -35.821  27.342   2.092  0.00  0.00    -0.400 NA
ATOM      4  N   UNL     1     -39.090  23.016   2.510  0.00  0.00    -0.226 NA
ATOM      5  C   UNL     1     -36.040  25.088   3.300  0.00  0.00    +0.037 C 
ATOM      6  C   UNL     1     -36.998  23.933   3.376  0.00  0.00    +0.138 C 
ATOM      7  C   UNL     1     -36.408  26.207   2.365  0.00  0.00    +0.129 C 
ATOM      8  C   UNL     1     -37.664  26.072   1.574  0.00  0.00    +0.050 C 
ATOM      9  C   UNL     1     -38.100  23.941   2.607  0.00  0.00    +0.113 C 
ATOM     10  C   UNL     1     -38.435  24.998   1.709  0.00  0.00    +0.155 C 
ATOM     11  C   UNL     1     -34.920  25.068   4.068  0.00  0.00    +0.077 C 
ATOM     12  C   UNL     1     -37.735  27.263   0.796  0.00  0.00    +0.098 C 
ATOM     13  CA  UNL     1     -35.541  22.925   5.019  0.00  0.00    +0.122 C 
ATOM     14  C   UNL     1     -34.664  23.939   4.971  0.00  0.00    +0.027 C 
ATOM     15  CA  UNL     1     -36.638  27.947   1.149  0.00  0.00    +0.188 C 
ATOM     16  C   UNL     1     -39.887  23.529   1.634  0.00  0.00    +0.337 C 
ATOM     17  H   UNL     1     -37.285  22.141   4.321  0.00  0.00    +0.148 HD
ENDROOT
BRANCH  11  19
ATOM     18  O   UNL     1     -32.887  26.096   3.388  0.00  0.00    -0.245 OA
ATOM     19  C   UNL     1     -33.891  26.123   4.068  0.00  0.00    +0.338 C 
BRANCH  19  20
ATOM     20  O   UNL     1     -34.251  27.094   4.930  0.00  0.00    -0.477 OA
ATOM     21  H   UNL     1     -33.599  27.656   5.300  0.00  0.00    +0.295 HD
ENDBRANCH  19  20
ENDBRANCH  11  19
BRANCH  13  23
ATOM     22  OXT UNL     1     -35.172  21.898   7.131  0.00  0.00    -0.244 OA
ATOM     23  C   UNL     1     -35.279  21.803   5.920  0.00  0.00    +0.351 C 
BRANCH  23  24
ATOM     24  O   UNL     1     -35.173  20.662   5.206  0.00  0.00    -0.476 OA
ATOM     25  H   UNL     1     -34.426  20.108   5.315  0.00  0.00    +0.295 HD
ENDBRANCH  23  24
ENDBRANCH  13  23
BRANCH  15  27
ATOM     26  OXT UNL     1     -35.503  29.441  -0.310  0.00  0.00    -0.243 OA
ATOM     27  C   UNL     1     -36.314  29.249   0.585  0.00  0.00    +0.364 C 
BRANCH  27  28
ATOM     28  O   UNL     1     -37.043  30.211   1.196  0.00  0.00    -0.476 OA
ATOM     29  H   UNL     1     -36.666  31.053   1.356  0.00  0.00    +0.295 HD
ENDBRANCH  27  28
ENDBRANCH  15  27
TORSDOF 6
ENDMDL
MODEL 5
REMARK VINA RESULT:      -6.3      1.829      5.156
REMARK  Name = 195731
REMARK  6 active torsions:
REMARK  status: ('A' for Active; 'I' for Inactive)
REMARK    1  A    between atoms: C_11  and  C_19
REMARK    2  A    between atoms: CA_13  and  C_23
REMARK    3  A    between atoms: CA_15  and  C_27
REMARK    4  A    between atoms: C_19  and  O_20
REMARK    5  A    between atoms: C_23  and  O_24
REMARK    6  A    between atoms: C_27  and  O_28
REMARK                            x       y       z     vdW  Elec       q    Type
REMARK                         _______ _______ _______ _____ _____    ______ ____
ROOT
ATOM      1  O   UNL     1     -32.719  26.704   5.417  0.00  0.00    -0.451 OA
ATOM      2  N   UNL     1     -35.654  28.359   2.129  0.00  0.00    -0.321 N 
ATOM      3  N   UNL     1     -36.077  23.726   3.966  0.00  0.00    -0.400 NA
ATOM      4  N   UNL     1     -33.378  28.445   4.046  0.00  0.00    -0.226 NA
ATOM      5  C   UNL     1     -36.033  26.043   2.864  0.00  0.00    +0.037 C 
ATOM      6  C   UNL     1     -35.251  27.324   2.952  0.00  0.00    +0.138 C 
ATOM      7  C   UNL     1     -35.603  24.928   3.777  0.00  0.00    +0.129 C 
ATOM      8  C   UNL     1     -34.432  25.167   4.667  0.00  0.00    +0.050 C 
ATOM      9  C   UNL     1     -34.216  27.404   3.804  0.00  0.00    +0.113 C 
ATOM     10  C   UNL     1     -33.801  26.337   4.656  0.00  0.00    +0.155 C 
ATOM     11  C   UNL     1     -37.069  25.961   1.989  0.00  0.00    +0.077 C 
ATOM     12  C   UNL     1     -34.271  23.952   5.393  0.00  0.00    +0.098 C 
ATOM     13  CA  UNL     1     -36.713  28.248   1.264  0.00  0.00    +0.122 C 
ATOM     14  C   UNL     1     -37.427  27.117   1.159  0.00  0.00    +0.027 C 
ATOM     15  CA  UNL     1     -35.257  23.168   4.934  0.00  0.00    +0.188 C 
ATOM     16  C   UNL     1     -32.581  27.979   4.947  0.00  0.00    +0.337 C 
ATOM     17  H   UNL     1     -35.162  29.210   2.166  0.00  0.00    +0.148 HD
ENDROOT
BRANCH  11  19
ATOM     18  O   UNL     1     -37.728  23.957   0.894  0.00  0.00    -0.245 OA
ATOM     19  C   UNL     1     -37.897  24.759   1.789  0.00  0.00    +0.338 C 
BRANCH  19  20
ATOM     20  O   UNL     1     -38.845  24.707   2.745  0.00  0.00    -0.477 OA
ATOM     21  H   UNL     1     -38.618  24.445   3.615  0.00  0.00    +0.295 HD
ENDBRANCH  19  20
ENDBRANCH  11  19
BRANCH  13  23
ATOM     22  OXT UNL     1     -37.289  29.340  -0.767  0.00  0.00    -0.244 OA
ATOM     23  C   UNL     1     -37.074  29.395   0.432  0.00  0.00    +0.351 C 
BRANCH  23  24
ATOM     24  O   UNL     1     -37.128  30.509   1.192  0.00  0.00    -0.476 OA
ATOM     25  H   UNL     1     -36.534  31.216   1.032  0.00  0.00    +0.295 HD
ENDBRANCH  23  24
ENDBRANCH  13  23
BRANCH  15  27
ATOM     26  OXT UNL     1     -35.065  20.799   4.859  0.00  0.00    -0.243 OA
ATOM     27  C   UNL     1     -35.465  21.811   5.419  0.00  0.00    +0.364 C 
BRANCH  27  28
ATOM     28  O   UNL     1     -36.163  21.837   6.577  0.00  0.00    -0.476 OA
ATOM     29  H   UNL     1     -35.892  22.397   7.276  0.00  0.00    +0.295 HD
ENDBRANCH  27  28
ENDBRANCH  15  27
TORSDOF 6
ENDMDL
MODEL 6
REMARK VINA RESULT:      -6.2      2.857      3.219
REMARK  Name = 195731
REMARK  6 active torsions:
REMARK  status: ('A' for Active; 'I' for Inactive)
REMARK    1  A    between atoms: C_11  and  C_19
REMARK    2  A    between atoms: CA_13  and  C_23
REMARK    3  A    between atoms: CA_15  and  C_27
REMARK    4  A    between atoms: C_19  and  O_20
REMARK    5  A    between atoms: C_23  and  O_24
REMARK    6  A    between atoms: C_27  and  O_28
REMARK                            x       y       z     vdW  Elec       q    Type
REMARK                         _______ _______ _______ _____ _____    ______ ____
ROOT
ATOM      1  O   UNL     1     -32.963  23.949  -0.698  0.00  0.00    -0.451 OA
ATOM      2  N   UNL     1     -32.883  26.476   3.274  0.00  0.00    -0.321 N 
ATOM      3  N   UNL     1     -35.952  22.572   2.682  0.00  0.00    -0.400 NA
ATOM      4  N   UNL     1     -32.070  25.703   0.516  0.00  0.00    -0.226 NA
ATOM      5  C   UNL     1     -34.492  24.619   3.195  0.00  0.00    +0.037 C 
ATOM      6  C   UNL     1     -33.411  25.431   2.539  0.00  0.00    +0.138 C 
ATOM      7  C   UNL     1     -35.047  23.469   2.399  0.00  0.00    +0.129 C 
ATOM      8  C   UNL     1     -34.508  23.245   1.027  0.00  0.00    +0.050 C 
ATOM      9  C   UNL     1     -33.015  25.115   1.295  0.00  0.00    +0.113 C 
ATOM     10  C   UNL     1     -33.557  24.034   0.537  0.00  0.00    +0.155 C 
ATOM     11  C   UNL     1     -34.899  24.951   4.447  0.00  0.00    +0.077 C 
ATOM     12  C   UNL     1     -35.218  22.112   0.537  0.00  0.00    +0.098 C 
ATOM     13  CA  UNL     1     -33.309  26.779   4.542  0.00  0.00    +0.122 C 
ATOM     14  C   UNL     1     -34.275  26.076   5.152  0.00  0.00    +0.027 C 
ATOM     15  CA  UNL     1     -36.033  21.778   1.548  0.00  0.00    +0.188 C 
ATOM     16  C   UNL     1     -32.103  25.002  -0.567  0.00  0.00    +0.337 C 
ATOM     17  H   UNL     1     -32.172  27.025   2.871  0.00  0.00    +0.148 HD
ENDROOT
BRANCH  11  19
ATOM     18  O   UNL     1     -35.769  23.346   5.971  0.00  0.00    -0.245 OA
ATOM     19  C   UNL     1     -35.964  24.253   5.189  0.00  0.00    +0.338 C 
BRANCH  19  20
ATOM     20  O   UNL     1     -37.157  24.783   4.857  0.00  0.00    -0.477 OA
ATOM     21  H   UNL     1     -37.462  25.557   5.287  0.00  0.00    +0.295 HD
ENDBRANCH  19  20
ENDBRANCH  11  19
BRANCH  13  23
ATOM     22  OXT UNL     1     -32.797  29.070   4.918  0.00  0.00    -0.244 OA
ATOM     23  C   UNL     1     -32.692  27.901   5.249  0.00  0.00    +0.351 C 
BRANCH  23  24
ATOM     24  O   UNL     1     -31.997  27.441   6.312  0.00  0.00    -0.476 OA
ATOM     25  H   UNL     1     -31.268  26.867   6.182  0.00  0.00    +0.295 HD
ENDBRANCH  23  24
ENDBRANCH  13  23
BRANCH  15  27
ATOM     26  OXT UNL     1     -37.767  20.474   0.578  0.00  0.00    -0.243 OA
ATOM     27  C   UNL     1     -36.950  20.650   1.471  0.00  0.00    +0.364 C 
BRANCH  27  28
ATOM     28  O   UNL     1     -36.765  19.831   2.531  0.00  0.00    -0.476 OA
ATOM     29  H   UNL     1     -35.912  19.733   2.904  0.00  0.00    +0.295 HD
ENDBRANCH  27  28
ENDBRANCH  15  27
TORSDOF 6
ENDMDL
MODEL 7
REMARK VINA RESULT:      -6.2      2.952      5.995
REMARK  Name = 195731
REMARK  6 active torsions:
REMARK  status: ('A' for Active; 'I' for Inactive)
REMARK    1  A    between atoms: C_11  and  C_19
REMARK    2  A    between atoms: CA_13  and  C_23
REMARK    3  A    between atoms: CA_15  and  C_27
REMARK    4  A    between atoms: C_19  and  O_20
REMARK    5  A    between atoms: C_23  and  O_24
REMARK    6  A    between atoms: C_27  and  O_28
REMARK                            x       y       z     vdW  Elec       q    Type
REMARK                         _______ _______ _______ _____ _____    ______ ____
ROOT
ATOM      1  O   UNL     1     -34.005  26.456  -0.918  0.00  0.00    -0.451 OA
ATOM      2  N   UNL     1     -34.959  23.201   2.347  0.00  0.00    -0.321 N 
ATOM      3  N   UNL     1     -34.764  28.076   3.447  0.00  0.00    -0.400 NA
ATOM      4  N   UNL     1     -34.322  24.231  -0.372  0.00  0.00    -0.226 NA
ATOM      5  C   UNL     1     -34.887  25.533   3.121  0.00  0.00    +0.037 C 
ATOM      6  C   UNL     1     -34.766  24.528   2.011  0.00  0.00    +0.138 C 
ATOM      7  C   UNL     1     -34.698  26.978   2.744  0.00  0.00    +0.129 C 
ATOM      8  C   UNL     1     -34.381  27.292   1.322  0.00  0.00    +0.050 C 
ATOM      9  C   UNL     1     -34.479  24.951   0.768  0.00  0.00    +0.113 C 
ATOM     10  C   UNL     1     -34.284  26.321   0.420  0.00  0.00    +0.155 C 
ATOM     11  C   UNL     1     -35.162  25.099   4.378  0.00  0.00    +0.077 C 
ATOM     12  C   UNL     1     -34.259  28.711   1.281  0.00  0.00    +0.098 C 
ATOM     13  CA  UNL     1     -35.246  22.795   3.625  0.00  0.00    +0.122 C 
ATOM     14  C   UNL     1     -35.355  23.668   4.639  0.00  0.00    +0.027 C 
ATOM     15  CA  UNL     1     -34.494  29.093   2.545  0.00  0.00    +0.188 C 
ATOM     16  C   UNL     1     -34.062  25.134  -1.257  0.00  0.00    +0.337 C 
ATOM     17  H   UNL     1     -34.887  22.519   1.641  0.00  0.00    +0.148 HD
ENDROOT
BRANCH  11  19
ATOM     18  O   UNL     1     -34.374  26.210   6.326  0.00  0.00    -0.245 OA
ATOM     19  C   UNL     1     -35.281  25.977   5.555  0.00  0.00    +0.338 C 
BRANCH  19  20
ATOM     20  O   UNL     1     -36.536  26.461   5.623  0.00  0.00    -0.477 OA
ATOM     21  H   UNL     1     -37.261  25.872   5.693  0.00  0.00    +0.295 HD
ENDBRANCH  19  20
ENDBRANCH  11  19
BRANCH  13  23
ATOM     22  OXT UNL     1     -35.564  20.515   3.032  0.00  0.00    -0.244 OA
ATOM     23  C   UNL     1     -35.438  21.370   3.892  0.00  0.00    +0.351 C 
BRANCH  23  24
ATOM     24  O   UNL     1     -35.456  21.156   5.225  0.00  0.00    -0.476 OA
ATOM     25  H   UNL     1     -34.670  20.907   5.671  0.00  0.00    +0.295 HD
ENDBRANCH  23  24
ENDBRANCH  13  23
BRANCH  15  27
ATOM     26  OXT UNL     1     -33.583  31.284   2.681  0.00  0.00    -0.243 OA
ATOM     27  C   UNL     1     -34.472  30.490   2.955  0.00  0.00    +0.364 C 
BRANCH  27  28
ATOM     28  O   UNL     1     -35.576  30.775   3.681  0.00  0.00    -0.476 OA
ATOM     29  H   UNL     1     -35.865  31.662   3.766  0.00  0.00    +0.295 HD
ENDBRANCH  27  28
ENDBRANCH  15  27
TORSDOF 6
ENDMDL
MODEL 8
REMARK VINA RESULT:      -6.1      2.654      6.628
REMARK  Name = 195731
REMARK  6 active torsions:
REMARK  status: ('A' for Active; 'I' for Inactive)
REMARK    1  A    between atoms: C_11  and  C_19
REMARK    2  A    between atoms: CA_13  and  C_23
REMARK    3  A    between atoms: CA_15  and  C_27
REMARK    4  A    between atoms: C_19  and  O_20
REMARK    5  A    between atoms: C_23  and  O_24
REMARK    6  A    between atoms: C_27  and  O_28
REMARK                            x       y       z     vdW  Elec       q    Type
REMARK                         _______ _______ _______ _____ _____    ______ ____
ROOT
ATOM      1  O   UNL     1     -40.775  25.073   1.919  0.00  0.00    -0.451 OA
ATOM      2  N   UNL     1     -39.314  20.994   0.077  0.00  0.00    -0.321 N 
ATOM      3  N   UNL     1     -36.612  23.486   3.469  0.00  0.00    -0.400 NA
ATOM      4  N   UNL     1     -41.157  23.295   0.490  0.00  0.00    -0.226 NA
ATOM      5  C   UNL     1     -37.810  22.056   1.705  0.00  0.00    +0.037 C 
ATOM      6  C   UNL     1     -39.095  22.062   0.927  0.00  0.00    +0.138 C 
ATOM      7  C   UNL     1     -37.587  23.210   2.645  0.00  0.00    +0.129 C 
ATOM      8  C   UNL     1     -38.632  24.270   2.709  0.00  0.00    +0.050 C 
ATOM      9  C   UNL     1     -39.954  23.083   1.084  0.00  0.00    +0.113 C 
ATOM     10  C   UNL     1     -39.730  24.183   1.964  0.00  0.00    +0.155 C 
ATOM     11  C   UNL     1     -36.937  21.030   1.532  0.00  0.00    +0.077 C 
ATOM     12  C   UNL     1     -38.144  25.207   3.663  0.00  0.00    +0.098 C 
ATOM     13  CA  UNL     1     -38.417  19.967  -0.068  0.00  0.00    +0.122 C 
ATOM     14  C   UNL     1     -37.259  19.935   0.609  0.00  0.00    +0.027 C 
ATOM     15  CA  UNL     1     -36.973  24.687   4.059  0.00  0.00    +0.188 C 
ATOM     16  C   UNL     1     -41.545  24.414   1.003  0.00  0.00    +0.337 C 
ATOM     17  H   UNL     1     -40.148  20.969  -0.446  0.00  0.00    +0.148 HD
ENDROOT
BRANCH  11  19
ATOM     18  O   UNL     1     -34.571  21.190   1.699  0.00  0.00    -0.245 OA
ATOM     19  C   UNL     1     -35.635  20.919   2.214  0.00  0.00    +0.338 C 
BRANCH  19  20
ATOM     20  O   UNL     1     -35.829  20.477   3.472  0.00  0.00    -0.477 OA
ATOM     21  H   UNL     1     -36.110  19.595   3.620  0.00  0.00    +0.295 HD
ENDBRANCH  19  20
ENDBRANCH  11  19
BRANCH  13  23
ATOM     22  OXT UNL     1     -37.899  18.168  -1.533  0.00  0.00    -0.244 OA
ATOM     23  C   UNL     1     -38.731  18.873  -0.987  0.00  0.00    +0.351 C 
BRANCH  23  24
ATOM     24  O   UNL     1     -40.069  18.773  -1.134  0.00  0.00    -0.476 OA
ATOM     25  H   UNL     1     -40.451  18.807  -1.989  0.00  0.00    +0.295 HD
ENDBRANCH  23  24
ENDBRANCH  13  23
BRANCH  15  27
ATOM     26  OXT UNL     1     -35.162  24.813   5.593  0.00  0.00    -0.243 OA
ATOM     27  C   UNL     1     -36.127  25.334   5.050  0.00  0.00    +0.364 C 
BRANCH  27  28
ATOM     28  O   UNL     1     -36.565  26.593   5.281  0.00  0.00    -0.476 OA
ATOM     29  H   UNL     1     -36.084  27.325   4.951  0.00  0.00    +0.295 HD
ENDBRANCH  27  28
ENDBRANCH  15  27
TORSDOF 6
ENDMDL
MODEL 9
REMARK VINA RESULT:      -6.1      2.686      6.338
REMARK  Name = 195731
REMARK  6 active torsions:
REMARK  status: ('A' for Active; 'I' for Inactive)
REMARK    1  A    between atoms: C_11  and  C_19
REMARK    2  A    between atoms: CA_13  and  C_23
REMARK    3  A    between atoms: CA_15  and  C_27
REMARK    4  A    between atoms: C_19  and  O_20
REMARK    5  A    between atoms: C_23  and  O_24
REMARK    6  A    between atoms: C_27  and  O_28
REMARK                            x       y       z     vdW  Elec       q    Type
REMARK                         _______ _______ _______ _____ _____    ______ ____
ROOT
ATOM      1  O   UNL     1     -32.639  26.283   0.256  0.00  0.00    -0.451 OA
ATOM      2  N   UNL     1     -35.487  22.687   1.318  0.00  0.00    -0.321 N 
ATOM      3  N   UNL     1     -33.790  25.841   4.809  0.00  0.00    -0.400 NA
ATOM      4  N   UNL     1     -33.874  24.459  -0.449  0.00  0.00    -0.226 NA
ATOM      5  C   UNL     1     -34.754  24.091   3.199  0.00  0.00    +0.037 C 
ATOM      6  C   UNL     1     -34.744  23.779   1.729  0.00  0.00    +0.138 C 
ATOM      7  C   UNL     1     -33.962  25.293   3.637  0.00  0.00    +0.129 C 
ATOM      8  C   UNL     1     -33.215  26.054   2.596  0.00  0.00    +0.050 C 
ATOM      9  C   UNL     1     -34.029  24.554   0.897  0.00  0.00    +0.113 C 
ATOM     10  C   UNL     1     -33.265  25.682   1.320  0.00  0.00    +0.155 C 
ATOM     11  C   UNL     1     -35.467  23.296   4.038  0.00  0.00    +0.077 C 
ATOM     12  C   UNL     1     -32.575  27.110   3.305  0.00  0.00    +0.098 C 
ATOM     13  CA  UNL     1     -36.206  21.910   2.190  0.00  0.00    +0.122 C 
ATOM     14  C   UNL     1     -36.230  22.160   3.508  0.00  0.00    +0.027 C 
ATOM     15  CA  UNL     1     -32.954  26.922   4.577  0.00  0.00    +0.188 C 
ATOM     16  C   UNL     1     -33.093  25.449  -0.726  0.00  0.00    +0.337 C 
ATOM     17  H   UNL     1     -35.501  22.459   0.360  0.00  0.00    +0.148 HD
ENDROOT
BRANCH  11  19
ATOM     18  O   UNL     1     -34.987  22.756   6.303  0.00  0.00    -0.245 OA
ATOM     19  C   UNL     1     -35.538  23.478   5.498  0.00  0.00    +0.338 C 
BRANCH  19  20
ATOM     20  O   UNL     1     -36.300  24.554   5.775  0.00  0.00    -0.477 OA
ATOM     21  H   UNL     1     -36.667  25.060   5.077  0.00  0.00    +0.295 HD
ENDBRANCH  19  20
ENDBRANCH  11  19
BRANCH  13  23
ATOM     22  OXT UNL     1     -37.689  20.819   0.686  0.00  0.00    -0.244 OA
ATOM     23  C   UNL     1     -36.967  20.775   1.668  0.00  0.00    +0.351 C 
BRANCH  23  24
ATOM     24  O   UNL     1     -36.747  19.688   2.438  0.00  0.00    -0.476 OA
ATOM     25  H   UNL     1     -36.762  18.832   2.056  0.00  0.00    +0.295 HD
ENDBRANCH  23  24
ENDBRANCH  13  23
BRANCH  15  27
ATOM     26  OXT UNL     1     -32.494  29.018   5.600  0.00  0.00    -0.243 OA
ATOM     27  C   UNL     1     -32.520  27.796   5.658  0.00  0.00    +0.364 C 
BRANCH  27  28
ATOM     28  O   UNL     1     -32.152  27.058   6.729  0.00  0.00    -0.476 OA
ATOM     29  H   UNL     1     -32.156  27.439   7.585  0.00  0.00    +0.295 HD
ENDBRANCH  27  28
ENDBRANCH  15  27
TORSDOF 6
ENDMDL
