MODEL 1
REMARK VINA RESULT:      -6.6      0.000      0.000
REMARK  Name = 5464098
REMARK  6 active torsions:
REMARK  status: ('A' for Active; 'I' for Inactive)
REMARK    1  A    between atoms: C_16  and  O_20
REMARK    2  A    between atoms: O_20  and  C_22
REMARK    3  A    between atoms: C_22  and  C_23
REMARK    4  A    between atoms: C_23  and  C_24
REMARK    5  A    between atoms: C_24  and  C_26
REMARK    6  A    between atoms: C_26  and  O_27
REMARK                            x       y       z     vdW  Elec       q    Type
REMARK                         _______ _______ _______ _____ _____    ______ ____
ROOT
ATOM      1  O   UNL     1     -36.788  25.027   4.729  0.00  0.00    -0.218 OA
ATOM      2  O   UNL     1     -35.472  22.706   3.579  0.00  0.00    -0.306 OA
ATOM      3  O   UNL     1     -37.776  22.669   3.242  0.00  0.00    -0.293 OA
ATOM      4  O   UNL     1     -36.501  23.773   5.419  0.00  0.00    -0.197 OA
ATOM      5  C   UNL     1     -36.630  24.858   3.295  0.00  0.00    +0.178 C 
ATOM      6  C   UNL     1     -35.330  25.658   2.959  0.00  0.00    +0.033 C 
ATOM      7  C   UNL     1     -37.884  25.520   2.659  0.00  0.00    +0.039 C 
ATOM      8  C   UNL     1     -35.187  25.963   1.444  0.00  0.00    +0.003 C 
ATOM      9  C   UNL     1     -36.563  23.357   2.913  0.00  0.00    +0.268 C 
ATOM     10  C   UNL     1     -37.691  25.816   1.164  0.00  0.00    +0.003 C 
ATOM     11  C   UNL     1     -39.145  24.667   2.970  0.00  0.00    +0.073 C 
ATOM     12  C   UNL     1     -34.039  25.012   3.511  0.00  0.00    +0.008 C 
ATOM     13  C   UNL     1     -36.447  26.654   0.913  0.00  0.00    +0.000 C 
ATOM     14  C   UNL     1     -35.280  23.246   4.891  0.00  0.00    +0.221 C 
ATOM     15  C   UNL     1     -34.164  24.306   4.864  0.00  0.00    +0.059 C 
ATOM     16  C   UNL     1     -38.948  23.183   2.620  0.00  0.00    +0.292 C 
ATOM     17  C   UNL     1     -33.970  26.841   1.128  0.00  0.00    +0.000 C 
ATOM     18  C   UNL     1     -40.424  25.233   2.349  0.00  0.00    +0.007 C 
ATOM     19  C   UNL     1     -34.888  22.086   5.804  0.00  0.00    +0.064 C 
ENDROOT
BRANCH  16  20
ATOM     20  O   UNL     1     -38.951  22.963   1.215  0.00  0.00    -0.424 OA
BRANCH  20  22
ATOM     21  O   UNL     1     -40.234  21.050   1.112  0.00  0.00    -0.250 OA
ATOM     22  C   UNL     1     -39.233  21.685   0.811  0.00  0.00    +0.319 C 
BRANCH  22  23
ATOM     23  C   UNL     1     -38.106  21.182  -0.067  0.00  0.00    +0.121 C 
BRANCH  23  24
ATOM     24  C   UNL     1     -37.538  19.845   0.395  0.00  0.00    +0.121 C 
BRANCH  24  26
ATOM     25  O   UNL     1     -35.258  20.328   1.029  0.00  0.00    -0.250 OA
ATOM     26  C   UNL     1     -36.399  20.039   1.364  0.00  0.00    +0.314 C 
BRANCH  26  27
ATOM     27  O   UNL     1     -36.779  19.882   2.656  0.00  0.00    -0.480 OA
ATOM     28  H   UNL     1     -37.048  20.626   3.159  0.00  0.00    +0.295 HD
ENDBRANCH  26  27
ENDBRANCH  24  26
ENDBRANCH  23  24
ENDBRANCH  22  23
ENDBRANCH  20  22
ENDBRANCH  16  20
TORSDOF 6
ENDMDL
MODEL 2
REMARK VINA RESULT:      -6.0      2.232      4.712
REMARK  Name = 5464098
REMARK  6 active torsions:
REMARK  status: ('A' for Active; 'I' for Inactive)
REMARK    1  A    between atoms: C_16  and  O_20
REMARK    2  A    between atoms: O_20  and  C_22
REMARK    3  A    between atoms: C_22  and  C_23
REMARK    4  A    between atoms: C_23  and  C_24
REMARK    5  A    between atoms: C_24  and  C_26
REMARK    6  A    between atoms: C_26  and  O_27
REMARK                            x       y       z     vdW  Elec       q    Type
REMARK                         _______ _______ _______ _____ _____    ______ ____
ROOT
ATOM      1  O   UNL     1     -33.765  24.797   2.447  0.00  0.00    -0.218 OA
ATOM      2  O   UNL     1     -36.130  26.205   3.378  0.00  0.00    -0.306 OA
ATOM      3  O   UNL     1     -36.462  25.204   1.302  0.00  0.00    -0.293 OA
ATOM      4  O   UNL     1     -34.069  26.207   2.224  0.00  0.00    -0.197 OA
ATOM      5  C   UNL     1     -34.950  24.098   2.914  0.00  0.00    +0.178 C 
ATOM      6  C   UNL     1     -34.643  23.790   4.416  0.00  0.00    +0.033 C 
ATOM      7  C   UNL     1     -35.020  22.793   2.070  0.00  0.00    +0.039 C 
ATOM      8  C   UNL     1     -35.576  22.700   5.008  0.00  0.00    +0.003 C 
ATOM      9  C   UNL     1     -36.226  24.948   2.692  0.00  0.00    +0.268 C 
ATOM     10  C   UNL     1     -35.942  21.740   2.703  0.00  0.00    +0.003 C 
ATOM     11  C   UNL     1     -35.378  23.137   0.599  0.00  0.00    +0.073 C 
ATOM     12  C   UNL     1     -34.625  25.044   5.319  0.00  0.00    +0.008 C 
ATOM     13  C   UNL     1     -35.548  21.438   4.140  0.00  0.00    +0.000 C 
ATOM     14  C   UNL     1     -34.785  26.693   3.363  0.00  0.00    +0.221 C 
ATOM     15  C   UNL     1     -34.078  26.325   4.682  0.00  0.00    +0.059 C 
ATOM     16  C   UNL     1     -36.617  24.042   0.494  0.00  0.00    +0.292 C 
ATOM     17  C   UNL     1     -35.205  22.320   6.447  0.00  0.00    +0.000 C 
ATOM     18  C   UNL     1     -35.501  21.901  -0.296  0.00  0.00    +0.007 C 
ATOM     19  C   UNL     1     -34.856  28.210   3.206  0.00  0.00    +0.064 C 
ENDROOT
BRANCH  16  20
ATOM     20  O   UNL     1     -37.816  23.338   0.790  0.00  0.00    -0.424 OA
BRANCH  20  22
ATOM     21  O   UNL     1     -39.126  24.671  -0.562  0.00  0.00    -0.250 OA
ATOM     22  C   UNL     1     -38.980  23.962   0.424  0.00  0.00    +0.319 C 
BRANCH  22  23
ATOM     23  C   UNL     1     -40.058  23.635   1.437  0.00  0.00    +0.121 C 
BRANCH  23  24
ATOM     24  C   UNL     1     -39.804  24.261   2.804  0.00  0.00    +0.121 C 
BRANCH  24  26
ATOM     25  O   UNL     1     -41.046  26.259   2.253  0.00  0.00    -0.250 OA
ATOM     26  C   UNL     1     -40.070  25.745   2.785  0.00  0.00    +0.314 C 
BRANCH  26  27
ATOM     27  O   UNL     1     -39.119  26.455   3.441  0.00  0.00    -0.480 OA
ATOM     28  H   UNL     1     -38.823  26.173   4.284  0.00  0.00    +0.295 HD
ENDBRANCH  26  27
ENDBRANCH  24  26
ENDBRANCH  23  24
ENDBRANCH  22  23
ENDBRANCH  20  22
ENDBRANCH  16  20
TORSDOF 6
ENDMDL
MODEL 3
REMARK VINA RESULT:      -6.0      2.124      5.992
REMARK  Name = 5464098
REMARK  6 active torsions:
REMARK  status: ('A' for Active; 'I' for Inactive)
REMARK    1  A    between atoms: C_16  and  O_20
REMARK    2  A    between atoms: O_20  and  C_22
REMARK    3  A    between atoms: C_22  and  C_23
REMARK    4  A    between atoms: C_23  and  C_24
REMARK    5  A    between atoms: C_24  and  C_26
REMARK    6  A    between atoms: C_26  and  O_27
REMARK                            x       y       z     vdW  Elec       q    Type
REMARK                         _______ _______ _______ _____ _____    ______ ____
ROOT
ATOM      1  O   UNL     1     -38.612  23.099   3.370  0.00  0.00    -0.218 OA
ATOM      2  O   UNL     1     -37.871  25.565   2.022  0.00  0.00    -0.306 OA
ATOM      3  O   UNL     1     -36.798  25.327   4.074  0.00  0.00    -0.293 OA
ATOM      4  O   UNL     1     -39.311  24.377   3.470  0.00  0.00    -0.197 OA
ATOM      5  C   UNL     1     -37.304  23.291   2.768  0.00  0.00    +0.178 C 
ATOM      6  C   UNL     1     -37.441  22.653   1.348  0.00  0.00    +0.033 C 
ATOM      7  C   UNL     1     -36.316  22.485   3.660  0.00  0.00    +0.039 C 
ATOM      8  C   UNL     1     -36.068  22.371   0.681  0.00  0.00    +0.003 C 
ATOM      9  C   UNL     1     -36.909  24.790   2.751  0.00  0.00    +0.268 C 
ATOM     10  C   UNL     1     -34.979  22.219   2.952  0.00  0.00    +0.003 C 
ATOM     11  C   UNL     1     -36.167  23.180   5.040  0.00  0.00    +0.073 C 
ATOM     12  C   UNL     1     -38.361  23.447   0.393  0.00  0.00    +0.008 C 
ATOM     13  C   UNL     1     -35.180  21.536   1.608  0.00  0.00    +0.000 C 
ATOM     14  C   UNL     1     -39.193  25.048   2.213  0.00  0.00    +0.221 C 
ATOM     15  C   UNL     1     -39.572  24.129   1.036  0.00  0.00    +0.059 C 
ATOM     16  C   UNL     1     -35.846  24.678   4.910  0.00  0.00    +0.292 C 
ATOM     17  C   UNL     1     -36.200  21.647  -0.664  0.00  0.00    +0.000 C 
ATOM     18  C   UNL     1     -35.182  22.468   5.970  0.00  0.00    +0.007 C 
ATOM     19  C   UNL     1     -40.141  26.244   2.277  0.00  0.00    +0.064 C 
ENDROOT
BRANCH  16  20
ATOM     20  O   UNL     1     -34.510  24.900   4.476  0.00  0.00    -0.424 OA
BRANCH  20  22
ATOM     21  O   UNL     1     -34.061  26.626   5.937  0.00  0.00    -0.250 OA
ATOM     22  C   UNL     1     -33.955  26.099   4.838  0.00  0.00    +0.319 C 
BRANCH  22  23
ATOM     23  C   UNL     1     -33.191  26.669   3.661  0.00  0.00    +0.121 C 
BRANCH  23  24
ATOM     24  C   UNL     1     -34.092  27.052   2.493  0.00  0.00    +0.121 C 
BRANCH  24  26
ATOM     25  O   UNL     1     -34.580  29.248   3.375  0.00  0.00    -0.250 OA
ATOM     26  C   UNL     1     -34.979  28.219   2.846  0.00  0.00    +0.314 C 
BRANCH  26  27
ATOM     27  O   UNL     1     -36.273  28.017   2.493  0.00  0.00    -0.480 OA
ATOM     28  H   UNL     1     -36.503  27.930   1.589  0.00  0.00    +0.295 HD
ENDBRANCH  26  27
ENDBRANCH  24  26
ENDBRANCH  23  24
ENDBRANCH  22  23
ENDBRANCH  20  22
ENDBRANCH  16  20
TORSDOF 6
ENDMDL
MODEL 4
REMARK VINA RESULT:      -5.9      1.979      5.179
REMARK  Name = 5464098
REMARK  6 active torsions:
REMARK  status: ('A' for Active; 'I' for Inactive)
REMARK    1  A    between atoms: C_16  and  O_20
REMARK    2  A    between atoms: O_20  and  C_22
REMARK    3  A    between atoms: C_22  and  C_23
REMARK    4  A    between atoms: C_23  and  C_24
REMARK    5  A    between atoms: C_24  and  C_26
REMARK    6  A    between atoms: C_26  and  O_27
REMARK                            x       y       z     vdW  Elec       q    Type
REMARK                         _______ _______ _______ _____ _____    ______ ____
ROOT
ATOM      1  O   UNL     1     -38.185  23.952   0.765  0.00  0.00    -0.218 OA
ATOM      2  O   UNL     1     -38.293  25.650   3.120  0.00  0.00    -0.306 OA
ATOM      3  O   UNL     1     -37.545  23.502   3.618  0.00  0.00    -0.293 OA
ATOM      4  O   UNL     1     -39.343  24.145   1.633  0.00  0.00    -0.197 OA
ATOM      5  C   UNL     1     -36.987  24.461   1.409  0.00  0.00    +0.178 C 
ATOM      6  C   UNL     1     -36.636  25.750   0.598  0.00  0.00    +0.033 C 
ATOM      7  C   UNL     1     -35.910  23.356   1.213  0.00  0.00    +0.039 C 
ATOM      8  C   UNL     1     -35.180  26.232   0.835  0.00  0.00    +0.003 C 
ATOM      9  C   UNL     1     -37.226  24.712   2.920  0.00  0.00    +0.268 C 
ATOM     10  C   UNL     1     -34.486  23.883   1.444  0.00  0.00    +0.003 C 
ATOM     11  C   UNL     1     -36.266  22.115   2.075  0.00  0.00    +0.073 C 
ATOM     12  C   UNL     1     -37.637  26.909   0.804  0.00  0.00    +0.008 C 
ATOM     13  C   UNL     1     -34.187  25.095   0.575  0.00  0.00    +0.000 C 
ATOM     14  C   UNL     1     -39.310  25.487   2.126  0.00  0.00    +0.221 C 
ATOM     15  C   UNL     1     -39.103  26.508   0.991  0.00  0.00    +0.059 C 
ATOM     16  C   UNL     1     -36.554  22.483   3.540  0.00  0.00    +0.292 C 
ATOM     17  C   UNL     1     -34.802  27.431  -0.042  0.00  0.00    +0.000 C 
ATOM     18  C   UNL     1     -35.235  20.989   1.966  0.00  0.00    +0.007 C 
ATOM     19  C   UNL     1     -40.654  25.722   2.811  0.00  0.00    +0.064 C 
ENDROOT
BRANCH  16  20
ATOM     20  O   UNL     1     -35.369  22.831   4.244  0.00  0.00    -0.424 OA
BRANCH  20  22
ATOM     21  O   UNL     1     -35.911  22.163   6.384  0.00  0.00    -0.250 OA
ATOM     22  C   UNL     1     -35.507  23.007   5.596  0.00  0.00    +0.319 C 
BRANCH  22  23
ATOM     23  C   UNL     1     -35.083  24.414   5.960  0.00  0.00    +0.121 C 
BRANCH  23  24
ATOM     24  C   UNL     1     -34.225  25.077   4.888  0.00  0.00    +0.121 C 
BRANCH  24  26
ATOM     25  O   UNL     1     -33.801  27.393   4.348  0.00  0.00    -0.250 OA
ATOM     26  C   UNL     1     -34.587  26.530   4.718  0.00  0.00    +0.314 C 
BRANCH  26  27
ATOM     27  O   UNL     1     -35.890  26.781   5.000  0.00  0.00    -0.480 OA
ATOM     28  H   UNL     1     -36.135  27.081   5.853  0.00  0.00    +0.295 HD
ENDBRANCH  26  27
ENDBRANCH  24  26
ENDBRANCH  23  24
ENDBRANCH  22  23
ENDBRANCH  20  22
ENDBRANCH  16  20
TORSDOF 6
ENDMDL
MODEL 5
REMARK VINA RESULT:      -5.9      1.947      4.669
REMARK  Name = 5464098
REMARK  6 active torsions:
REMARK  status: ('A' for Active; 'I' for Inactive)
REMARK    1  A    between atoms: C_16  and  O_20
REMARK    2  A    between atoms: O_20  and  C_22
REMARK    3  A    between atoms: C_22  and  C_23
REMARK    4  A    between atoms: C_23  and  C_24
REMARK    5  A    between atoms: C_24  and  C_26
REMARK    6  A    between atoms: C_26  and  O_27
REMARK                            x       y       z     vdW  Elec       q    Type
REMARK                         _______ _______ _______ _____ _____    ______ ____
ROOT
ATOM      1  O   UNL     1     -34.098  24.118   1.339  0.00  0.00    -0.218 OA
ATOM      2  O   UNL     1     -36.327  25.981   1.315  0.00  0.00    -0.306 OA
ATOM      3  O   UNL     1     -37.016  23.781   0.990  0.00  0.00    -0.293 OA
ATOM      4  O   UNL     1     -34.606  24.835   0.173  0.00  0.00    -0.197 OA
ATOM      5  C   UNL     1     -35.052  24.199   2.431  0.00  0.00    +0.178 C 
ATOM      6  C   UNL     1     -34.371  25.156   3.462  0.00  0.00    +0.033 C 
ATOM      7  C   UNL     1     -35.165  22.752   2.989  0.00  0.00    +0.039 C 
ATOM      8  C   UNL     1     -35.007  25.068   4.875  0.00  0.00    +0.003 C 
ATOM      9  C   UNL     1     -36.434  24.690   1.932  0.00  0.00    +0.268 C 
ATOM     10  C   UNL     1     -35.787  22.717   4.394  0.00  0.00    +0.003 C 
ATOM     11  C   UNL     1     -35.894  21.846   1.960  0.00  0.00    +0.073 C 
ATOM     12  C   UNL     1     -34.288  26.625   2.990  0.00  0.00    +0.008 C 
ATOM     13  C   UNL     1     -35.036  23.617   5.363  0.00  0.00    +0.000 C 
ATOM     14  C   UNL     1     -35.088  26.109   0.611  0.00  0.00    +0.221 C 
ATOM     15  C   UNL     1     -34.057  26.839   1.491  0.00  0.00    +0.059 C 
ATOM     16  C   UNL     1     -37.219  22.458   1.476  0.00  0.00    +0.292 C 
ATOM     17  C   UNL     1     -34.271  25.925   5.912  0.00  0.00    +0.000 C 
ATOM     18  C   UNL     1     -36.078  20.407   2.447  0.00  0.00    +0.007 C 
ATOM     19  C   UNL     1     -35.369  26.915  -0.655  0.00  0.00    +0.064 C 
ENDROOT
BRANCH  16  20
ATOM     20  O   UNL     1     -38.227  22.403   2.477  0.00  0.00    -0.424 OA
BRANCH  20  22
ATOM     21  O   UNL     1     -40.099  21.257   1.770  0.00  0.00    -0.250 OA
ATOM     22  C   UNL     1     -39.516  22.302   2.023  0.00  0.00    +0.319 C 
BRANCH  22  23
ATOM     23  C   UNL     1     -40.103  23.691   1.881  0.00  0.00    +0.121 C 
BRANCH  23  24
ATOM     24  C   UNL     1     -40.003  24.517   3.158  0.00  0.00    +0.121 C 
BRANCH  24  26
ATOM     25  O   UNL     1     -40.542  26.654   2.168  0.00  0.00    -0.250 OA
ATOM     26  C   UNL     1     -39.783  25.976   2.849  0.00  0.00    +0.314 C 
BRANCH  26  27
ATOM     27  O   UNL     1     -38.660  26.470   3.428  0.00  0.00    -0.480 OA
ATOM     28  H   UNL     1     -38.599  27.384   3.625  0.00  0.00    +0.295 HD
ENDBRANCH  26  27
ENDBRANCH  24  26
ENDBRANCH  23  24
ENDBRANCH  22  23
ENDBRANCH  20  22
ENDBRANCH  16  20
TORSDOF 6
ENDMDL
MODEL 6
REMARK VINA RESULT:      -5.7      2.457      4.958
REMARK  Name = 5464098
REMARK  6 active torsions:
REMARK  status: ('A' for Active; 'I' for Inactive)
REMARK    1  A    between atoms: C_16  and  O_20
REMARK    2  A    between atoms: O_20  and  C_22
REMARK    3  A    between atoms: C_22  and  C_23
REMARK    4  A    between atoms: C_23  and  C_24
REMARK    5  A    between atoms: C_24  and  C_26
REMARK    6  A    between atoms: C_26  and  O_27
REMARK                            x       y       z     vdW  Elec       q    Type
REMARK                         _______ _______ _______ _____ _____    ______ ____
ROOT
ATOM      1  O   UNL     1     -35.803  25.165   2.091  0.00  0.00    -0.218 OA
ATOM      2  O   UNL     1     -37.304  24.416   4.464  0.00  0.00    -0.306 OA
ATOM      3  O   UNL     1     -38.646  25.438   2.859  0.00  0.00    -0.293 OA
ATOM      4  O   UNL     1     -35.981  25.981   3.289  0.00  0.00    -0.197 OA
ATOM      5  C   UNL     1     -36.743  24.059   2.096  0.00  0.00    +0.178 C 
ATOM      6  C   UNL     1     -35.852  22.803   2.364  0.00  0.00    +0.033 C 
ATOM      7  C   UNL     1     -37.352  24.027   0.665  0.00  0.00    +0.039 C 
ATOM      8  C   UNL     1     -36.566  21.472   2.007  0.00  0.00    +0.003 C 
ATOM      9  C   UNL     1     -37.860  24.276   3.148  0.00  0.00    +0.268 C 
ATOM     10  C   UNL     1     -38.035  22.687   0.353  0.00  0.00    +0.003 C 
ATOM     11  C   UNL     1     -38.272  25.261   0.457  0.00  0.00    +0.073 C 
ATOM     12  C   UNL     1     -35.270  22.744   3.795  0.00  0.00    +0.008 C 
ATOM     13  C   UNL     1     -37.093  21.513   0.569  0.00  0.00    +0.000 C 
ATOM     14  C   UNL     1     -36.050  25.105   4.417  0.00  0.00    +0.221 C 
ATOM     15  C   UNL     1     -34.893  24.089   4.424  0.00  0.00    +0.059 C 
ATOM     16  C   UNL     1     -39.295  25.426   1.592  0.00  0.00    +0.292 C 
ATOM     17  C   UNL     1     -35.656  20.249   2.167  0.00  0.00    +0.000 C 
ATOM     18  C   UNL     1     -38.941  25.290  -0.919  0.00  0.00    +0.007 C 
ATOM     19  C   UNL     1     -35.978  25.997   5.654  0.00  0.00    +0.064 C 
ENDROOT
BRANCH  16  20
ATOM     20  O   UNL     1     -40.325  24.449   1.526  0.00  0.00    -0.424 OA
BRANCH  20  22
ATOM     21  O   UNL     1     -42.488  24.229   0.755  0.00  0.00    -0.250 OA
ATOM     22  C   UNL     1     -41.569  24.912   1.186  0.00  0.00    +0.319 C 
BRANCH  22  23
ATOM     23  C   UNL     1     -41.625  26.406   1.427  0.00  0.00    +0.121 C 
BRANCH  23  24
ATOM     24  C   UNL     1     -42.638  26.803   2.494  0.00  0.00    +0.121 C 
BRANCH  24  26
ATOM     25  O   UNL     1     -42.379  28.693   3.978  0.00  0.00    -0.250 OA
ATOM     26  C   UNL     1     -41.986  27.597   3.598  0.00  0.00    +0.314 C 
BRANCH  26  27
ATOM     27  O   UNL     1     -40.925  26.955   4.147  0.00  0.00    -0.480 OA
ATOM     28  H   UNL     1     -40.507  27.308   4.908  0.00  0.00    +0.295 HD
ENDBRANCH  26  27
ENDBRANCH  24  26
ENDBRANCH  23  24
ENDBRANCH  22  23
ENDBRANCH  20  22
ENDBRANCH  16  20
TORSDOF 6
ENDMDL
MODEL 7
REMARK VINA RESULT:      -5.7      2.613      6.477
REMARK  Name = 5464098
REMARK  6 active torsions:
REMARK  status: ('A' for Active; 'I' for Inactive)
REMARK    1  A    between atoms: C_16  and  O_20
REMARK    2  A    between atoms: O_20  and  C_22
REMARK    3  A    between atoms: C_22  and  C_23
REMARK    4  A    between atoms: C_23  and  C_24
REMARK    5  A    between atoms: C_24  and  C_26
REMARK    6  A    between atoms: C_26  and  O_27
REMARK                            x       y       z     vdW  Elec       q    Type
REMARK                         _______ _______ _______ _____ _____    ______ ____
ROOT
ATOM      1  O   UNL     1     -38.670  23.283   3.283  0.00  0.00    -0.218 OA
ATOM      2  O   UNL     1     -37.756  25.223   1.323  0.00  0.00    -0.306 OA
ATOM      3  O   UNL     1     -36.577  25.373   3.325  0.00  0.00    -0.293 OA
ATOM      4  O   UNL     1     -39.215  24.623   3.080  0.00  0.00    -0.197 OA
ATOM      5  C   UNL     1     -37.393  23.155   2.603  0.00  0.00    +0.178 C 
ATOM      6  C   UNL     1     -37.697  22.204   1.400  0.00  0.00    +0.033 C 
ATOM      7  C   UNL     1     -36.442  22.480   3.633  0.00  0.00    +0.039 C 
ATOM      8  C   UNL     1     -36.413  21.597   0.775  0.00  0.00    +0.003 C 
ATOM      9  C   UNL     1     -36.837  24.540   2.188  0.00  0.00    +0.268 C 
ATOM     10  C   UNL     1     -35.194  21.882   2.967  0.00  0.00    +0.003 C 
ATOM     11  C   UNL     1     -36.122  23.473   4.783  0.00  0.00    +0.073 C 
ATOM     12  C   UNL     1     -38.587  22.843   0.309  0.00  0.00    +0.008 C 
ATOM     13  C   UNL     1     -35.561  20.916   1.850  0.00  0.00    +0.000 C 
ATOM     14  C   UNL     1     -39.110  24.939   1.689  0.00  0.00    +0.221 C 
ATOM     15  C   UNL     1     -39.668  23.810   0.803  0.00  0.00    +0.059 C 
ATOM     16  C   UNL     1     -35.647  24.839   4.262  0.00  0.00    +0.292 C 
ATOM     17  C   UNL     1     -36.716  20.582  -0.334  0.00  0.00    +0.000 C 
ATOM     18  C   UNL     1     -35.161  22.898   5.826  0.00  0.00    +0.007 C 
ATOM     19  C   UNL     1     -39.913  26.221   1.482  0.00  0.00    +0.064 C 
ENDROOT
BRANCH  16  20
ATOM     20  O   UNL     1     -34.328  24.778   3.734  0.00  0.00    -0.424 OA
BRANCH  20  22
ATOM     21  O   UNL     1     -32.489  26.132   3.419  0.00  0.00    -0.250 OA
ATOM     22  C   UNL     1     -33.524  25.854   4.007  0.00  0.00    +0.319 C 
BRANCH  22  23
ATOM     23  C   UNL     1     -34.121  26.641   5.155  0.00  0.00    +0.121 C 
BRANCH  23  24
ATOM     24  C   UNL     1     -33.216  26.690   6.381  0.00  0.00    +0.121 C 
BRANCH  24  26
ATOM     25  O   UNL     1     -32.436  28.893   5.769  0.00  0.00    -0.250 OA
ATOM     26  C   UNL     1     -32.202  27.800   6.268  0.00  0.00    +0.314 C 
BRANCH  26  27
ATOM     27  O   UNL     1     -31.000  27.466   6.800  0.00  0.00    -0.480 OA
ATOM     28  H   UNL     1     -30.637  26.617   6.639  0.00  0.00    +0.295 HD
ENDBRANCH  26  27
ENDBRANCH  24  26
ENDBRANCH  23  24
ENDBRANCH  22  23
ENDBRANCH  20  22
ENDBRANCH  16  20
TORSDOF 6
ENDMDL
MODEL 8
REMARK VINA RESULT:      -5.7      2.846      5.604
REMARK  Name = 5464098
REMARK  6 active torsions:
REMARK  status: ('A' for Active; 'I' for Inactive)
REMARK    1  A    between atoms: C_16  and  O_20
REMARK    2  A    between atoms: O_20  and  C_22
REMARK    3  A    between atoms: C_22  and  C_23
REMARK    4  A    between atoms: C_23  and  C_24
REMARK    5  A    between atoms: C_24  and  C_26
REMARK    6  A    between atoms: C_26  and  O_27
REMARK                            x       y       z     vdW  Elec       q    Type
REMARK                         _______ _______ _______ _____ _____    ______ ____
ROOT
ATOM      1  O   UNL     1     -35.182  22.561  -1.260  0.00  0.00    -0.218 OA
ATOM      2  O   UNL     1     -33.303  24.105   0.330  0.00  0.00    -0.306 OA
ATOM      3  O   UNL     1     -35.467  24.204   1.183  0.00  0.00    -0.293 OA
ATOM      4  O   UNL     1     -34.813  23.956  -1.480  0.00  0.00    -0.197 OA
ATOM      5  C   UNL     1     -34.741  22.129   0.055  0.00  0.00    +0.178 C 
ATOM      6  C   UNL     1     -33.559  21.151  -0.243  0.00  0.00    +0.033 C 
ATOM      7  C   UNL     1     -35.955  21.379   0.673  0.00  0.00    +0.039 C 
ATOM      8  C   UNL     1     -33.200  20.255   0.972  0.00  0.00    +0.003 C 
ATOM      9  C   UNL     1     -34.351  23.339   0.941  0.00  0.00    +0.268 C 
ATOM     10  C   UNL     1     -35.550  20.495   1.862  0.00  0.00    +0.003 C 
ATOM     11  C   UNL     1     -37.086  22.391   1.003  0.00  0.00    +0.073 C 
ATOM     12  C   UNL     1     -32.297  21.849  -0.799  0.00  0.00    +0.008 C 
ATOM     13  C   UNL     1     -34.443  19.522   1.486  0.00  0.00    +0.000 C 
ATOM     14  C   UNL     1     -33.446  24.121  -1.094  0.00  0.00    +0.221 C 
ATOM     15  C   UNL     1     -32.541  23.046  -1.724  0.00  0.00    +0.059 C 
ATOM     16  C   UNL     1     -36.579  23.588   1.824  0.00  0.00    +0.292 C 
ATOM     17  C   UNL     1     -32.114  19.222   0.648  0.00  0.00    +0.000 C 
ATOM     18  C   UNL     1     -38.310  21.738   1.649  0.00  0.00    +0.007 C 
ATOM     19  C   UNL     1     -33.032  25.509  -1.575  0.00  0.00    +0.064 C 
ENDROOT
BRANCH  16  20
ATOM     20  O   UNL     1     -36.292  23.228   3.169  0.00  0.00    -0.424 OA
BRANCH  20  22
ATOM     21  O   UNL     1     -37.756  24.732   4.123  0.00  0.00    -0.250 OA
ATOM     22  C   UNL     1     -36.697  24.120   4.127  0.00  0.00    +0.319 C 
BRANCH  22  23
ATOM     23  C   UNL     1     -35.623  24.229   5.189  0.00  0.00    +0.121 C 
BRANCH  23  24
ATOM     24  C   UNL     1     -34.713  23.008   5.249  0.00  0.00    +0.121 C 
BRANCH  24  26
ATOM     25  O   UNL     1     -36.177  21.989   6.879  0.00  0.00    -0.250 OA
ATOM     26  C   UNL     1     -35.388  21.858   5.952  0.00  0.00    +0.314 C 
BRANCH  26  27
ATOM     27  O   UNL     1     -35.044  20.653   5.433  0.00  0.00    -0.480 OA
ATOM     28  H   UNL     1     -34.808  20.584   4.528  0.00  0.00    +0.295 HD
ENDBRANCH  26  27
ENDBRANCH  24  26
ENDBRANCH  23  24
ENDBRANCH  22  23
ENDBRANCH  20  22
ENDBRANCH  16  20
TORSDOF 6
ENDMDL
MODEL 9
REMARK VINA RESULT:      -5.6      2.055      5.795
REMARK  Name = 5464098
REMARK  6 active torsions:
REMARK  status: ('A' for Active; 'I' for Inactive)
REMARK    1  A    between atoms: C_16  and  O_20
REMARK    2  A    between atoms: O_20  and  C_22
REMARK    3  A    between atoms: C_22  and  C_23
REMARK    4  A    between atoms: C_23  and  C_24
REMARK    5  A    between atoms: C_24  and  C_26
REMARK    6  A    between atoms: C_26  and  O_27
REMARK                            x       y       z     vdW  Elec       q    Type
REMARK                         _______ _______ _______ _____ _____    ______ ____
ROOT
ATOM      1  O   UNL     1     -34.895  21.763  -0.062  0.00  0.00    -0.218 OA
ATOM      2  O   UNL     1     -35.362  20.040   2.230  0.00  0.00    -0.306 OA
ATOM      3  O   UNL     1     -34.875  22.228   2.859  0.00  0.00    -0.293 OA
ATOM      4  O   UNL     1     -33.891  20.955   0.624  0.00  0.00    -0.197 OA
ATOM      5  C   UNL     1     -36.099  21.856   0.744  0.00  0.00    +0.178 C 
ATOM      6  C   UNL     1     -37.140  20.978  -0.023  0.00  0.00    +0.033 C 
ATOM      7  C   UNL     1     -36.497  23.359   0.722  0.00  0.00    +0.039 C 
ATOM      8  C   UNL     1     -38.601  21.254   0.419  0.00  0.00    +0.003 C 
ATOM      9  C   UNL     1     -35.835  21.394   2.200  0.00  0.00    +0.268 C 
ATOM     10  C   UNL     1     -37.955  23.581   1.153  0.00  0.00    +0.003 C 
ATOM     11  C   UNL     1     -35.470  24.189   1.538  0.00  0.00    +0.073 C 
ATOM     12  C   UNL     1     -36.832  19.464   0.020  0.00  0.00    +0.008 C 
ATOM     13  C   UNL     1     -38.920  22.749   0.322  0.00  0.00    +0.000 C 
ATOM     14  C   UNL     1     -34.527  19.766   1.099  0.00  0.00    +0.221 C 
ATOM     15  C   UNL     1     -35.350  19.077  -0.005  0.00  0.00    +0.059 C 
ATOM     16  C   UNL     1     -35.228  23.605   2.940  0.00  0.00    +0.292 C 
ATOM     17  C   UNL     1     -39.629  20.474  -0.408  0.00  0.00    +0.000 C 
ATOM     18  C   UNL     1     -35.808  25.680   1.596  0.00  0.00    +0.007 C 
ATOM     19  C   UNL     1     -33.407  18.845   1.577  0.00  0.00    +0.064 C 
ENDROOT
BRANCH  16  20
ATOM     20  O   UNL     1     -36.334  23.825   3.806  0.00  0.00    -0.424 OA
BRANCH  20  22
ATOM     21  O   UNL     1     -35.882  23.102   5.949  0.00  0.00    -0.250 OA
ATOM     22  C   UNL     1     -36.030  24.000   5.131  0.00  0.00    +0.319 C 
BRANCH  22  23
ATOM     23  C   UNL     1     -35.910  25.481   5.423  0.00  0.00    +0.121 C 
BRANCH  23  24
ATOM     24  C   UNL     1     -34.487  25.912   5.757  0.00  0.00    +0.121 C 
BRANCH  24  26
ATOM     25  O   UNL     1     -32.858  26.065   3.980  0.00  0.00    -0.250 OA
ATOM     26  C   UNL     1     -33.816  26.551   4.568  0.00  0.00    +0.314 C 
BRANCH  26  27
ATOM     27  O   UNL     1     -34.401  27.718   4.201  0.00  0.00    -0.480 OA
ATOM     28  H   UNL     1     -35.329  27.821   4.281  0.00  0.00    +0.295 HD
ENDBRANCH  26  27
ENDBRANCH  24  26
ENDBRANCH  23  24
ENDBRANCH  22  23
ENDBRANCH  20  22
ENDBRANCH  16  20
TORSDOF 6
ENDMDL
