MODEL 1
REMARK VINA RESULT:      -6.6      0.000      0.000
REMARK  Name = 56925680
REMARK  6 active torsions:
REMARK  status: ('A' for Active; 'I' for Inactive)
REMARK    1  A    between atoms: C_9  and  C_24
REMARK    2  A    between atoms: C_10  and  O_26
REMARK    3  A    between atoms: C_16  and  O_28
REMARK    4  A    between atoms: C_19  and  O_30
REMARK    5  A    between atoms: C_20  and  O_32
REMARK    6  A    between atoms: C_21  and  O_34
REMARK                            x       y       z     vdW  Elec       q    Type
REMARK                         _______ _______ _______ _____ _____    ______ ____
ROOT
ATOM      1  O   UNL     1     -34.760  27.603   4.083  0.00  0.00    -0.450 OA
ATOM      2  O   UNL     1     -32.974  26.388   0.932  0.00  0.00    -0.289 OA
ATOM      3  O   UNL     1     -36.814  22.018   2.351  0.00  0.00    -0.291 OA
ATOM      4  O   UNL     1     -34.083  28.996   2.385  0.00  0.00    -0.247 OA
ATOM      5  C   UNL     1     -36.110  26.197   2.830  0.00  0.00    +0.083 C 
ATOM      6  C   UNL     1     -35.247  23.884   2.441  0.00  0.00    +0.087 C 
ATOM      7  C   UNL     1     -36.491  24.788   2.439  0.00  0.00    +0.019 C 
ATOM      8  C   UNL     1     -35.374  26.304   4.156  0.00  0.00    +0.173 C 
ATOM      9  C   UNL     1     -34.607  23.860   3.858  0.00  0.00    +0.072 C 
ATOM     10  C   UNL     1     -35.123  26.843   1.878  0.00  0.00    +0.239 C 
ATOM     11  C   UNL     1     -34.277  25.256   4.401  0.00  0.00    +0.052 C 
ATOM     12  C   UNL     1     -34.259  24.422   1.410  0.00  0.00    +0.056 C 
ATOM     13  C   UNL     1     -34.025  25.914   1.369  0.00  0.00    +0.207 C 
ATOM     14  C   UNL     1     -35.709  22.466   2.050  0.00  0.00    +0.180 C 
ATOM     15  C   UNL     1     -34.592  27.952   2.764  0.00  0.00    +0.349 C 
ATOM     16  C   UNL     1     -33.570  23.637   0.558  0.00  0.00    +0.136 C 
ATOM     17  C   UNL     1     -34.753  21.591   1.339  0.00  0.00    +0.078 C 
ATOM     18  C   UNL     1     -33.695  22.169   0.625  0.00  0.00    +0.073 C 
ATOM     19  C   UNL     1     -34.922  20.202   1.397  0.00  0.00    +0.171 C 
ATOM     20  C   UNL     1     -32.781  21.305   0.001  0.00  0.00    +0.140 C 
ATOM     21  C   UNL     1     -34.014  19.366   0.755  0.00  0.00    +0.175 C 
ATOM     22  C   UNL     1     -32.941  19.917   0.063  0.00  0.00    +0.077 C 
ENDROOT
BRANCH   9  24
ATOM     23  O   UNL     1     -36.538  23.627   5.251  0.00  0.00    -0.296 OA
ATOM     24  C   UNL     1     -35.474  23.149   4.865  0.00  0.00    +0.152 C 
ATOM     25  C   UNL     1     -34.972  21.825   5.375  0.00  0.00    +0.072 C 
ENDBRANCH   9  24
BRANCH  10  26
ATOM     26  O   UNL     1     -35.787  27.369   0.754  0.00  0.00    -0.339 OA
ATOM     27  C   UNL     1     -37.041  27.953   1.097  0.00  0.00    +0.175 C 
ENDBRANCH  10  26
BRANCH  16  28
ATOM     28  O   UNL     1     -32.734  24.163  -0.410  0.00  0.00    -0.506 OA
ATOM     29  H   UNL     1     -32.397  23.611  -1.088  0.00  0.00    +0.292 HD
ENDBRANCH  16  28
BRANCH  19  30
ATOM     30  O   UNL     1     -35.940  19.623   2.097  0.00  0.00    -0.503 OA
ATOM     31  H   UNL     1     -36.827  19.739   1.817  0.00  0.00    +0.292 HD
ENDBRANCH  19  30
BRANCH  20  32
ATOM     32  O   UNL     1     -31.688  21.761  -0.680  0.00  0.00    -0.505 OA
ATOM     33  H   UNL     1     -31.007  22.215  -0.224  0.00  0.00    +0.292 HD
ENDBRANCH  20  32
BRANCH  21  34
ATOM     34  O   UNL     1     -34.152  18.012   0.805  0.00  0.00    -0.468 OA
ATOM     35  C   UNL     1     -33.013  17.230   0.447  0.00  0.00    +0.253 C 
ENDBRANCH  21  34
TORSDOF 6
ENDMDL
MODEL 2
REMARK VINA RESULT:      -6.5      3.308      7.275
REMARK  Name = 56925680
REMARK  6 active torsions:
REMARK  status: ('A' for Active; 'I' for Inactive)
REMARK    1  A    between atoms: C_9  and  C_24
REMARK    2  A    between atoms: C_10  and  O_26
REMARK    3  A    between atoms: C_16  and  O_28
REMARK    4  A    between atoms: C_19  and  O_30
REMARK    5  A    between atoms: C_20  and  O_32
REMARK    6  A    between atoms: C_21  and  O_34
REMARK                            x       y       z     vdW  Elec       q    Type
REMARK                         _______ _______ _______ _____ _____    ______ ____
ROOT
ATOM      1  O   UNL     1     -37.763  23.617   3.702  0.00  0.00    -0.450 OA
ATOM      2  O   UNL     1     -38.239  26.943   1.883  0.00  0.00    -0.289 OA
ATOM      3  O   UNL     1     -32.394  26.665   3.156  0.00  0.00    -0.291 OA
ATOM      4  O   UNL     1     -39.277  23.934   2.002  0.00  0.00    -0.247 OA
ATOM      5  C   UNL     1     -35.850  24.238   2.553  0.00  0.00    +0.083 C 
ATOM      6  C   UNL     1     -34.819  26.419   3.207  0.00  0.00    +0.087 C 
ATOM      7  C   UNL     1     -34.590  25.072   2.503  0.00  0.00    +0.019 C 
ATOM      8  C   UNL     1     -36.405  24.023   3.951  0.00  0.00    +0.173 C 
ATOM      9  C   UNL     1     -35.213  26.186   4.693  0.00  0.00    +0.072 C 
ATOM     10  C   UNL     1     -37.028  24.881   1.849  0.00  0.00    +0.239 C 
ATOM     11  C   UNL     1     -36.423  25.259   4.864  0.00  0.00    +0.052 C 
ATOM     12  C   UNL     1     -35.924  27.167   2.465  0.00  0.00    +0.056 C 
ATOM     13  C   UNL     1     -37.152  26.387   2.056  0.00  0.00    +0.207 C 
ATOM     14  C   UNL     1     -33.497  27.208   3.132  0.00  0.00    +0.180 C 
ATOM     15  C   UNL     1     -38.166  24.104   2.482  0.00  0.00    +0.349 C 
ATOM     16  C   UNL     1     -35.873  28.484   2.183  0.00  0.00    +0.136 C 
ATOM     17  C   UNL     1     -33.565  28.684   3.094  0.00  0.00    +0.078 C 
ATOM     18  C   UNL     1     -34.738  29.305   2.647  0.00  0.00    +0.073 C 
ATOM     19  C   UNL     1     -32.455  29.432   3.510  0.00  0.00    +0.171 C 
ATOM     20  C   UNL     1     -34.782  30.709   2.668  0.00  0.00    +0.140 C 
ATOM     21  C   UNL     1     -32.516  30.822   3.505  0.00  0.00    +0.175 C 
ATOM     22  C   UNL     1     -33.681  31.460   3.090  0.00  0.00    +0.077 C 
ENDROOT
BRANCH   9  24
ATOM     23  O   UNL     1     -33.682  24.476   5.370  0.00  0.00    -0.296 OA
ATOM     24  C   UNL     1     -34.071  25.635   5.506  0.00  0.00    +0.152 C 
ATOM     25  C   UNL     1     -33.430  26.571   6.495  0.00  0.00    +0.072 C 
ENDBRANCH   9  24
BRANCH  10  26
ATOM     26  O   UNL     1     -36.967  24.648   0.463  0.00  0.00    -0.339 OA
ATOM     27  C   UNL     1     -36.549  23.319   0.160  0.00  0.00    +0.175 C 
ENDBRANCH  10  26
BRANCH  16  28
ATOM     28  O   UNL     1     -36.860  29.116   1.450  0.00  0.00    -0.506 OA
ATOM     29  H   UNL     1     -37.281  28.666   0.745  0.00  0.00    +0.292 HD
ENDBRANCH  16  28
BRANCH  19  30
ATOM     30  O   UNL     1     -31.310  28.842   3.959  0.00  0.00    -0.503 OA
ATOM     31  H   UNL     1     -31.201  28.666   4.873  0.00  0.00    +0.292 HD
ENDBRANCH  19  30
BRANCH  20  32
ATOM     32  O   UNL     1     -35.893  31.414   2.299  0.00  0.00    -0.505 OA
ATOM     33  H   UNL     1     -36.662  30.961   2.014  0.00  0.00    +0.292 HD
ENDBRANCH  20  32
BRANCH  21  34
ATOM     34  O   UNL     1     -31.454  31.570   3.914  0.00  0.00    -0.468 OA
ATOM     35  C   UNL     1     -31.280  32.843   3.293  0.00  0.00    +0.253 C 
ENDBRANCH  21  34
TORSDOF 6
ENDMDL
MODEL 3
REMARK VINA RESULT:      -6.4      3.588      7.048
REMARK  Name = 56925680
REMARK  6 active torsions:
REMARK  status: ('A' for Active; 'I' for Inactive)
REMARK    1  A    between atoms: C_9  and  C_24
REMARK    2  A    between atoms: C_10  and  O_26
REMARK    3  A    between atoms: C_16  and  O_28
REMARK    4  A    between atoms: C_19  and  O_30
REMARK    5  A    between atoms: C_20  and  O_32
REMARK    6  A    between atoms: C_21  and  O_34
REMARK                            x       y       z     vdW  Elec       q    Type
REMARK                         _______ _______ _______ _____ _____    ______ ____
ROOT
ATOM      1  O   UNL     1     -38.978  21.774  -2.833  0.00  0.00    -0.450 OA
ATOM      2  O   UNL     1     -37.798  19.754   0.187  0.00  0.00    -0.289 OA
ATOM      3  O   UNL     1     -39.039  25.207   2.327  0.00  0.00    -0.291 OA
ATOM      4  O   UNL     1     -39.404  19.533  -2.554  0.00  0.00    -0.247 OA
ATOM      5  C   UNL     1     -39.948  22.534  -0.870  0.00  0.00    +0.083 C 
ATOM      6  C   UNL     1     -38.382  23.340   0.903  0.00  0.00    +0.087 C 
ATOM      7  C   UNL     1     -39.830  23.363   0.388  0.00  0.00    +0.019 C 
ATOM      8  C   UNL     1     -38.981  22.930  -1.975  0.00  0.00    +0.173 C 
ATOM      9  C   UNL     1     -37.422  23.919  -0.175  0.00  0.00    +0.072 C 
ATOM     10  C   UNL     1     -39.600  21.073  -0.667  0.00  0.00    +0.239 C 
ATOM     11  C   UNL     1     -37.537  23.216  -1.534  0.00  0.00    +0.052 C 
ATOM     12  C   UNL     1     -38.013  21.898   1.238  0.00  0.00    +0.056 C 
ATOM     13  C   UNL     1     -38.410  20.821   0.254  0.00  0.00    +0.207 C 
ATOM     14  C   UNL     1     -38.331  24.213   2.173  0.00  0.00    +0.180 C 
ATOM     15  C   UNL     1     -39.332  20.665  -2.102  0.00  0.00    +0.349 C 
ATOM     16  C   UNL     1     -37.332  21.540   2.344  0.00  0.00    +0.136 C 
ATOM     17  C   UNL     1     -37.343  23.871   3.217  0.00  0.00    +0.078 C 
ATOM     18  C   UNL     1     -36.841  22.565   3.285  0.00  0.00    +0.073 C 
ATOM     19  C   UNL     1     -36.924  24.862   4.115  0.00  0.00    +0.171 C 
ATOM     20  C   UNL     1     -35.869  22.289   4.260  0.00  0.00    +0.140 C 
ATOM     21  C   UNL     1     -35.973  24.560   5.085  0.00  0.00    +0.175 C 
ATOM     22  C   UNL     1     -35.441  23.277   5.154  0.00  0.00    +0.077 C 
ENDROOT
BRANCH   9  24
ATOM     23  O   UNL     1     -38.634  25.841  -0.926  0.00  0.00    -0.296 OA
ATOM     24  C   UNL     1     -37.623  25.397  -0.385  0.00  0.00    +0.152 C 
ATOM     25  C   UNL     1     -36.525  26.305   0.101  0.00  0.00    +0.072 C 
ENDBRANCH   9  24
BRANCH  10  26
ATOM     26  O   UNL     1     -40.699  20.369  -0.139  0.00  0.00    -0.339 OA
ATOM     27  C   UNL     1     -41.921  20.721  -0.784  0.00  0.00    +0.175 C 
ENDBRANCH  10  26
BRANCH  16  28
ATOM     28  O   UNL     1     -37.074  20.216   2.651  0.00  0.00    -0.506 OA
ATOM     29  H   UNL     1     -36.683  19.655   2.012  0.00  0.00    +0.292 HD
ENDBRANCH  16  28
BRANCH  19  30
ATOM     30  O   UNL     1     -37.394  26.141   4.054  0.00  0.00    -0.503 OA
ATOM     31  H   UNL     1     -36.805  26.863   4.160  0.00  0.00    +0.292 HD
ENDBRANCH  19  30
BRANCH  20  32
ATOM     32  O   UNL     1     -35.279  21.063   4.383  0.00  0.00    -0.505 OA
ATOM     33  H   UNL     1     -35.738  20.363   4.804  0.00  0.00    +0.292 HD
ENDBRANCH  20  32
BRANCH  21  34
ATOM     34  O   UNL     1     -35.544  25.509   5.962  0.00  0.00    -0.468 OA
ATOM     35  C   UNL     1     -34.246  26.059   5.738  0.00  0.00    +0.253 C 
ENDBRANCH  21  34
TORSDOF 6
ENDMDL
MODEL 4
REMARK VINA RESULT:      -6.1      2.218      6.802
REMARK  Name = 56925680
REMARK  6 active torsions:
REMARK  status: ('A' for Active; 'I' for Inactive)
REMARK    1  A    between atoms: C_9  and  C_24
REMARK    2  A    between atoms: C_10  and  O_26
REMARK    3  A    between atoms: C_16  and  O_28
REMARK    4  A    between atoms: C_19  and  O_30
REMARK    5  A    between atoms: C_20  and  O_32
REMARK    6  A    between atoms: C_21  and  O_34
REMARK                            x       y       z     vdW  Elec       q    Type
REMARK                         _______ _______ _______ _____ _____    ______ ____
ROOT
ATOM      1  O   UNL     1     -34.027  20.199  -2.616  0.00  0.00    -0.450 OA
ATOM      2  O   UNL     1     -35.418  18.967   0.723  0.00  0.00    -0.289 OA
ATOM      3  O   UNL     1     -35.980  24.927   0.884  0.00  0.00    -0.291 OA
ATOM      4  O   UNL     1     -35.171  18.222  -2.364  0.00  0.00    -0.247 OA
ATOM      5  C   UNL     1     -35.659  21.625  -1.797  0.00  0.00    +0.083 C 
ATOM      6  C   UNL     1     -35.217  22.654   0.437  0.00  0.00    +0.087 C 
ATOM      7  C   UNL     1     -36.036  22.750  -0.860  0.00  0.00    +0.019 C 
ATOM      8  C   UNL     1     -34.174  21.537  -2.108  0.00  0.00    +0.173 C 
ATOM      9  C   UNL     1     -33.698  22.749   0.118  0.00  0.00    +0.072 C 
ATOM     10  C   UNL     1     -35.936  20.247  -1.230  0.00  0.00    +0.239 C 
ATOM     11  C   UNL     1     -33.226  21.714  -0.911  0.00  0.00    +0.052 C 
ATOM     12  C   UNL     1     -35.546  21.328   1.117  0.00  0.00    +0.056 C 
ATOM     13  C   UNL     1     -35.613  20.090   0.253  0.00  0.00    +0.207 C 
ATOM     14  C   UNL     1     -35.639  23.834   1.335  0.00  0.00    +0.180 C 
ATOM     15  C   UNL     1     -35.039  19.411  -2.120  0.00  0.00    +0.349 C 
ATOM     16  C   UNL     1     -35.751  21.201   2.443  0.00  0.00    +0.136 C 
ATOM     17  C   UNL     1     -35.567  23.658   2.800  0.00  0.00    +0.078 C 
ATOM     18  C   UNL     1     -35.603  22.365   3.338  0.00  0.00    +0.073 C 
ATOM     19  C   UNL     1     -35.460  24.788   3.622  0.00  0.00    +0.171 C 
ATOM     20  C   UNL     1     -35.486  22.233   4.731  0.00  0.00    +0.140 C 
ATOM     21  C   UNL     1     -35.364  24.634   5.002  0.00  0.00    +0.175 C 
ATOM     22  C   UNL     1     -35.371  23.358   5.556  0.00  0.00    +0.077 C 
ENDROOT
BRANCH   9  24
ATOM     23  O   UNL     1     -33.617  24.526  -1.481  0.00  0.00    -0.296 OA
ATOM     24  C   UNL     1     -33.300  24.119  -0.365  0.00  0.00    +0.152 C 
ATOM     25  C   UNL     1     -32.494  24.964   0.584  0.00  0.00    +0.072 C 
ENDBRANCH   9  24
BRANCH  10  26
ATOM     26  O   UNL     1     -37.289  19.899  -1.407  0.00  0.00    -0.339 OA
ATOM     27  C   UNL     1     -37.776  20.276  -2.692  0.00  0.00    +0.175 C 
ENDBRANCH  10  26
BRANCH  16  28
ATOM     28  O   UNL     1     -36.115  19.997   3.017  0.00  0.00    -0.506 OA
ATOM     29  H   UNL     1     -35.504  19.288   3.046  0.00  0.00    +0.292 HD
ENDBRANCH  16  28
BRANCH  19  30
ATOM     30  O   UNL     1     -35.412  26.053   3.114  0.00  0.00    -0.503 OA
ATOM     31  H   UNL     1     -34.654  26.340   2.644  0.00  0.00    +0.292 HD
ENDBRANCH  19  30
BRANCH  20  32
ATOM     32  O   UNL     1     -35.461  21.018   5.355  0.00  0.00    -0.505 OA
ATOM     33  H   UNL     1     -35.107  20.272   4.913  0.00  0.00    +0.292 HD
ENDBRANCH  20  32
BRANCH  21  34
ATOM     34  O   UNL     1     -35.250  25.717   5.820  0.00  0.00    -0.468 OA
ATOM     35  C   UNL     1     -33.939  26.247   6.013  0.00  0.00    +0.253 C 
ENDBRANCH  21  34
TORSDOF 6
ENDMDL
MODEL 5
REMARK VINA RESULT:      -6.0      9.398     11.607
REMARK  Name = 56925680
REMARK  6 active torsions:
REMARK  status: ('A' for Active; 'I' for Inactive)
REMARK    1  A    between atoms: C_9  and  C_24
REMARK    2  A    between atoms: C_10  and  O_26
REMARK    3  A    between atoms: C_16  and  O_28
REMARK    4  A    between atoms: C_19  and  O_30
REMARK    5  A    between atoms: C_20  and  O_32
REMARK    6  A    between atoms: C_21  and  O_34
REMARK                            x       y       z     vdW  Elec       q    Type
REMARK                         _______ _______ _______ _____ _____    ______ ____
ROOT
ATOM      1  O   UNL     1     -47.081  29.598   7.814  0.00  0.00    -0.450 OA
ATOM      2  O   UNL     1     -43.449  29.852   6.656  0.00  0.00    -0.289 OA
ATOM      3  O   UNL     1     -46.363  27.214   2.138  0.00  0.00    -0.291 OA
ATOM      4  O   UNL     1     -45.691  31.347   8.353  0.00  0.00    -0.247 OA
ATOM      5  C   UNL     1     -46.934  29.766   5.508  0.00  0.00    +0.083 C 
ATOM      6  C   UNL     1     -45.645  27.970   4.343  0.00  0.00    +0.087 C 
ATOM      7  C   UNL     1     -46.687  29.088   4.180  0.00  0.00    +0.019 C 
ATOM      8  C   UNL     1     -47.335  28.821   6.630  0.00  0.00    +0.173 C 
ATOM      9  C   UNL     1     -46.152  26.912   5.363  0.00  0.00    +0.072 C 
ATOM     10  C   UNL     1     -45.700  30.427   6.089  0.00  0.00    +0.239 C 
ATOM     11  C   UNL     1     -46.537  27.512   6.722  0.00  0.00    +0.052 C 
ATOM     12  C   UNL     1     -44.337  28.596   4.817  0.00  0.00    +0.056 C 
ATOM     13  C   UNL     1     -44.408  29.634   5.913  0.00  0.00    +0.207 C 
ATOM     14  C   UNL     1     -45.454  27.315   2.960  0.00  0.00    +0.180 C 
ATOM     15  C   UNL     1     -46.124  30.546   7.539  0.00  0.00    +0.349 C 
ATOM     16  C   UNL     1     -43.127  28.253   4.331  0.00  0.00    +0.136 C 
ATOM     17  C   UNL     1     -44.135  26.729   2.641  0.00  0.00    +0.078 C 
ATOM     18  C   UNL     1     -43.001  27.178   3.329  0.00  0.00    +0.073 C 
ATOM     19  C   UNL     1     -44.047  25.733   1.659  0.00  0.00    +0.171 C 
ATOM     20  C   UNL     1     -41.772  26.566   3.032  0.00  0.00    +0.140 C 
ATOM     21  C   UNL     1     -42.816  25.154   1.368  0.00  0.00    +0.175 C 
ATOM     22  C   UNL     1     -41.680  25.565   2.059  0.00  0.00    +0.077 C 
ENDROOT
BRANCH   9  24
ATOM     23  O   UNL     1     -48.440  26.636   4.720  0.00  0.00    -0.296 OA
ATOM     24  C   UNL     1     -47.327  26.128   4.838  0.00  0.00    +0.152 C 
ATOM     25  C   UNL     1     -47.071  24.692   4.466  0.00  0.00    +0.072 C 
ENDBRANCH   9  24
BRANCH  10  26
ATOM     26  O   UNL     1     -45.498  31.696   5.515  0.00  0.00    -0.339 OA
ATOM     27  C   UNL     1     -46.714  32.433   5.403  0.00  0.00    +0.175 C 
ENDBRANCH  10  26
BRANCH  16  28
ATOM     28  O   UNL     1     -41.967  28.889   4.735  0.00  0.00    -0.506 OA
ATOM     29  H   UNL     1     -41.295  28.405   5.171  0.00  0.00    +0.292 HD
ENDBRANCH  16  28
BRANCH  19  30
ATOM     30  O   UNL     1     -45.144  25.277   0.988  0.00  0.00    -0.503 OA
ATOM     31  H   UNL     1     -45.925  25.794   0.961  0.00  0.00    +0.292 HD
ENDBRANCH  19  30
BRANCH  20  32
ATOM     32  O   UNL     1     -40.613  26.894   3.677  0.00  0.00    -0.505 OA
ATOM     33  H   UNL     1     -40.436  27.787   3.896  0.00  0.00    +0.292 HD
ENDBRANCH  20  32
BRANCH  21  34
ATOM     34  O   UNL     1     -42.707  24.178   0.425  0.00  0.00    -0.468 OA
ATOM     35  C   UNL     1     -41.391  23.845  -0.015  0.00  0.00    +0.253 C 
ENDBRANCH  21  34
TORSDOF 6
ENDMDL
MODEL 6
REMARK VINA RESULT:      -6.0      4.897      7.683
REMARK  Name = 56925680
REMARK  6 active torsions:
REMARK  status: ('A' for Active; 'I' for Inactive)
REMARK    1  A    between atoms: C_9  and  C_24
REMARK    2  A    between atoms: C_10  and  O_26
REMARK    3  A    between atoms: C_16  and  O_28
REMARK    4  A    between atoms: C_19  and  O_30
REMARK    5  A    between atoms: C_20  and  O_32
REMARK    6  A    between atoms: C_21  and  O_34
REMARK                            x       y       z     vdW  Elec       q    Type
REMARK                         _______ _______ _______ _____ _____    ______ ____
ROOT
ATOM      1  O   UNL     1     -43.011  25.706  -2.061  0.00  0.00    -0.450 OA
ATOM      2  O   UNL     1     -41.954  22.379  -0.509  0.00  0.00    -0.289 OA
ATOM      3  O   UNL     1     -39.739  26.589   3.128  0.00  0.00    -0.291 OA
ATOM      4  O   UNL     1     -44.299  23.803  -2.126  0.00  0.00    -0.247 OA
ATOM      5  C   UNL     1     -42.795  25.872   0.240  0.00  0.00    +0.083 C 
ATOM      6  C   UNL     1     -40.539  25.353   1.184  0.00  0.00    +0.087 C 
ATOM      7  C   UNL     1     -41.891  26.038   1.440  0.00  0.00    +0.019 C 
ATOM      8  C   UNL     1     -42.192  26.352  -1.071  0.00  0.00    +0.173 C 
ATOM      9  C   UNL     1     -39.849  25.983  -0.059  0.00  0.00    +0.072 C 
ATOM     10  C   UNL     1     -43.114  24.426  -0.081  0.00  0.00    +0.239 C 
ATOM     11  C   UNL     1     -40.726  25.964  -1.318  0.00  0.00    +0.052 C 
ATOM     12  C   UNL     1     -40.788  23.863   0.969  0.00  0.00    +0.056 C 
ATOM     13  C   UNL     1     -41.942  23.461   0.079  0.00  0.00    +0.207 C 
ATOM     14  C   UNL     1     -39.667  25.574   2.436  0.00  0.00    +0.180 C 
ATOM     15  C   UNL     1     -43.565  24.570  -1.521  0.00  0.00    +0.349 C 
ATOM     16  C   UNL     1     -40.020  22.894   1.505  0.00  0.00    +0.136 C 
ATOM     17  C   UNL     1     -38.661  24.547   2.777  0.00  0.00    +0.078 C 
ATOM     18  C   UNL     1     -38.828  23.240   2.302  0.00  0.00    +0.073 C 
ATOM     19  C   UNL     1     -37.558  24.903   3.564  0.00  0.00    +0.171 C 
ATOM     20  C   UNL     1     -37.828  22.302   2.607  0.00  0.00    +0.140 C 
ATOM     21  C   UNL     1     -36.589  23.952   3.869  0.00  0.00    +0.175 C 
ATOM     22  C   UNL     1     -36.720  22.654   3.386  0.00  0.00    +0.077 C 
ENDROOT
BRANCH   9  24
ATOM     23  O   UNL     1     -40.212  28.317   0.317  0.00  0.00    -0.296 OA
ATOM     24  C   UNL     1     -39.403  27.400   0.191  0.00  0.00    +0.152 C 
ATOM     25  C   UNL     1     -37.919  27.638   0.277  0.00  0.00    +0.072 C 
ENDBRANCH   9  24
BRANCH  10  26
ATOM     26  O   UNL     1     -44.162  23.955   0.732  0.00  0.00    -0.339 OA
ATOM     27  C   UNL     1     -45.173  24.941   0.926  0.00  0.00    +0.175 C 
ENDBRANCH  10  26
BRANCH  16  28
ATOM     28  O   UNL     1     -40.314  21.552   1.346  0.00  0.00    -0.506 OA
ATOM     29  H   UNL     1     -41.200  21.280   1.210  0.00  0.00    +0.292 HD
ENDBRANCH  16  28
BRANCH  19  30
ATOM     30  O   UNL     1     -37.375  26.174   4.024  0.00  0.00    -0.503 OA
ATOM     31  H   UNL     1     -36.509  26.525   4.102  0.00  0.00    +0.292 HD
ENDBRANCH  19  30
BRANCH  20  32
ATOM     32  O   UNL     1     -37.867  21.014   2.155  0.00  0.00    -0.505 OA
ATOM     33  H   UNL     1     -38.687  20.564   2.092  0.00  0.00    +0.292 HD
ENDBRANCH  20  32
BRANCH  21  34
ATOM     34  O   UNL     1     -35.503  24.277   4.625  0.00  0.00    -0.468 OA
ATOM     35  C   UNL     1     -35.133  23.361   5.655  0.00  0.00    +0.253 C 
ENDBRANCH  21  34
TORSDOF 6
ENDMDL
MODEL 7
REMARK VINA RESULT:      -5.9      2.169      4.831
REMARK  Name = 56925680
REMARK  6 active torsions:
REMARK  status: ('A' for Active; 'I' for Inactive)
REMARK    1  A    between atoms: C_9  and  C_24
REMARK    2  A    between atoms: C_10  and  O_26
REMARK    3  A    between atoms: C_16  and  O_28
REMARK    4  A    between atoms: C_19  and  O_30
REMARK    5  A    between atoms: C_20  and  O_32
REMARK    6  A    between atoms: C_21  and  O_34
REMARK                            x       y       z     vdW  Elec       q    Type
REMARK                         _______ _______ _______ _____ _____    ______ ____
ROOT
ATOM      1  O   UNL     1     -33.182  30.155   3.947  0.00  0.00    -0.450 OA
ATOM      2  O   UNL     1     -33.637  27.000   6.053  0.00  0.00    -0.289 OA
ATOM      3  O   UNL     1     -33.697  25.122   0.367  0.00  0.00    -0.291 OA
ATOM      4  O   UNL     1     -32.188  29.835   5.995  0.00  0.00    -0.247 OA
ATOM      5  C   UNL     1     -32.326  28.287   2.876  0.00  0.00    +0.083 C 
ATOM      6  C   UNL     1     -33.940  26.439   2.405  0.00  0.00    +0.087 C 
ATOM      7  C   UNL     1     -32.577  27.051   2.044  0.00  0.00    +0.019 C 
ATOM      8  C   UNL     1     -33.422  29.337   2.789  0.00  0.00    +0.173 C 
ATOM      9  C   UNL     1     -35.076  27.468   2.137  0.00  0.00    +0.072 C 
ATOM     10  C   UNL     1     -32.280  28.015   4.366  0.00  0.00    +0.239 C 
ATOM     11  C   UNL     1     -34.864  28.808   2.853  0.00  0.00    +0.052 C 
ATOM     12  C   UNL     1     -33.913  26.035   3.876  0.00  0.00    +0.056 C 
ATOM     13  C   UNL     1     -33.313  27.008   4.864  0.00  0.00    +0.207 C 
ATOM     14  C   UNL     1     -34.138  25.197   1.513  0.00  0.00    +0.180 C 
ATOM     15  C   UNL     1     -32.518  29.415   4.896  0.00  0.00    +0.349 C 
ATOM     16  C   UNL     1     -34.417  24.874   4.340  0.00  0.00    +0.136 C 
ATOM     17  C   UNL     1     -34.946  24.078   2.041  0.00  0.00    +0.078 C 
ATOM     18  C   UNL     1     -35.096  23.935   3.426  0.00  0.00    +0.073 C 
ATOM     19  C   UNL     1     -35.550  23.186   1.145  0.00  0.00    +0.171 C 
ATOM     20  C   UNL     1     -35.909  22.888   3.890  0.00  0.00    +0.140 C 
ATOM     21  C   UNL     1     -36.336  22.145   1.629  0.00  0.00    +0.175 C 
ATOM     22  C   UNL     1     -36.521  22.000   3.000  0.00  0.00    +0.077 C 
ENDROOT
BRANCH   9  24
ATOM     23  O   UNL     1     -34.429  28.348   0.008  0.00  0.00    -0.296 OA
ATOM     24  C   UNL     1     -35.268  27.737   0.667  0.00  0.00    +0.152 C 
ATOM     25  C   UNL     1     -36.538  27.222   0.045  0.00  0.00    +0.072 C 
ENDBRANCH   9  24
BRANCH  10  26
ATOM     26  O   UNL     1     -31.010  27.540   4.746  0.00  0.00    -0.339 OA
ATOM     27  C   UNL     1     -29.956  28.258   4.109  0.00  0.00    +0.175 C 
ENDBRANCH  10  26
BRANCH  16  28
ATOM     28  O   UNL     1     -34.313  24.508   5.669  0.00  0.00    -0.506 OA
ATOM     29  H   UNL     1     -33.586  24.802   6.181  0.00  0.00    +0.292 HD
ENDBRANCH  16  28
BRANCH  19  30
ATOM     30  O   UNL     1     -35.423  23.319  -0.207  0.00  0.00    -0.503 OA
ATOM     31  H   UNL     1     -36.178  23.246  -0.758  0.00  0.00    +0.292 HD
ENDBRANCH  19  30
BRANCH  20  32
ATOM     32  O   UNL     1     -36.161  22.687   5.218  0.00  0.00    -0.505 OA
ATOM     33  H   UNL     1     -35.530  22.948   5.859  0.00  0.00    +0.292 HD
ENDBRANCH  20  32
BRANCH  21  34
ATOM     34  O   UNL     1     -36.941  21.271   0.777  0.00  0.00    -0.468 OA
ATOM     35  C   UNL     1     -36.592  19.893   0.906  0.00  0.00    +0.253 C 
ENDBRANCH  21  34
TORSDOF 6
ENDMDL
MODEL 8
REMARK VINA RESULT:      -5.9      3.091      5.262
REMARK  Name = 56925680
REMARK  6 active torsions:
REMARK  status: ('A' for Active; 'I' for Inactive)
REMARK    1  A    between atoms: C_9  and  C_24
REMARK    2  A    between atoms: C_10  and  O_26
REMARK    3  A    between atoms: C_16  and  O_28
REMARK    4  A    between atoms: C_19  and  O_30
REMARK    5  A    between atoms: C_20  and  O_32
REMARK    6  A    between atoms: C_21  and  O_34
REMARK                            x       y       z     vdW  Elec       q    Type
REMARK                         _______ _______ _______ _____ _____    ______ ____
ROOT
ATOM      1  O   UNL     1     -34.732  25.475   3.560  0.00  0.00    -0.450 OA
ATOM      2  O   UNL     1     -38.389  24.375   3.645  0.00  0.00    -0.289 OA
ATOM      3  O   UNL     1     -35.515  20.061   0.647  0.00  0.00    -0.291 OA
ATOM      4  O   UNL     1     -36.143  25.878   5.329  0.00  0.00    -0.247 OA
ATOM      5  C   UNL     1     -34.926  23.167   3.511  0.00  0.00    +0.083 C 
ATOM      6  C   UNL     1     -36.204  22.200   1.593  0.00  0.00    +0.087 C 
ATOM      7  C   UNL     1     -35.187  21.912   2.708  0.00  0.00    +0.019 C 
ATOM      8  C   UNL     1     -34.486  24.362   2.682  0.00  0.00    +0.173 C 
ATOM      9  C   UNL     1     -35.657  23.304   0.643  0.00  0.00    +0.072 C 
ATOM     10  C   UNL     1     -36.161  23.710   4.202  0.00  0.00    +0.239 C 
ATOM     11  C   UNL     1     -35.258  24.592   1.373  0.00  0.00    +0.052 C 
ATOM     12  C   UNL     1     -37.514  22.642   2.238  0.00  0.00    +0.056 C 
ATOM     13  C   UNL     1     -37.441  23.635   3.375  0.00  0.00    +0.207 C 
ATOM     14  C   UNL     1     -36.410  20.888   0.809  0.00  0.00    +0.180 C 
ATOM     15  C   UNL     1     -35.711  25.133   4.463  0.00  0.00    +0.349 C 
ATOM     16  C   UNL     1     -38.727  22.216   1.831  0.00  0.00    +0.136 C 
ATOM     17  C   UNL     1     -37.724  20.653   0.174  0.00  0.00    +0.078 C 
ATOM     18  C   UNL     1     -38.853  21.321   0.666  0.00  0.00    +0.073 C 
ATOM     19  C   UNL     1     -37.812  19.770  -0.911  0.00  0.00    +0.171 C 
ATOM     20  C   UNL     1     -40.075  21.107   0.008  0.00  0.00    +0.140 C 
ATOM     21  C   UNL     1     -39.038  19.560  -1.535  0.00  0.00    +0.175 C 
ATOM     22  C   UNL     1     -40.167  20.233  -1.080  0.00  0.00    +0.077 C 
ENDROOT
BRANCH   9  24
ATOM     23  O   UNL     1     -33.387  22.606   0.353  0.00  0.00    -0.296 OA
ATOM     24  C   UNL     1     -34.479  22.828  -0.166  0.00  0.00    +0.152 C 
ATOM     25  C   UNL     1     -34.703  22.640  -1.643  0.00  0.00    +0.072 C 
ENDBRANCH   9  24
BRANCH  10  26
ATOM     26  O   UNL     1     -36.397  23.025   5.409  0.00  0.00    -0.339 OA
ATOM     27  C   UNL     1     -35.188  22.588   6.023  0.00  0.00    +0.175 C 
ENDBRANCH  10  26
BRANCH  16  28
ATOM     28  O   UNL     1     -39.890  22.583   2.483  0.00  0.00    -0.506 OA
ATOM     29  H   UNL     1     -40.374  23.330   2.191  0.00  0.00    +0.292 HD
ENDBRANCH  16  28
BRANCH  19  30
ATOM     30  O   UNL     1     -36.720  19.122  -1.409  0.00  0.00    -0.503 OA
ATOM     31  H   UNL     1     -36.806  18.252  -1.748  0.00  0.00    +0.292 HD
ENDBRANCH  19  30
BRANCH  20  32
ATOM     32  O   UNL     1     -41.227  21.744   0.375  0.00  0.00    -0.505 OA
ATOM     33  H   UNL     1     -41.830  21.323   0.956  0.00  0.00    +0.292 HD
ENDBRANCH  20  32
BRANCH  21  34
ATOM     34  O   UNL     1     -39.147  18.714  -2.597  0.00  0.00    -0.468 OA
ATOM     35  C   UNL     1     -39.765  17.450  -2.357  0.00  0.00    +0.253 C 
ENDBRANCH  21  34
TORSDOF 6
ENDMDL
MODEL 9
REMARK VINA RESULT:      -5.9      8.508     10.462
REMARK  Name = 56925680
REMARK  6 active torsions:
REMARK  status: ('A' for Active; 'I' for Inactive)
REMARK    1  A    between atoms: C_9  and  C_24
REMARK    2  A    between atoms: C_10  and  O_26
REMARK    3  A    between atoms: C_16  and  O_28
REMARK    4  A    between atoms: C_19  and  O_30
REMARK    5  A    between atoms: C_20  and  O_32
REMARK    6  A    between atoms: C_21  and  O_34
REMARK                            x       y       z     vdW  Elec       q    Type
REMARK                         _______ _______ _______ _____ _____    ______ ____
ROOT
ATOM      1  O   UNL     1     -45.102  28.993   6.731  0.00  0.00    -0.450 OA
ATOM      2  O   UNL     1     -41.933  28.549   4.644  0.00  0.00    -0.289 OA
ATOM      3  O   UNL     1     -46.396  26.575   1.173  0.00  0.00    -0.291 OA
ATOM      4  O   UNL     1     -43.313  30.434   6.809  0.00  0.00    -0.247 OA
ATOM      5  C   UNL     1     -45.549  29.154   4.463  0.00  0.00    +0.083 C 
ATOM      6  C   UNL     1     -44.984  27.154   3.075  0.00  0.00    +0.087 C 
ATOM      7  C   UNL     1     -45.799  28.455   3.146  0.00  0.00    +0.019 C 
ATOM      8  C   UNL     1     -45.807  28.293   5.689  0.00  0.00    +0.173 C 
ATOM      9  C   UNL     1     -45.391  26.203   4.237  0.00  0.00    +0.072 C 
ATOM     10  C   UNL     1     -44.102  29.556   4.669  0.00  0.00    +0.239 C 
ATOM     11  C   UNL     1     -45.277  26.852   5.622  0.00  0.00    +0.052 C 
ATOM     12  C   UNL     1     -43.503  27.509   3.159  0.00  0.00    +0.056 C 
ATOM     13  C   UNL     1     -43.079  28.530   4.191  0.00  0.00    +0.207 C 
ATOM     14  C   UNL     1     -45.298  26.489   1.720  0.00  0.00    +0.180 C 
ATOM     15  C   UNL     1     -44.093  29.741   6.173  0.00  0.00    +0.349 C 
ATOM     16  C   UNL     1     -42.555  26.943   2.386  0.00  0.00    +0.136 C 
ATOM     17  C   UNL     1     -44.249  25.661   1.088  0.00  0.00    +0.078 C 
ATOM     18  C   UNL     1     -42.908  25.874   1.432  0.00  0.00    +0.073 C 
ATOM     19  C   UNL     1     -44.618  24.677   0.161  0.00  0.00    +0.171 C 
ATOM     20  C   UNL     1     -41.943  25.038   0.847  0.00  0.00    +0.140 C 
ATOM     21  C   UNL     1     -43.642  23.873  -0.420  0.00  0.00    +0.175 C 
ATOM     22  C   UNL     1     -42.307  24.049  -0.073  0.00  0.00    +0.077 C 
ENDROOT
BRANCH   9  24
ATOM     23  O   UNL     1     -47.777  26.378   4.259  0.00  0.00    -0.296 OA
ATOM     24  C   UNL     1     -46.790  25.669   4.074  0.00  0.00    +0.152 C 
ATOM     25  C   UNL     1     -46.920  24.223   3.676  0.00  0.00    +0.072 C 
ENDBRANCH   9  24
BRANCH  10  26
ATOM     26  O   UNL     1     -43.824  30.768   4.009  0.00  0.00    -0.339 OA
ATOM     27  C   UNL     1     -44.893  31.704   4.134  0.00  0.00    +0.175 C 
ENDBRANCH  10  26
BRANCH  16  28
ATOM     28  O   UNL     1     -41.231  27.337   2.441  0.00  0.00    -0.506 OA
ATOM     29  H   UNL     1     -40.996  28.129   2.882  0.00  0.00    +0.292 HD
ENDBRANCH  16  28
BRANCH  19  30
ATOM     30  O   UNL     1     -45.920  24.450  -0.176  0.00  0.00    -0.503 OA
ATOM     31  H   UNL     1     -46.392  23.747   0.226  0.00  0.00    +0.292 HD
ENDBRANCH  19  30
BRANCH  20  32
ATOM     32  O   UNL     1     -40.614  25.128   1.148  0.00  0.00    -0.505 OA
ATOM     33  H   UNL     1     -40.345  25.378   2.010  0.00  0.00    +0.292 HD
ENDBRANCH  20  32
BRANCH  21  34
ATOM     34  O   UNL     1     -43.977  22.904  -1.317  0.00  0.00    -0.468 OA
ATOM     35  C   UNL     1     -43.345  21.634  -1.164  0.00  0.00    +0.253 C 
ENDBRANCH  21  34
TORSDOF 6
ENDMDL
