MODEL 1
REMARK VINA RESULT:      -6.2      0.000      0.000
REMARK  Name = 197470
REMARK  13 active torsions:
REMARK  status: ('A' for Active; 'I' for Inactive)
REMARK    1  A    between atoms: N_2  and  C_5
REMARK    2  A    between atoms: C_3  and  C_23
REMARK    3  A    between atoms: C_5  and  C_6
REMARK    4  A    between atoms: C_5  and  C_18
REMARK    5  A    between atoms: C_6  and  C_7
REMARK    6  A    between atoms: C_7  and  C_9
REMARK    7  A    between atoms: C_18  and  C_20
REMARK    8  A    between atoms: C_20  and  O_21
REMARK    9  A    between atoms: C_23  and  N_25
REMARK   10  A    between atoms: C_26  and  C_28
REMARK   11  A    between atoms: C_28  and  C_29
REMARK   12  A    between atoms: C_29  and  C_30
REMARK   13  A    between atoms: C_30  and  C_32
REMARK                            x       y       z     vdW  Elec       q    Type
REMARK                         _______ _______ _______ _____ _____    ______ ____
ROOT
ATOM      1  O   UNL     1     -33.056  26.885   2.634  0.00  0.00    -0.273 OA
ATOM      2  N   UNL     1     -34.294  27.318   4.554  0.00  0.00    -0.304 N 
ATOM      3  C   UNL     1     -33.995  27.437   3.203  0.00  0.00    +0.243 C 
ATOM      4  H   UNL     1     -35.073  27.807   4.904  0.00  0.00    +0.149 HD
ENDROOT
BRANCH   2   5
ATOM      5  C   UNL     1     -33.519  26.513   5.469  0.00  0.00    +0.083 C 
BRANCH   5   6
ATOM      6  C   UNL     1     -34.425  25.482   6.165  0.00  0.00    +0.025 C 
BRANCH   6   7
ATOM      7  C   UNL     1     -35.641  25.039   5.339  0.00  0.00    +0.029 C 
BRANCH   7   9
ATOM      8  N   UNL     1     -35.582  21.368   5.179  0.00  0.00    -0.312 N 
ATOM      9  C   UNL     1     -35.587  23.580   4.992  0.00  0.00    -0.006 C 
ATOM     10  C   UNL     1     -35.440  23.024   3.690  0.00  0.00    +0.011 C 
ATOM     11  C   UNL     1     -35.439  21.635   3.837  0.00  0.00    +0.048 C 
ATOM     12  C   UNL     1     -35.672  22.538   5.885  0.00  0.00    +0.058 C 
ATOM     13  C   UNL     1     -35.306  23.570   2.399  0.00  0.00    +0.001 C 
ATOM     14  C   UNL     1     -35.312  20.761   2.750  0.00  0.00    +0.015 C 
ATOM     15  C   UNL     1     -35.178  22.708   1.303  0.00  0.00    +0.000 C 
ATOM     16  C   UNL     1     -35.181  21.327   1.478  0.00  0.00    +0.001 C 
ATOM     17  H   UNL     1     -35.614  20.467   5.575  0.00  0.00    +0.152 HD
ENDBRANCH   7   9
ENDBRANCH   6   7
ENDBRANCH   5   6
BRANCH   5  18
ATOM     18  C   UNL     1     -32.742  27.389   6.460  0.00  0.00    +0.129 C 
BRANCH  18  20
ATOM     19  O   UNL     1     -32.272  29.643   5.652  0.00  0.00    -0.250 OA
ATOM     20  C   UNL     1     -31.933  28.475   5.779  0.00  0.00    +0.315 C 
BRANCH  20  21
ATOM     21  O   UNL     1     -30.749  27.993   5.315  0.00  0.00    -0.480 OA
ATOM     22  H   UNL     1     -30.741  27.353   4.631  0.00  0.00    +0.295 HD
ENDBRANCH  20  21
ENDBRANCH  18  20
ENDBRANCH   5  18
ENDBRANCH   2   5
BRANCH   3  23
ATOM     23  C   UNL     1     -35.010  28.299   2.484  0.00  0.00    +0.176 C 
BRANCH  23  25
ATOM     24  O   UNL     1     -35.793  26.499   0.366  0.00  0.00    -0.275 OA
ATOM     25  N   UNL     1     -36.258  27.582   2.369  0.00  0.00    -0.297 N 
ATOM     26  C   UNL     1     -36.546  26.734   1.308  0.00  0.00    +0.223 C 
ATOM     27  H   UNL     1     -36.936  27.699   3.073  0.00  0.00    +0.150 HD
BRANCH  26  28
ATOM     28  C   UNL     1     -37.925  26.114   1.447  0.00  0.00    +0.085 C 
BRANCH  28  29
ATOM     29  C   UNL     1     -38.393  26.052   2.900  0.00  0.00    +0.010 C 
BRANCH  29  30
ATOM     30  C   UNL     1     -39.060  24.714   3.212  0.00  0.00    +0.000 C 
BRANCH  30  32
ATOM     31  N   UNL     1     -40.380  21.565   0.560  0.00  0.00    +0.384 N 
ATOM     32  C   UNL     1     -39.165  23.837   1.968  0.00  0.00    -0.004 C 
ATOM     33  C   UNL     1     -40.573  23.903   1.364  0.00  0.00    -0.023 C 
ATOM     34  C   UNL     1     -38.800  22.382   2.287  0.00  0.00    -0.023 C 
ATOM     35  C   UNL     1     -40.714  22.940   0.184  0.00  0.00    -0.082 C 
ATOM     36  C   UNL     1     -39.010  21.481   1.070  0.00  0.00    -0.082 C 
ATOM     37  H   UNL     1     -40.468  20.964  -0.259  0.00  0.00    -0.085 HD
ATOM     38  H   UNL     1     -41.020  21.262   1.295  0.00  0.00    -0.085 HD
ENDBRANCH  30  32
ENDBRANCH  29  30
ENDBRANCH  28  29
ENDBRANCH  26  28
ENDBRANCH  23  25
ENDBRANCH   3  23
TORSDOF 13
ENDMDL
MODEL 2
REMARK VINA RESULT:      -5.7      4.300      6.191
REMARK  Name = 197470
REMARK  13 active torsions:
REMARK  status: ('A' for Active; 'I' for Inactive)
REMARK    1  A    between atoms: N_2  and  C_5
REMARK    2  A    between atoms: C_3  and  C_23
REMARK    3  A    between atoms: C_5  and  C_6
REMARK    4  A    between atoms: C_5  and  C_18
REMARK    5  A    between atoms: C_6  and  C_7
REMARK    6  A    between atoms: C_7  and  C_9
REMARK    7  A    between atoms: C_18  and  C_20
REMARK    8  A    between atoms: C_20  and  O_21
REMARK    9  A    between atoms: C_23  and  N_25
REMARK   10  A    between atoms: C_26  and  C_28
REMARK   11  A    between atoms: C_28  and  C_29
REMARK   12  A    between atoms: C_29  and  C_30
REMARK   13  A    between atoms: C_30  and  C_32
REMARK                            x       y       z     vdW  Elec       q    Type
REMARK                         _______ _______ _______ _____ _____    ______ ____
ROOT
ATOM      1  O   UNL     1     -37.225  23.531   1.174  0.00  0.00    -0.273 OA
ATOM      2  N   UNL     1     -37.434  22.360   3.171  0.00  0.00    -0.304 N 
ATOM      3  C   UNL     1     -37.912  22.944   2.006  0.00  0.00    +0.243 C 
ATOM      4  H   UNL     1     -38.077  21.914   3.768  0.00  0.00    +0.149 HD
ENDROOT
BRANCH   2   5
ATOM      5  C   UNL     1     -36.039  22.375   3.550  0.00  0.00    +0.083 C 
BRANCH   5   6
ATOM      6  C   UNL     1     -35.416  20.986   3.329  0.00  0.00    +0.025 C 
BRANCH   6   7
ATOM      7  C   UNL     1     -35.534  20.454   1.893  0.00  0.00    +0.029 C 
BRANCH   7   9
ATOM      8  N   UNL     1     -32.784  21.686  -0.211  0.00  0.00    -0.312 N 
ATOM      9  C   UNL     1     -34.289  20.705   1.094  0.00  0.00    -0.006 C 
ATOM     10  C   UNL     1     -33.186  19.818   0.942  0.00  0.00    +0.011 C 
ATOM     11  C   UNL     1     -32.257  20.458   0.119  0.00  0.00    +0.048 C 
ATOM     12  C   UNL     1     -34.012  21.844   0.374  0.00  0.00    +0.058 C 
ATOM     13  C   UNL     1     -32.888  18.529   1.427  0.00  0.00    +0.001 C 
ATOM     14  C   UNL     1     -31.040  19.871  -0.245  0.00  0.00    +0.015 C 
ATOM     15  C   UNL     1     -31.675  17.929   1.071  0.00  0.00    +0.000 C 
ATOM     16  C   UNL     1     -30.767  18.591   0.248  0.00  0.00    +0.001 C 
ATOM     17  H   UNL     1     -32.343  22.353  -0.784  0.00  0.00    +0.152 HD
ENDBRANCH   7   9
ENDBRANCH   6   7
ENDBRANCH   5   6
BRANCH   5  18
ATOM     18  C   UNL     1     -35.858  22.889   4.984  0.00  0.00    +0.129 C 
BRANCH  18  20
ATOM     19  O   UNL     1     -34.789  25.063   5.279  0.00  0.00    -0.250 OA
ATOM     20  C   UNL     1     -35.795  24.401   5.067  0.00  0.00    +0.315 C 
BRANCH  20  21
ATOM     21  O   UNL     1     -37.019  24.958   4.868  0.00  0.00    -0.480 OA
ATOM     22  H   UNL     1     -37.412  24.933   4.017  0.00  0.00    +0.295 HD
ENDBRANCH  20  21
ENDBRANCH  18  20
ENDBRANCH   5  18
ENDBRANCH   2   5
BRANCH   3  23
ATOM     23  C   UNL     1     -39.401  22.723   1.846  0.00  0.00    +0.176 C 
BRANCH  23  25
ATOM     24  O   UNL     1     -39.568  24.706   3.938  0.00  0.00    -0.275 OA
ATOM     25  N   UNL     1     -40.075  23.999   1.784  0.00  0.00    -0.297 N 
ATOM     26  C   UNL     1     -40.101  24.890   2.847  0.00  0.00    +0.223 C 
ATOM     27  H   UNL     1     -40.537  24.248   0.951  0.00  0.00    +0.150 HD
BRANCH  26  28
ATOM     28  C   UNL     1     -40.877  26.149   2.501  0.00  0.00    +0.085 C 
BRANCH  28  29
ATOM     29  C   UNL     1     -41.848  26.558   3.607  0.00  0.00    +0.010 C 
BRANCH  29  30
ATOM     30  C   UNL     1     -43.274  26.686   3.076  0.00  0.00    +0.000 C 
BRANCH  30  32
ATOM     31  N   UNL     1     -44.701  29.120   6.353  0.00  0.00    +0.384 N 
ATOM     32  C   UNL     1     -44.060  27.751   3.835  0.00  0.00    -0.004 C 
ATOM     33  C   UNL     1     -43.120  28.782   4.472  0.00  0.00    -0.023 C 
ATOM     34  C   UNL     1     -44.948  27.117   4.913  0.00  0.00    -0.023 C 
ATOM     35  C   UNL     1     -43.896  29.785   5.325  0.00  0.00    -0.082 C 
ATOM     36  C   UNL     1     -45.653  28.187   5.748  0.00  0.00    -0.082 C 
ATOM     37  H   UNL     1     -45.214  29.824   6.883  0.00  0.00    -0.085 HD
ATOM     38  H   UNL     1     -44.077  28.596   6.967  0.00  0.00    -0.085 HD
ENDBRANCH  30  32
ENDBRANCH  29  30
ENDBRANCH  28  29
ENDBRANCH  26  28
ENDBRANCH  23  25
ENDBRANCH   3  23
TORSDOF 13
ENDMDL
MODEL 3
REMARK VINA RESULT:      -5.6      5.004      6.412
REMARK  Name = 197470
REMARK  13 active torsions:
REMARK  status: ('A' for Active; 'I' for Inactive)
REMARK    1  A    between atoms: N_2  and  C_5
REMARK    2  A    between atoms: C_3  and  C_23
REMARK    3  A    between atoms: C_5  and  C_6
REMARK    4  A    between atoms: C_5  and  C_18
REMARK    5  A    between atoms: C_6  and  C_7
REMARK    6  A    between atoms: C_7  and  C_9
REMARK    7  A    between atoms: C_18  and  C_20
REMARK    8  A    between atoms: C_20  and  O_21
REMARK    9  A    between atoms: C_23  and  N_25
REMARK   10  A    between atoms: C_26  and  C_28
REMARK   11  A    between atoms: C_28  and  C_29
REMARK   12  A    between atoms: C_29  and  C_30
REMARK   13  A    between atoms: C_30  and  C_32
REMARK                            x       y       z     vdW  Elec       q    Type
REMARK                         _______ _______ _______ _____ _____    ______ ____
ROOT
ATOM      1  O   UNL     1     -38.076  26.497   2.714  0.00  0.00    -0.273 OA
ATOM      2  N   UNL     1     -37.573  24.456   3.708  0.00  0.00    -0.304 N 
ATOM      3  C   UNL     1     -38.429  25.440   3.231  0.00  0.00    +0.243 C 
ATOM      4  H   UNL     1     -37.966  23.646   4.104  0.00  0.00    +0.149 HD
ENDROOT
BRANCH   2   5
ATOM      5  C   UNL     1     -36.133  24.565   3.652  0.00  0.00    +0.083 C 
BRANCH   5   6
ATOM      6  C   UNL     1     -35.549  23.426   2.798  0.00  0.00    +0.025 C 
BRANCH   6   7
ATOM      7  C   UNL     1     -35.811  22.016   3.346  0.00  0.00    +0.029 C 
BRANCH   7   9
ATOM      8  N   UNL     1     -37.536  20.011   0.794  0.00  0.00    -0.312 N 
ATOM      9  C   UNL     1     -36.263  21.068   2.273  0.00  0.00    -0.006 C 
ATOM     10  C   UNL     1     -35.466  20.083   1.623  0.00  0.00    +0.011 C 
ATOM     11  C   UNL     1     -36.289  19.435   0.701  0.00  0.00    +0.048 C 
ATOM     12  C   UNL     1     -37.529  20.998   1.742  0.00  0.00    +0.058 C 
ATOM     13  C   UNL     1     -34.120  19.681   1.731  0.00  0.00    +0.001 C 
ATOM     14  C   UNL     1     -35.832  18.400  -0.124  0.00  0.00    +0.015 C 
ATOM     15  C   UNL     1     -33.649  18.647   0.914  0.00  0.00    +0.000 C 
ATOM     16  C   UNL     1     -34.493  18.018   0.002  0.00  0.00    +0.001 C 
ATOM     17  H   UNL     1     -38.319  19.750   0.258  0.00  0.00    +0.152 HD
ENDBRANCH   7   9
ENDBRANCH   6   7
ENDBRANCH   5   6
BRANCH   5  18
ATOM     18  C   UNL     1     -35.524  24.627   5.059  0.00  0.00    +0.129 C 
BRANCH  18  20
ATOM     19  O   UNL     1     -34.223  26.312   6.251  0.00  0.00    -0.250 OA
ATOM     20  C   UNL     1     -35.115  26.029   5.464  0.00  0.00    +0.315 C 
BRANCH  20  21
ATOM     21  O   UNL     1     -35.869  26.967   4.831  0.00  0.00    -0.480 OA
ATOM     22  H   UNL     1     -35.991  27.810   5.221  0.00  0.00    +0.295 HD
ENDBRANCH  20  21
ENDBRANCH  18  20
ENDBRANCH   5  18
ENDBRANCH   2   5
BRANCH   3  23
ATOM     23  C   UNL     1     -39.879  25.028   3.371  0.00  0.00    +0.176 C 
BRANCH  23  25
ATOM     24  O   UNL     1     -42.349  25.984   2.223  0.00  0.00    -0.275 OA
ATOM     25  N   UNL     1     -40.662  26.160   3.810  0.00  0.00    -0.297 N 
ATOM     26  C   UNL     1     -41.843  26.545   3.191  0.00  0.00    +0.223 C 
ATOM     27  H   UNL     1     -40.344  26.682   4.581  0.00  0.00    +0.150 HD
BRANCH  26  28
ATOM     28  C   UNL     1     -42.453  27.763   3.861  0.00  0.00    +0.085 C 
BRANCH  28  29
ATOM     29  C   UNL     1     -43.905  27.534   4.277  0.00  0.00    +0.010 C 
BRANCH  29  30
ATOM     30  C   UNL     1     -44.571  28.837   4.714  0.00  0.00    +0.000 C 
BRANCH  30  32
ATOM     31  N   UNL     1     -45.259  30.527   8.634  0.00  0.00    +0.384 N 
ATOM     32  C   UNL     1     -44.578  28.979   6.233  0.00  0.00    -0.004 C 
ATOM     33  C   UNL     1     -46.011  29.073   6.772  0.00  0.00    -0.023 C 
ATOM     34  C   UNL     1     -43.772  30.207   6.677  0.00  0.00    -0.023 C 
ATOM     35  C   UNL     1     -46.021  29.327   8.279  0.00  0.00    -0.082 C 
ATOM     36  C   UNL     1     -43.869  30.415   8.188  0.00  0.00    -0.082 C 
ATOM     37  H   UNL     1     -45.276  30.646   9.647  0.00  0.00    -0.085 HD
ATOM     38  H   UNL     1     -45.685  31.332   8.174  0.00  0.00    -0.085 HD
ENDBRANCH  30  32
ENDBRANCH  29  30
ENDBRANCH  28  29
ENDBRANCH  26  28
ENDBRANCH  23  25
ENDBRANCH   3  23
TORSDOF 13
ENDMDL
MODEL 4
REMARK VINA RESULT:      -5.6      4.362      6.982
REMARK  Name = 197470
REMARK  13 active torsions:
REMARK  status: ('A' for Active; 'I' for Inactive)
REMARK    1  A    between atoms: N_2  and  C_5
REMARK    2  A    between atoms: C_3  and  C_23
REMARK    3  A    between atoms: C_5  and  C_6
REMARK    4  A    between atoms: C_5  and  C_18
REMARK    5  A    between atoms: C_6  and  C_7
REMARK    6  A    between atoms: C_7  and  C_9
REMARK    7  A    between atoms: C_18  and  C_20
REMARK    8  A    between atoms: C_20  and  O_21
REMARK    9  A    between atoms: C_23  and  N_25
REMARK   10  A    between atoms: C_26  and  C_28
REMARK   11  A    between atoms: C_28  and  C_29
REMARK   12  A    between atoms: C_29  and  C_30
REMARK   13  A    between atoms: C_30  and  C_32
REMARK                            x       y       z     vdW  Elec       q    Type
REMARK                         _______ _______ _______ _____ _____    ______ ____
ROOT
ATOM      1  O   UNL     1     -35.448  26.980   4.225  0.00  0.00    -0.273 OA
ATOM      2  N   UNL     1     -35.672  26.858   1.914  0.00  0.00    -0.304 N 
ATOM      3  C   UNL     1     -35.200  27.406   3.099  0.00  0.00    +0.243 C 
ATOM      4  H   UNL     1     -35.409  27.283   1.066  0.00  0.00    +0.149 HD
ENDROOT
BRANCH   2   5
ATOM      5  C   UNL     1     -36.530  25.696   1.864  0.00  0.00    +0.083 C 
BRANCH   5   6
ATOM      6  C   UNL     1     -36.002  24.693   0.824  0.00  0.00    +0.025 C 
BRANCH   6   7
ATOM      7  C   UNL     1     -34.761  23.905   1.268  0.00  0.00    +0.029 C 
BRANCH   7   9
ATOM      8  N   UNL     1     -35.724  20.830   3.036  0.00  0.00    -0.312 N 
ATOM      9  C   UNL     1     -35.105  22.803   2.226  0.00  0.00    -0.006 C 
ATOM     10  C   UNL     1     -35.075  22.876   3.648  0.00  0.00    +0.011 C 
ATOM     11  C   UNL     1     -35.468  21.626   4.130  0.00  0.00    +0.048 C 
ATOM     12  C   UNL     1     -35.507  21.534   1.882  0.00  0.00    +0.058 C 
ATOM     13  C   UNL     1     -34.750  23.888   4.572  0.00  0.00    +0.001 C 
ATOM     14  C   UNL     1     -35.552  21.336   5.497  0.00  0.00    +0.015 C 
ATOM     15  C   UNL     1     -34.831  23.613   5.942  0.00  0.00    +0.000 C 
ATOM     16  C   UNL     1     -35.226  22.356   6.395  0.00  0.00    +0.001 C 
ATOM     17  H   UNL     1     -36.020  19.893   3.077  0.00  0.00    +0.152 HD
ENDBRANCH   7   9
ENDBRANCH   6   7
ENDBRANCH   5   6
BRANCH   5  18
ATOM     18  C   UNL     1     -37.991  26.094   1.622  0.00  0.00    +0.129 C 
BRANCH  18  20
ATOM     19  O   UNL     1     -40.009  26.374   2.965  0.00  0.00    -0.250 OA
ATOM     20  C   UNL     1     -38.814  26.127   2.894  0.00  0.00    +0.315 C 
BRANCH  20  21
ATOM     21  O   UNL     1     -38.052  25.837   3.983  0.00  0.00    -0.480 OA
ATOM     22  H   UNL     1     -38.115  24.994   4.387  0.00  0.00    +0.295 HD
ENDBRANCH  20  21
ENDBRANCH  18  20
ENDBRANCH   5  18
ENDBRANCH   2   5
BRANCH   3  23
ATOM     23  C   UNL     1     -34.280  28.580   2.840  0.00  0.00    +0.176 C 
BRANCH  23  25
ATOM     24  O   UNL     1     -35.818  29.938   0.808  0.00  0.00    -0.275 OA
ATOM     25  N   UNL     1     -35.018  29.813   2.986  0.00  0.00    -0.297 N 
ATOM     26  C   UNL     1     -35.731  30.392   1.946  0.00  0.00    +0.223 C 
ATOM     27  H   UNL     1     -35.016  30.263   3.861  0.00  0.00    +0.150 HD
BRANCH  26  28
ATOM     28  C   UNL     1     -36.410  31.678   2.383  0.00  0.00    +0.085 C 
BRANCH  28  29
ATOM     29  C   UNL     1     -37.520  32.107   1.425  0.00  0.00    +0.010 C 
BRANCH  29  30
ATOM     30  C   UNL     1     -37.690  33.625   1.415  0.00  0.00    +0.000 C 
BRANCH  30  32
ATOM     31  N   UNL     1     -41.361  35.849   1.937  0.00  0.00    +0.384 N 
ATOM     32  C   UNL     1     -39.048  34.039   1.972  0.00  0.00    -0.004 C 
ATOM     33  C   UNL     1     -40.134  33.965   0.891  0.00  0.00    -0.023 C 
ATOM     34  C   UNL     1     -38.995  35.454   2.562  0.00  0.00    -0.023 C 
ATOM     35  C   UNL     1     -41.473  34.485   1.414  0.00  0.00    -0.082 C 
ATOM     36  C   UNL     1     -40.378  35.914   3.021  0.00  0.00    -0.082 C 
ATOM     37  H   UNL     1     -42.270  36.146   2.292  0.00  0.00    -0.085 HD
ATOM     38  H   UNL     1     -41.055  36.463   1.183  0.00  0.00    -0.085 HD
ENDBRANCH  30  32
ENDBRANCH  29  30
ENDBRANCH  28  29
ENDBRANCH  26  28
ENDBRANCH  23  25
ENDBRANCH   3  23
TORSDOF 13
ENDMDL
MODEL 5
REMARK VINA RESULT:      -5.6      3.952      6.541
REMARK  Name = 197470
REMARK  13 active torsions:
REMARK  status: ('A' for Active; 'I' for Inactive)
REMARK    1  A    between atoms: N_2  and  C_5
REMARK    2  A    between atoms: C_3  and  C_23
REMARK    3  A    between atoms: C_5  and  C_6
REMARK    4  A    between atoms: C_5  and  C_18
REMARK    5  A    between atoms: C_6  and  C_7
REMARK    6  A    between atoms: C_7  and  C_9
REMARK    7  A    between atoms: C_18  and  C_20
REMARK    8  A    between atoms: C_20  and  O_21
REMARK    9  A    between atoms: C_23  and  N_25
REMARK   10  A    between atoms: C_26  and  C_28
REMARK   11  A    between atoms: C_28  and  C_29
REMARK   12  A    between atoms: C_29  and  C_30
REMARK   13  A    between atoms: C_30  and  C_32
REMARK                            x       y       z     vdW  Elec       q    Type
REMARK                         _______ _______ _______ _____ _____    ______ ____
ROOT
ATOM      1  O   UNL     1     -37.226  23.649   1.446  0.00  0.00    -0.273 OA
ATOM      2  N   UNL     1     -37.315  22.156   3.226  0.00  0.00    -0.304 N 
ATOM      3  C   UNL     1     -37.836  22.832   2.131  0.00  0.00    +0.243 C 
ATOM      4  H   UNL     1     -37.896  21.521   3.702  0.00  0.00    +0.149 HD
ENDROOT
BRANCH   2   5
ATOM      5  C   UNL     1     -35.962  22.339   3.699  0.00  0.00    +0.083 C 
BRANCH   5   6
ATOM      6  C   UNL     1     -35.168  21.029   3.553  0.00  0.00    +0.025 C 
BRANCH   6   7
ATOM      7  C   UNL     1     -35.347  20.319   2.203  0.00  0.00    +0.029 C 
BRANCH   7   9
ATOM      8  N   UNL     1     -32.908  21.616  -0.221  0.00  0.00    -0.312 N 
ATOM      9  C   UNL     1     -34.213  20.603   1.262  0.00  0.00    -0.006 C 
ATOM     10  C   UNL     1     -33.100  19.756   0.996  0.00  0.00    +0.011 C 
ATOM     11  C   UNL     1     -32.298  20.415   0.063  0.00  0.00    +0.048 C 
ATOM     12  C   UNL     1     -34.066  21.738   0.499  0.00  0.00    +0.058 C 
ATOM     13  C   UNL     1     -32.698  18.489   1.462  0.00  0.00    +0.001 C 
ATOM     14  C   UNL     1     -31.107  19.868  -0.430  0.00  0.00    +0.015 C 
ATOM     15  C   UNL     1     -31.510  17.929   0.977  0.00  0.00    +0.000 C 
ATOM     16  C   UNL     1     -30.729  18.609   0.046  0.00  0.00    +0.001 C 
ATOM     17  H   UNL     1     -32.562  22.289  -0.851  0.00  0.00    +0.152 HD
ENDBRANCH   7   9
ENDBRANCH   6   7
ENDBRANCH   5   6
BRANCH   5  18
ATOM     18  C   UNL     1     -35.943  22.892   5.130  0.00  0.00    +0.129 C 
BRANCH  18  20
ATOM     19  O   UNL     1     -35.020  25.118   5.513  0.00  0.00    -0.250 OA
ATOM     20  C   UNL     1     -35.956  24.407   5.177  0.00  0.00    +0.315 C 
BRANCH  20  21
ATOM     21  O   UNL     1     -37.160  24.904   4.789  0.00  0.00    -0.480 OA
ATOM     22  H   UNL     1     -37.429  24.832   3.894  0.00  0.00    +0.295 HD
ENDBRANCH  20  21
ENDBRANCH  18  20
ENDBRANCH   5  18
ENDBRANCH   2   5
BRANCH   3  23
ATOM     23  C   UNL     1     -39.256  22.398   1.836  0.00  0.00    +0.176 C 
BRANCH  23  25
ATOM     24  O   UNL     1     -38.705  21.896  -0.953  0.00  0.00    -0.275 OA
ATOM     25  N   UNL     1     -39.242  21.117   1.169  0.00  0.00    -0.297 N 
ATOM     26  C   UNL     1     -38.964  20.974  -0.183  0.00  0.00    +0.223 C 
ATOM     27  H   UNL     1     -39.437  20.309   1.696  0.00  0.00    +0.150 HD
BRANCH  26  28
ATOM     28  C   UNL     1     -39.016  19.519  -0.613  0.00  0.00    +0.085 C 
BRANCH  28  29
ATOM     29  C   UNL     1     -37.653  18.994  -1.060  0.00  0.00    +0.010 C 
BRANCH  29  30
ATOM     30  C   UNL     1     -37.164  17.870  -0.149  0.00  0.00    +0.000 C 
BRANCH  30  32
ATOM     31  N   UNL     1     -33.618  16.258  -2.026  0.00  0.00    +0.384 N 
ATOM     32  C   UNL     1     -35.694  17.547  -0.397  0.00  0.00    -0.004 C 
ATOM     33  C   UNL     1     -35.220  18.129  -1.735  0.00  0.00    -0.023 C 
ATOM     34  C   UNL     1     -35.448  16.033  -0.369  0.00  0.00    -0.023 C 
ATOM     35  C   UNL     1     -33.781  17.714  -2.040  0.00  0.00    -0.082 C 
ATOM     36  C   UNL     1     -33.999  15.702  -0.726  0.00  0.00    -0.082 C 
ATOM     37  H   UNL     1     -32.643  16.029  -2.214  0.00  0.00    -0.085 HD
ATOM     38  H   UNL     1     -34.223  15.855  -2.743  0.00  0.00    -0.085 HD
ENDBRANCH  30  32
ENDBRANCH  29  30
ENDBRANCH  28  29
ENDBRANCH  26  28
ENDBRANCH  23  25
ENDBRANCH   3  23
TORSDOF 13
ENDMDL
MODEL 6
REMARK VINA RESULT:      -5.5      3.324      5.316
REMARK  Name = 197470
REMARK  13 active torsions:
REMARK  status: ('A' for Active; 'I' for Inactive)
REMARK    1  A    between atoms: N_2  and  C_5
REMARK    2  A    between atoms: C_3  and  C_23
REMARK    3  A    between atoms: C_5  and  C_6
REMARK    4  A    between atoms: C_5  and  C_18
REMARK    5  A    between atoms: C_6  and  C_7
REMARK    6  A    between atoms: C_7  and  C_9
REMARK    7  A    between atoms: C_18  and  C_20
REMARK    8  A    between atoms: C_20  and  O_21
REMARK    9  A    between atoms: C_23  and  N_25
REMARK   10  A    between atoms: C_26  and  C_28
REMARK   11  A    between atoms: C_28  and  C_29
REMARK   12  A    between atoms: C_29  and  C_30
REMARK   13  A    between atoms: C_30  and  C_32
REMARK                            x       y       z     vdW  Elec       q    Type
REMARK                         _______ _______ _______ _____ _____    ______ ____
ROOT
ATOM      1  O   UNL     1     -37.185  25.511   2.361  0.00  0.00    -0.273 OA
ATOM      2  N   UNL     1     -37.310  23.664   3.769  0.00  0.00    -0.304 N 
ATOM      3  C   UNL     1     -37.826  24.604   2.888  0.00  0.00    +0.243 C 
ATOM      4  H   UNL     1     -37.917  22.981   4.131  0.00  0.00    +0.149 HD
ENDROOT
BRANCH   2   5
ATOM      5  C   UNL     1     -35.924  23.641   4.180  0.00  0.00    +0.083 C 
BRANCH   5   6
ATOM      6  C   UNL     1     -35.347  22.225   4.015  0.00  0.00    +0.025 C 
BRANCH   6   7
ATOM      7  C   UNL     1     -35.957  21.416   2.861  0.00  0.00    +0.029 C 
BRANCH   7   9
ATOM      8  N   UNL     1     -34.221  22.174  -0.289  0.00  0.00    -0.312 N 
ATOM      9  C   UNL     1     -35.113  21.478   1.621  0.00  0.00    -0.006 C 
ATOM     10  C   UNL     1     -34.153  20.514   1.200  0.00  0.00    +0.011 C 
ATOM     11  C   UNL     1     -33.610  20.975  -0.000  0.00  0.00    +0.048 C 
ATOM     12  C   UNL     1     -35.131  22.485   0.685  0.00  0.00    +0.058 C 
ATOM     13  C   UNL     1     -33.695  19.290   1.727  0.00  0.00    +0.001 C 
ATOM     14  C   UNL     1     -32.626  20.271  -0.704  0.00  0.00    +0.015 C 
ATOM     15  C   UNL     1     -32.712  18.575   1.034  0.00  0.00    +0.000 C 
ATOM     16  C   UNL     1     -32.187  19.059  -0.162  0.00  0.00    +0.001 C 
ATOM     17  H   UNL     1     -34.033  22.727  -1.081  0.00  0.00    +0.152 HD
ENDBRANCH   7   9
ENDBRANCH   6   7
ENDBRANCH   5   6
BRANCH   5  18
ATOM     18  C   UNL     1     -35.757  24.192   5.602  0.00  0.00    +0.129 C 
BRANCH  18  20
ATOM     19  O   UNL     1     -34.484  26.252   5.905  0.00  0.00    -0.250 OA
ATOM     20  C   UNL     1     -35.536  25.691   5.633  0.00  0.00    +0.315 C 
BRANCH  20  21
ATOM     21  O   UNL     1     -36.672  26.365   5.310  0.00  0.00    -0.480 OA
ATOM     22  H   UNL     1     -36.722  27.290   5.448  0.00  0.00    +0.295 HD
ENDBRANCH  20  21
ENDBRANCH  18  20
ENDBRANCH   5  18
ENDBRANCH   2   5
BRANCH   3  23
ATOM     23  C   UNL     1     -39.290  24.348   2.599  0.00  0.00    +0.176 C 
BRANCH  23  25
ATOM     24  O   UNL     1     -38.560  23.202   0.052  0.00  0.00    -0.275 OA
ATOM     25  N   UNL     1     -39.467  22.978   2.179  0.00  0.00    -0.297 N 
ATOM     26  C   UNL     1     -39.083  22.517   0.928  0.00  0.00    +0.223 C 
ATOM     27  H   UNL     1     -39.879  22.342   2.807  0.00  0.00    +0.150 HD
BRANCH  26  28
ATOM     28  C   UNL     1     -39.386  21.039   0.760  0.00  0.00    +0.085 C 
BRANCH  28  29
ATOM     29  C   UNL     1     -38.322  20.315  -0.063  0.00  0.00    +0.010 C 
BRANCH  29  30
ATOM     30  C   UNL     1     -38.940  19.219  -0.929  0.00  0.00    +0.000 C 
BRANCH  30  32
ATOM     31  N   UNL     1     -36.553  15.744   0.033  0.00  0.00    +0.384 N 
ATOM     32  C   UNL     1     -37.986  18.041  -1.105  0.00  0.00    -0.004 C 
ATOM     33  C   UNL     1     -38.684  16.713  -0.786  0.00  0.00    -0.023 C 
ATOM     34  C   UNL     1     -36.742  18.202  -0.222  0.00  0.00    -0.023 C 
ATOM     35  C   UNL     1     -37.703  15.543  -0.852  0.00  0.00    -0.082 C 
ATOM     36  C   UNL     1     -35.837  16.973  -0.312  0.00  0.00    -0.082 C 
ATOM     37  H   UNL     1     -35.919  14.951  -0.059  0.00  0.00    -0.085 HD
ATOM     38  H   UNL     1     -36.891  15.822   0.993  0.00  0.00    -0.085 HD
ENDBRANCH  30  32
ENDBRANCH  29  30
ENDBRANCH  28  29
ENDBRANCH  26  28
ENDBRANCH  23  25
ENDBRANCH   3  23
TORSDOF 13
ENDMDL
MODEL 7
REMARK VINA RESULT:      -5.5      6.233      9.293
REMARK  Name = 197470
REMARK  13 active torsions:
REMARK  status: ('A' for Active; 'I' for Inactive)
REMARK    1  A    between atoms: N_2  and  C_5
REMARK    2  A    between atoms: C_3  and  C_23
REMARK    3  A    between atoms: C_5  and  C_6
REMARK    4  A    between atoms: C_5  and  C_18
REMARK    5  A    between atoms: C_6  and  C_7
REMARK    6  A    between atoms: C_7  and  C_9
REMARK    7  A    between atoms: C_18  and  C_20
REMARK    8  A    between atoms: C_20  and  O_21
REMARK    9  A    between atoms: C_23  and  N_25
REMARK   10  A    between atoms: C_26  and  C_28
REMARK   11  A    between atoms: C_28  and  C_29
REMARK   12  A    between atoms: C_29  and  C_30
REMARK   13  A    between atoms: C_30  and  C_32
REMARK                            x       y       z     vdW  Elec       q    Type
REMARK                         _______ _______ _______ _____ _____    ______ ____
ROOT
ATOM      1  O   UNL     1     -42.041  28.693   4.533  0.00  0.00    -0.273 OA
ATOM      2  N   UNL     1     -44.282  28.733   3.918  0.00  0.00    -0.304 N 
ATOM      3  C   UNL     1     -42.925  28.547   3.692  0.00  0.00    +0.243 C 
ATOM      4  H   UNL     1     -44.904  28.588   3.169  0.00  0.00    +0.149 HD
ENDROOT
BRANCH   2   5
ATOM      5  C   UNL     1     -44.826  29.128   5.197  0.00  0.00    +0.083 C 
BRANCH   5   6
ATOM      6  C   UNL     1     -46.054  28.266   5.539  0.00  0.00    +0.025 C 
BRANCH   6   7
ATOM      7  C   UNL     1     -45.724  26.869   6.083  0.00  0.00    +0.029 C 
BRANCH   7   9
ATOM      8  N   UNL     1     -48.039  24.240   4.970  0.00  0.00    -0.312 N 
ATOM      9  C   UNL     1     -46.509  25.793   5.391  0.00  0.00    -0.006 C 
ATOM     10  C   UNL     1     -46.253  25.255   4.098  0.00  0.00    +0.011 C 
ATOM     11  C   UNL     1     -47.226  24.284   3.859  0.00  0.00    +0.048 C 
ATOM     12  C   UNL     1     -47.612  25.149   5.901  0.00  0.00    +0.058 C 
ATOM     13  C   UNL     1     -45.283  25.503   3.106  0.00  0.00    +0.001 C 
ATOM     14  C   UNL     1     -47.280  23.544   2.672  0.00  0.00    +0.015 C 
ATOM     15  C   UNL     1     -45.324  24.771   1.914  0.00  0.00    +0.000 C 
ATOM     16  C   UNL     1     -46.307  23.807   1.702  0.00  0.00    +0.001 C 
ATOM     17  H   UNL     1     -48.813  23.643   5.079  0.00  0.00    +0.152 HD
ENDBRANCH   7   9
ENDBRANCH   6   7
ENDBRANCH   5   6
BRANCH   5  18
ATOM     18  C   UNL     1     -45.124  30.632   5.234  0.00  0.00    +0.129 C 
BRANCH  18  20
ATOM     19  O   UNL     1     -43.783  32.655   5.486  0.00  0.00    -0.250 OA
ATOM     20  C   UNL     1     -43.936  31.458   5.684  0.00  0.00    +0.315 C 
BRANCH  20  21
ATOM     21  O   UNL     1     -43.031  30.698   6.357  0.00  0.00    -0.480 OA
ATOM     22  H   UNL     1     -43.255  29.827   6.620  0.00  0.00    +0.295 HD
ENDBRANCH  20  21
ENDBRANCH  18  20
ENDBRANCH   5  18
ENDBRANCH   2   5
BRANCH   3  23
ATOM     23  C   UNL     1     -42.656  28.083   2.277  0.00  0.00    +0.176 C 
BRANCH  23  25
ATOM     24  O   UNL     1     -40.137  27.436   1.024  0.00  0.00    -0.275 OA
ATOM     25  N   UNL     1     -41.969  26.812   2.308  0.00  0.00    -0.297 N 
ATOM     26  C   UNL     1     -40.756  26.596   1.672  0.00  0.00    +0.223 C 
ATOM     27  H   UNL     1     -42.380  26.066   2.802  0.00  0.00    +0.150 HD
BRANCH  26  28
ATOM     28  C   UNL     1     -40.266  25.172   1.873  0.00  0.00    +0.085 C 
BRANCH  28  29
ATOM     29  C   UNL     1     -39.390  25.027   3.115  0.00  0.00    +0.010 C 
BRANCH  29  30
ATOM     30  C   UNL     1     -38.011  25.647   2.900  0.00  0.00    +0.000 C 
BRANCH  30  32
ATOM     31  N   UNL     1     -35.987  22.552   5.140  0.00  0.00    +0.384 N 
ATOM     32  C   UNL     1     -36.899  24.720   3.383  0.00  0.00    -0.004 C 
ATOM     33  C   UNL     1     -37.256  23.251   3.127  0.00  0.00    -0.023 C 
ATOM     34  C   UNL     1     -36.610  24.936   4.873  0.00  0.00    -0.023 C 
ATOM     35  C   UNL     1     -36.197  22.315   3.710  0.00  0.00    -0.082 C 
ATOM     36  C   UNL     1     -35.575  23.935   5.386  0.00  0.00    -0.082 C 
ATOM     37  H   UNL     1     -35.261  21.921   5.480  0.00  0.00    -0.085 HD
ATOM     38  H   UNL     1     -36.866  22.381   5.631  0.00  0.00    -0.085 HD
ENDBRANCH  30  32
ENDBRANCH  29  30
ENDBRANCH  28  29
ENDBRANCH  26  28
ENDBRANCH  23  25
ENDBRANCH   3  23
TORSDOF 13
ENDMDL
MODEL 8
REMARK VINA RESULT:      -5.5      3.409      7.855
REMARK  Name = 197470
REMARK  13 active torsions:
REMARK  status: ('A' for Active; 'I' for Inactive)
REMARK    1  A    between atoms: N_2  and  C_5
REMARK    2  A    between atoms: C_3  and  C_23
REMARK    3  A    between atoms: C_5  and  C_6
REMARK    4  A    between atoms: C_5  and  C_18
REMARK    5  A    between atoms: C_6  and  C_7
REMARK    6  A    between atoms: C_7  and  C_9
REMARK    7  A    between atoms: C_18  and  C_20
REMARK    8  A    between atoms: C_20  and  O_21
REMARK    9  A    between atoms: C_23  and  N_25
REMARK   10  A    between atoms: C_26  and  C_28
REMARK   11  A    between atoms: C_28  and  C_29
REMARK   12  A    between atoms: C_29  and  C_30
REMARK   13  A    between atoms: C_30  and  C_32
REMARK                            x       y       z     vdW  Elec       q    Type
REMARK                         _______ _______ _______ _____ _____    ______ ____
ROOT
ATOM      1  O   UNL     1     -37.011  24.172   1.560  0.00  0.00    -0.273 OA
ATOM      2  N   UNL     1     -37.916  22.575   2.986  0.00  0.00    -0.304 N 
ATOM      3  C   UNL     1     -37.658  23.871   2.560  0.00  0.00    +0.243 C 
ATOM      4  H   UNL     1     -38.447  22.449   3.804  0.00  0.00    +0.149 HD
ENDROOT
BRANCH   2   5
ATOM      5  C   UNL     1     -37.442  21.402   2.287  0.00  0.00    +0.083 C 
BRANCH   5   6
ATOM      6  C   UNL     1     -35.913  21.287   2.421  0.00  0.00    +0.025 C 
BRANCH   6   7
ATOM      7  C   UNL     1     -35.299  20.074   1.709  0.00  0.00    +0.029 C 
BRANCH   7   9
ATOM      8  N   UNL     1     -32.585  21.550  -0.282  0.00  0.00    -0.312 N 
ATOM      9  C   UNL     1     -34.051  20.434   0.955  0.00  0.00    -0.006 C 
ATOM     10  C   UNL     1     -32.880  19.635   0.826  0.00  0.00    +0.011 C 
ATOM     11  C   UNL     1     -31.977  20.359   0.045  0.00  0.00    +0.048 C 
ATOM     12  C   UNL     1     -33.839  21.603   0.264  0.00  0.00    +0.058 C 
ATOM     13  C   UNL     1     -32.501  18.364   1.299  0.00  0.00    +0.001 C 
ATOM     14  C   UNL     1     -30.707  19.872  -0.288  0.00  0.00    +0.015 C 
ATOM     15  C   UNL     1     -31.234  17.864   0.974  0.00  0.00    +0.000 C 
ATOM     16  C   UNL     1     -30.353  18.608   0.193  0.00  0.00    +0.001 C 
ATOM     17  H   UNL     1     -32.178  22.259  -0.829  0.00  0.00    +0.152 HD
ENDBRANCH   7   9
ENDBRANCH   6   7
ENDBRANCH   5   6
BRANCH   5  18
ATOM     18  C   UNL     1     -37.916  21.394   0.828  0.00  0.00    +0.129 C 
BRANCH  18  20
ATOM     19  O   UNL     1     -39.733  20.232  -0.313  0.00  0.00    -0.250 OA
ATOM     20  C   UNL     1     -39.316  20.838   0.664  0.00  0.00    +0.315 C 
BRANCH  20  21
ATOM     21  O   UNL     1     -40.080  21.092   1.759  0.00  0.00    -0.480 OA
ATOM     22  H   UNL     1     -40.460  21.940   1.879  0.00  0.00    +0.295 HD
ENDBRANCH  20  21
ENDBRANCH  18  20
ENDBRANCH   5  18
ENDBRANCH   2   5
BRANCH   3  23
ATOM     23  C   UNL     1     -38.325  24.892   3.455  0.00  0.00    +0.176 C 
BRANCH  23  25
ATOM     24  O   UNL     1     -36.333  23.833   5.256  0.00  0.00    -0.275 OA
ATOM     25  N   UNL     1     -37.317  25.637   4.173  0.00  0.00    -0.297 N 
ATOM     26  C   UNL     1     -36.398  25.037   5.021  0.00  0.00    +0.223 C 
ATOM     27  H   UNL     1     -37.280  26.614   4.056  0.00  0.00    +0.150 HD
BRANCH  26  28
ATOM     28  C   UNL     1     -35.458  26.059   5.637  0.00  0.00    +0.085 C 
BRANCH  28  29
ATOM     29  C   UNL     1     -34.013  25.875   5.176  0.00  0.00    +0.010 C 
BRANCH  29  30
ATOM     30  C   UNL     1     -33.645  26.882   4.087  0.00  0.00    +0.000 C 
BRANCH  30  32
ATOM     31  N   UNL     1     -31.618  30.196   5.984  0.00  0.00    +0.384 N 
ATOM     32  C   UNL     1     -32.517  27.804   4.537  0.00  0.00    -0.004 C 
ATOM     33  C   UNL     1     -32.418  27.850   6.067  0.00  0.00    -0.023 C 
ATOM     34  C   UNL     1     -32.709  29.222   3.983  0.00  0.00    -0.023 C 
ATOM     35  C   UNL     1     -31.362  28.858   6.523  0.00  0.00    -0.082 C 
ATOM     36  C   UNL     1     -31.641  30.175   4.520  0.00  0.00    -0.082 C 
ATOM     37  H   UNL     1     -30.881  30.828   6.297  0.00  0.00    -0.085 HD
ATOM     38  H   UNL     1     -32.527  30.514   6.320  0.00  0.00    -0.085 HD
ENDBRANCH  30  32
ENDBRANCH  29  30
ENDBRANCH  28  29
ENDBRANCH  26  28
ENDBRANCH  23  25
ENDBRANCH   3  23
TORSDOF 13
ENDMDL
MODEL 9
REMARK VINA RESULT:      -5.5      3.527      7.100
REMARK  Name = 197470
REMARK  13 active torsions:
REMARK  status: ('A' for Active; 'I' for Inactive)
REMARK    1  A    between atoms: N_2  and  C_5
REMARK    2  A    between atoms: C_3  and  C_23
REMARK    3  A    between atoms: C_5  and  C_6
REMARK    4  A    between atoms: C_5  and  C_18
REMARK    5  A    between atoms: C_6  and  C_7
REMARK    6  A    between atoms: C_7  and  C_9
REMARK    7  A    between atoms: C_18  and  C_20
REMARK    8  A    between atoms: C_20  and  O_21
REMARK    9  A    between atoms: C_23  and  N_25
REMARK   10  A    between atoms: C_26  and  C_28
REMARK   11  A    between atoms: C_28  and  C_29
REMARK   12  A    between atoms: C_29  and  C_30
REMARK   13  A    between atoms: C_30  and  C_32
REMARK                            x       y       z     vdW  Elec       q    Type
REMARK                         _______ _______ _______ _____ _____    ______ ____
ROOT
ATOM      1  O   UNL     1     -34.741  30.613   3.443  0.00  0.00    -0.273 OA
ATOM      2  N   UNL     1     -32.919  29.355   4.152  0.00  0.00    -0.304 N 
ATOM      3  C   UNL     1     -34.152  29.539   3.542  0.00  0.00    +0.243 C 
ATOM      4  H   UNL     1     -32.540  28.447   4.174  0.00  0.00    +0.149 HD
ENDROOT
BRANCH   2   5
ATOM      5  C   UNL     1     -32.166  30.430   4.757  0.00  0.00    +0.083 C 
BRANCH   5   6
ATOM      6  C   UNL     1     -30.999  30.839   3.841  0.00  0.00    +0.025 C 
BRANCH   6   7
ATOM      7  C   UNL     1     -31.122  32.244   3.236  0.00  0.00    +0.029 C 
BRANCH   7   9
ATOM      8  N   UNL     1     -33.027  31.682   0.144  0.00  0.00    -0.312 N 
ATOM      9  C   UNL     1     -32.024  32.265   2.036  0.00  0.00    -0.006 C 
ATOM     10  C   UNL     1     -32.966  33.279   1.702  0.00  0.00    +0.011 C 
ATOM     11  C   UNL     1     -33.580  32.888   0.510  0.00  0.00    +0.048 C 
ATOM     12  C   UNL     1     -32.086  31.298   1.060  0.00  0.00    +0.058 C 
ATOM     13  C   UNL     1     -33.355  34.493   2.299  0.00  0.00    +0.001 C 
ATOM     14  C   UNL     1     -34.570  33.656  -0.116  0.00  0.00    +0.015 C 
ATOM     15  C   UNL     1     -34.342  35.272   1.684  0.00  0.00    +0.000 C 
ATOM     16  C   UNL     1     -34.939  34.858   0.496  0.00  0.00    +0.001 C 
ATOM     17  H   UNL     1     -33.272  31.171  -0.661  0.00  0.00    +0.152 HD
ENDBRANCH   7   9
ENDBRANCH   6   7
ENDBRANCH   5   6
BRANCH   5  18
ATOM     18  C   UNL     1     -31.712  30.062   6.175  0.00  0.00    +0.129 C 
BRANCH  18  20
ATOM     19  O   UNL     1     -32.639  27.981   7.051  0.00  0.00    -0.250 OA
ATOM     20  C   UNL     1     -31.758  28.570   6.441  0.00  0.00    +0.315 C 
BRANCH  20  21
ATOM     21  O   UNL     1     -30.678  27.939   5.908  0.00  0.00    -0.480 OA
ATOM     22  H   UNL     1     -30.414  27.104   6.239  0.00  0.00    +0.295 HD
ENDBRANCH  20  21
ENDBRANCH  18  20
ENDBRANCH   5  18
ENDBRANCH   2   5
BRANCH   3  23
ATOM     23  C   UNL     1     -34.677  28.248   2.950  0.00  0.00    +0.176 C 
BRANCH  23  25
ATOM     24  O   UNL     1     -33.137  26.125   4.157  0.00  0.00    -0.275 OA
ATOM     25  N   UNL     1     -35.096  27.365   4.013  0.00  0.00    -0.297 N 
ATOM     26  C   UNL     1     -34.281  26.368   4.531  0.00  0.00    +0.223 C 
ATOM     27  H   UNL     1     -36.000  27.473   4.387  0.00  0.00    +0.150 HD
BRANCH  26  28
ATOM     28  C   UNL     1     -34.978  25.596   5.637  0.00  0.00    +0.085 C 
BRANCH  28  29
ATOM     29  C   UNL     1     -35.923  24.526   5.097  0.00  0.00    +0.010 C 
BRANCH  29  30
ATOM     30  C   UNL     1     -35.179  23.226   4.798  0.00  0.00    +0.000 C 
BRANCH  30  32
ATOM     31  N   UNL     1     -37.415  20.701   2.092  0.00  0.00    +0.384 N 
ATOM     32  C   UNL     1     -35.661  22.592   3.496  0.00  0.00    -0.004 C 
ATOM     33  C   UNL     1     -37.152  22.869   3.267  0.00  0.00    -0.023 C 
ATOM     34  C   UNL     1     -35.404  21.080   3.491  0.00  0.00    -0.023 C 
ATOM     35  C   UNL     1     -37.665  22.143   2.023  0.00  0.00    -0.082 C 
ATOM     36  C   UNL     1     -35.984  20.425   2.237  0.00  0.00    -0.082 C 
ATOM     37  H   UNL     1     -37.754  20.262   1.236  0.00  0.00    -0.085 HD
ATOM     38  H   UNL     1     -37.904  20.324   2.904  0.00  0.00    -0.085 HD
ENDBRANCH  30  32
ENDBRANCH  29  30
ENDBRANCH  28  29
ENDBRANCH  26  28
ENDBRANCH  23  25
ENDBRANCH   3  23
TORSDOF 13
ENDMDL
