MODEL 1
REMARK VINA RESULT:      -6.1      0.000      0.000
REMARK  Name = 54693540
REMARK  4 active torsions:
REMARK  status: ('A' for Active; 'I' for Inactive)
REMARK    1  A    between atoms: C_8  and  C_16
REMARK    2  A    between atoms: CA_14  and  C_20
REMARK    3  A    between atoms: C_16  and  O_17
REMARK    4  A    between atoms: C_20  and  O_21
REMARK                            x       y       z     vdW  Elec       q    Type
REMARK                         _______ _______ _______ _____ _____    ______ ____
ROOT
ATOM      1  S   UNL     1     -36.260  23.564   2.045  0.00  0.00    -0.070 S 
ATOM      2  O   UNL     1     -33.772  26.581   6.342  0.00  0.00    -0.282 OA
ATOM      3  N   UNL     1     -35.324  23.995   4.329  0.00  0.00    -0.251 N 
ATOM      4  N   UNL     1     -34.121  27.953   4.049  0.00  0.00    -0.392 NA
ATOM      5  C   UNL     1     -35.509  24.644   3.183  0.00  0.00    +0.089 C 
ATOM      6  C   UNL     1     -35.111  26.007   3.045  0.00  0.00    +0.053 C 
ATOM      7  C   UNL     1     -34.511  26.670   4.141  0.00  0.00    +0.173 C 
ATOM      8  C   UNL     1     -35.741  22.683   4.368  0.00  0.00    +0.139 C 
ATOM      9  C   UNL     1     -34.694  24.671   5.498  0.00  0.00    +0.115 C 
ATOM     10  C   UNL     1     -34.316  25.994   5.335  0.00  0.00    +0.240 C 
ATOM     11  C   UNL     1     -35.295  26.718   1.845  0.00  0.00    +0.007 C 
ATOM     12  C   UNL     1     -36.288  22.277   3.179  0.00  0.00    +0.058 C 
ATOM     13  C   UNL     1     -34.890  28.040   1.759  0.00  0.00    +0.039 C 
ATOM     14  CA  UNL     1     -34.314  28.606   2.879  0.00  0.00    +0.207 C 
ENDROOT
BRANCH   8  16
ATOM     15  O   UNL     1     -35.989  22.139   6.685  0.00  0.00    -0.244 OA
ATOM     16  C   UNL     1     -35.607  21.856   5.532  0.00  0.00    +0.353 C 
BRANCH  16  17
ATOM     17  O   UNL     1     -34.992  20.659   5.278  0.00  0.00    -0.476 OA
ATOM     18  H   UNL     1     -34.059  20.590   5.337  0.00  0.00    +0.295 HD
ENDBRANCH  16  17
ENDBRANCH   8  16
BRANCH  14  20
ATOM     19  OXT UNL     1     -32.963  30.439   2.143  0.00  0.00    -0.242 OA
ATOM     20  C   UNL     1     -33.870  29.989   2.853  0.00  0.00    +0.368 C 
BRANCH  20  21
ATOM     21  O   UNL     1     -34.572  30.779   3.712  0.00  0.00    -0.475 OA
ATOM     22  H   UNL     1     -35.440  31.055   3.493  0.00  0.00    +0.295 HD
ENDBRANCH  20  21
ENDBRANCH  14  20
TORSDOF 4
ENDMDL
MODEL 2
REMARK VINA RESULT:      -5.9      4.105      5.682
REMARK  Name = 54693540
REMARK  4 active torsions:
REMARK  status: ('A' for Active; 'I' for Inactive)
REMARK    1  A    between atoms: C_8  and  C_16
REMARK    2  A    between atoms: CA_14  and  C_20
REMARK    3  A    between atoms: C_16  and  O_17
REMARK    4  A    between atoms: C_20  and  O_21
REMARK                            x       y       z     vdW  Elec       q    Type
REMARK                         _______ _______ _______ _____ _____    ______ ____
ROOT
ATOM      1  S   UNL     1     -36.784  20.474   1.006  0.00  0.00    -0.070 S 
ATOM      2  O   UNL     1     -39.870  24.937   3.083  0.00  0.00    -0.282 OA
ATOM      3  N   UNL     1     -38.763  21.983   1.296  0.00  0.00    -0.251 N 
ATOM      4  N   UNL     1     -37.359  24.753   4.043  0.00  0.00    -0.392 NA
ATOM      5  C   UNL     1     -37.520  21.863   1.751  0.00  0.00    +0.089 C 
ATOM      6  C   UNL     1     -36.997  22.795   2.696  0.00  0.00    +0.053 C 
ATOM      7  C   UNL     1     -37.815  23.855   3.153  0.00  0.00    +0.173 C 
ATOM      8  C   UNL     1     -39.179  21.037   0.386  0.00  0.00    +0.139 C 
ATOM      9  C   UNL     1     -39.645  23.090   1.761  0.00  0.00    +0.115 C 
ATOM     10  C   UNL     1     -39.112  23.980   2.680  0.00  0.00    +0.240 C 
ATOM     11  C   UNL     1     -35.685  22.693   3.194  0.00  0.00    +0.007 C 
ATOM     12  C   UNL     1     -38.201  20.117   0.110  0.00  0.00    +0.058 C 
ATOM     13  C   UNL     1     -35.223  23.623   4.113  0.00  0.00    +0.039 C 
ATOM     14  CA  UNL     1     -36.092  24.624   4.500  0.00  0.00    +0.207 C 
ENDROOT
BRANCH   8  16
ATOM     15  O   UNL     1     -41.539  20.636   0.358  0.00  0.00    -0.244 OA
ATOM     16  C   UNL     1     -40.492  21.034  -0.192  0.00  0.00    +0.353 C 
BRANCH  16  17
ATOM     17  O   UNL     1     -40.522  21.529  -1.468  0.00  0.00    -0.476 OA
ATOM     18  H   UNL     1     -40.405  20.951  -2.197  0.00  0.00    +0.295 HD
ENDBRANCH  16  17
ENDBRANCH   8  16
BRANCH  14  20
ATOM     19  OXT UNL     1     -34.569  25.657   6.031  0.00  0.00    -0.242 OA
ATOM     20  C   UNL     1     -35.665  25.629   5.459  0.00  0.00    +0.368 C 
BRANCH  20  21
ATOM     21  O   UNL     1     -36.618  26.577   5.679  0.00  0.00    -0.475 OA
ATOM     22  H   UNL     1     -36.488  27.452   5.370  0.00  0.00    +0.295 HD
ENDBRANCH  20  21
ENDBRANCH  14  20
TORSDOF 4
ENDMDL
MODEL 3
REMARK VINA RESULT:      -5.9      2.660      5.857
REMARK  Name = 54693540
REMARK  4 active torsions:
REMARK  status: ('A' for Active; 'I' for Inactive)
REMARK    1  A    between atoms: C_8  and  C_16
REMARK    2  A    between atoms: CA_14  and  C_20
REMARK    3  A    between atoms: C_16  and  O_17
REMARK    4  A    between atoms: C_20  and  O_21
REMARK                            x       y       z     vdW  Elec       q    Type
REMARK                         _______ _______ _______ _____ _____    ______ ____
ROOT
ATOM      1  S   UNL     1     -34.904  27.606   2.204  0.00  0.00    -0.070 S 
ATOM      2  O   UNL     1     -35.960  23.105   5.723  0.00  0.00    -0.282 OA
ATOM      3  N   UNL     1     -34.653  26.132   4.215  0.00  0.00    -0.251 N 
ATOM      4  N   UNL     1     -37.462  23.171   3.485  0.00  0.00    -0.392 NA
ATOM      5  C   UNL     1     -35.378  26.194   3.102  0.00  0.00    +0.089 C 
ATOM      6  C   UNL     1     -36.355  25.195   2.812  0.00  0.00    +0.053 C 
ATOM      7  C   UNL     1     -36.551  24.130   3.723  0.00  0.00    +0.173 C 
ATOM      8  C   UNL     1     -33.735  27.140   4.408  0.00  0.00    +0.139 C 
ATOM      9  C   UNL     1     -34.840  25.022   5.190  0.00  0.00    +0.115 C 
ATOM     10  C   UNL     1     -35.796  24.066   4.883  0.00  0.00    +0.240 C 
ATOM     11  C   UNL     1     -37.136  25.235   1.643  0.00  0.00    +0.007 C 
ATOM     12  C   UNL     1     -33.741  28.050   3.383  0.00  0.00    +0.058 C 
ATOM     13  C   UNL     1     -38.073  24.242   1.406  0.00  0.00    +0.039 C 
ATOM     14  CA  UNL     1     -38.195  23.241   2.350  0.00  0.00    +0.207 C 
ENDROOT
BRANCH   8  16
ATOM     15  O   UNL     1     -33.229  27.028   6.745  0.00  0.00    -0.244 OA
ATOM     16  C   UNL     1     -32.883  27.210   5.560  0.00  0.00    +0.353 C 
BRANCH  16  17
ATOM     17  O   UNL     1     -31.582  27.507   5.253  0.00  0.00    -0.476 OA
ATOM     18  H   UNL     1     -31.004  26.831   4.958  0.00  0.00    +0.295 HD
ENDBRANCH  16  17
ENDBRANCH   8  16
BRANCH  14  20
ATOM     19  OXT UNL     1     -40.352  22.321   1.872  0.00  0.00    -0.242 OA
ATOM     20  C   UNL     1     -39.158  22.171   2.158  0.00  0.00    +0.368 C 
BRANCH  20  21
ATOM     21  O   UNL     1     -38.607  20.937   2.328  0.00  0.00    -0.475 OA
ATOM     22  H   UNL     1     -37.707  20.793   2.114  0.00  0.00    +0.295 HD
ENDBRANCH  20  21
ENDBRANCH  14  20
TORSDOF 4
ENDMDL
MODEL 4
REMARK VINA RESULT:      -5.9      2.090      3.159
REMARK  Name = 54693540
REMARK  4 active torsions:
REMARK  status: ('A' for Active; 'I' for Inactive)
REMARK    1  A    between atoms: C_8  and  C_16
REMARK    2  A    between atoms: CA_14  and  C_20
REMARK    3  A    between atoms: C_16  and  O_17
REMARK    4  A    between atoms: C_20  and  O_21
REMARK                            x       y       z     vdW  Elec       q    Type
REMARK                         _______ _______ _______ _____ _____    ______ ____
ROOT
ATOM      1  S   UNL     1     -35.513  24.330   0.556  0.00  0.00    -0.070 S 
ATOM      2  O   UNL     1     -34.891  23.297   6.240  0.00  0.00    -0.282 OA
ATOM      3  N   UNL     1     -35.735  23.086   2.720  0.00  0.00    -0.251 N 
ATOM      4  N   UNL     1     -33.819  25.618   5.387  0.00  0.00    -0.392 NA
ATOM      5  C   UNL     1     -35.216  24.223   2.267  0.00  0.00    +0.089 C 
ATOM      6  C   UNL     1     -34.549  25.123   3.151  0.00  0.00    +0.053 C 
ATOM      7  C   UNL     1     -34.440  24.796   4.523  0.00  0.00    +0.173 C 
ATOM      8  C   UNL     1     -36.359  22.282   1.793  0.00  0.00    +0.139 C 
ATOM      9  C   UNL     1     -35.634  22.719   4.160  0.00  0.00    +0.115 C 
ATOM     10  C   UNL     1     -34.980  23.611   4.996  0.00  0.00    +0.240 C 
ATOM     11  C   UNL     1     -33.991  26.333   2.699  0.00  0.00    +0.007 C 
ATOM     12  C   UNL     1     -36.329  22.822   0.534  0.00  0.00    +0.058 C 
ATOM     13  C   UNL     1     -33.352  27.174   3.596  0.00  0.00    +0.039 C 
ATOM     14  CA  UNL     1     -33.294  26.773   4.917  0.00  0.00    +0.207 C 
ENDROOT
BRANCH   8  16
ATOM     15  O   UNL     1     -36.371  19.942   2.294  0.00  0.00    -0.244 OA
ATOM     16  C   UNL     1     -36.965  21.026   2.131  0.00  0.00    +0.353 C 
BRANCH  16  17
ATOM     17  O   UNL     1     -38.325  21.102   2.271  0.00  0.00    -0.476 OA
ATOM     18  H   UNL     1     -38.844  20.322   2.234  0.00  0.00    +0.295 HD
ENDBRANCH  16  17
ENDBRANCH   8  16
BRANCH  14  20
ATOM     19  OXT UNL     1     -32.439  28.828   5.797  0.00  0.00    -0.242 OA
ATOM     20  C   UNL     1     -32.639  27.612   5.906  0.00  0.00    +0.368 C 
BRANCH  20  21
ATOM     21  O   UNL     1     -32.251  26.913   7.008  0.00  0.00    -0.475 OA
ATOM     22  H   UNL     1     -32.286  25.977   7.006  0.00  0.00    +0.295 HD
ENDBRANCH  20  21
ENDBRANCH  14  20
TORSDOF 4
ENDMDL
MODEL 5
REMARK VINA RESULT:      -5.8      5.081      6.574
REMARK  Name = 54693540
REMARK  4 active torsions:
REMARK  status: ('A' for Active; 'I' for Inactive)
REMARK    1  A    between atoms: C_8  and  C_16
REMARK    2  A    between atoms: CA_14  and  C_20
REMARK    3  A    between atoms: C_16  and  O_17
REMARK    4  A    between atoms: C_20  and  O_21
REMARK                            x       y       z     vdW  Elec       q    Type
REMARK                         _______ _______ _______ _____ _____    ______ ____
ROOT
ATOM      1  S   UNL     1     -36.726  25.053   4.000  0.00  0.00    -0.070 S 
ATOM      2  O   UNL     1     -40.157  21.301   1.186  0.00  0.00    -0.282 OA
ATOM      3  N   UNL     1     -37.438  22.866   3.004  0.00  0.00    -0.251 N 
ATOM      4  N   UNL     1     -41.153  23.795   1.414  0.00  0.00    -0.392 NA
ATOM      5  C   UNL     1     -37.901  24.105   3.134  0.00  0.00    +0.089 C 
ATOM      6  C   UNL     1     -39.174  24.467   2.602  0.00  0.00    +0.053 C 
ATOM      7  C   UNL     1     -39.949  23.493   1.929  0.00  0.00    +0.173 C 
ATOM      8  C   UNL     1     -36.200  22.611   3.550  0.00  0.00    +0.139 C 
ATOM      9  C   UNL     1     -38.234  21.822   2.301  0.00  0.00    +0.115 C 
ATOM     10  C   UNL     1     -39.467  22.200   1.794  0.00  0.00    +0.240 C 
ATOM     11  C   UNL     1     -39.689  25.771   2.724  0.00  0.00    +0.007 C 
ATOM     12  C   UNL     1     -35.657  23.720   4.146  0.00  0.00    +0.058 C 
ATOM     13  C   UNL     1     -40.932  26.074   2.190  0.00  0.00    +0.039 C 
ATOM     14  CA  UNL     1     -41.616  25.059   1.551  0.00  0.00    +0.207 C 
ENDROOT
BRANCH   8  16
ATOM     15  O   UNL     1     -35.154  20.755   2.461  0.00  0.00    -0.244 OA
ATOM     16  C   UNL     1     -35.570  21.324   3.490  0.00  0.00    +0.353 C 
BRANCH  16  17
ATOM     17  O   UNL     1     -35.450  20.722   4.714  0.00  0.00    -0.476 OA
ATOM     18  H   UNL     1     -35.836  21.119   5.471  0.00  0.00    +0.295 HD
ENDBRANCH  16  17
ENDBRANCH   8  16
BRANCH  14  20
ATOM     19  OXT UNL     1     -43.416  26.431   0.773  0.00  0.00    -0.242 OA
ATOM     20  C   UNL     1     -42.923  25.314   0.970  0.00  0.00    +0.368 C 
BRANCH  20  21
ATOM     21  O   UNL     1     -43.583  24.168   0.645  0.00  0.00    -0.475 OA
ATOM     22  H   UNL     1     -43.962  23.639   1.318  0.00  0.00    +0.295 HD
ENDBRANCH  20  21
ENDBRANCH  14  20
TORSDOF 4
ENDMDL
MODEL 6
REMARK VINA RESULT:      -5.7      1.261      6.258
REMARK  Name = 54693540
REMARK  4 active torsions:
REMARK  status: ('A' for Active; 'I' for Inactive)
REMARK    1  A    between atoms: C_8  and  C_16
REMARK    2  A    between atoms: CA_14  and  C_20
REMARK    3  A    between atoms: C_16  and  O_17
REMARK    4  A    between atoms: C_20  and  O_21
REMARK                            x       y       z     vdW  Elec       q    Type
REMARK                         _______ _______ _______ _____ _____    ______ ____
ROOT
ATOM      1  S   UNL     1     -36.983  27.003   1.252  0.00  0.00    -0.070 S 
ATOM      2  O   UNL     1     -33.350  26.237   5.721  0.00  0.00    -0.282 OA
ATOM      3  N   UNL     1     -35.264  27.617   2.968  0.00  0.00    -0.251 N 
ATOM      4  N   UNL     1     -34.750  24.046   5.011  0.00  0.00    -0.392 NA
ATOM      5  C   UNL     1     -35.970  26.555   2.594  0.00  0.00    +0.089 C 
ATOM      6  C   UNL     1     -35.823  25.307   3.269  0.00  0.00    +0.053 C 
ATOM      7  C   UNL     1     -34.916  25.204   4.350  0.00  0.00    +0.173 C 
ATOM      8  C   UNL     1     -35.473  28.777   2.257  0.00  0.00    +0.139 C 
ATOM      9  C   UNL     1     -34.302  27.535   4.103  0.00  0.00    +0.115 C 
ATOM     10  C   UNL     1     -34.180  26.311   4.741  0.00  0.00    +0.240 C 
ATOM     11  C   UNL     1     -36.557  24.166   2.894  0.00  0.00    +0.007 C 
ATOM     12  C   UNL     1     -36.402  28.615   1.261  0.00  0.00    +0.058 C 
ATOM     13  C   UNL     1     -36.380  22.976   3.582  0.00  0.00    +0.039 C 
ATOM     14  CA  UNL     1     -35.472  22.970   4.623  0.00  0.00    +0.207 C 
ENDROOT
BRANCH   8  16
ATOM     15  O   UNL     1     -33.736  30.404   2.002  0.00  0.00    -0.244 OA
ATOM     16  C   UNL     1     -34.786  30.004   2.544  0.00  0.00    +0.353 C 
BRANCH  16  17
ATOM     17  O   UNL     1     -35.398  30.752   3.514  0.00  0.00    -0.476 OA
ATOM     18  H   UNL     1     -35.695  30.343   4.303  0.00  0.00    +0.295 HD
ENDBRANCH  16  17
ENDBRANCH   8  16
BRANCH  14  20
ATOM     19  OXT UNL     1     -35.096  21.686   6.608  0.00  0.00    -0.242 OA
ATOM     20  C   UNL     1     -35.241  21.752   5.381  0.00  0.00    +0.368 C 
BRANCH  20  21
ATOM     21  O   UNL     1     -35.197  20.645   4.589  0.00  0.00    -0.475 OA
ATOM     22  H   UNL     1     -34.688  19.903   4.849  0.00  0.00    +0.295 HD
ENDBRANCH  20  21
ENDBRANCH  14  20
TORSDOF 4
ENDMDL
MODEL 7
REMARK VINA RESULT:      -5.7      3.279      6.581
REMARK  Name = 54693540
REMARK  4 active torsions:
REMARK  status: ('A' for Active; 'I' for Inactive)
REMARK    1  A    between atoms: C_8  and  C_16
REMARK    2  A    between atoms: CA_14  and  C_20
REMARK    3  A    between atoms: C_16  and  O_17
REMARK    4  A    between atoms: C_20  and  O_21
REMARK                            x       y       z     vdW  Elec       q    Type
REMARK                         _______ _______ _______ _____ _____    ______ ____
ROOT
ATOM      1  S   UNL     1     -35.366  27.664   1.964  0.00  0.00    -0.070 S 
ATOM      2  O   UNL     1     -38.983  23.216   2.905  0.00  0.00    -0.282 OA
ATOM      3  N   UNL     1     -37.439  26.276   1.725  0.00  0.00    -0.251 N 
ATOM      4  N   UNL     1     -36.671  23.107   4.286  0.00  0.00    -0.392 NA
ATOM      5  C   UNL     1     -36.288  26.252   2.391  0.00  0.00    +0.089 C 
ATOM      6  C   UNL     1     -35.985  25.181   3.283  0.00  0.00    +0.053 C 
ATOM      7  C   UNL     1     -36.921  24.134   3.456  0.00  0.00    +0.173 C 
ATOM      8  C   UNL     1     -37.643  27.350   0.887  0.00  0.00    +0.139 C 
ATOM      9  C   UNL     1     -38.441  25.187   1.889  0.00  0.00    +0.115 C 
ATOM     10  C   UNL     1     -38.120  24.158   2.761  0.00  0.00    +0.240 C 
ATOM     11  C   UNL     1     -34.776  25.130   4.001  0.00  0.00    +0.007 C 
ATOM     12  C   UNL     1     -36.587  28.224   0.898  0.00  0.00    +0.058 C 
ATOM     13  C   UNL     1     -34.527  24.067   4.855  0.00  0.00    +0.039 C 
ATOM     14  CA  UNL     1     -35.498  23.091   4.960  0.00  0.00    +0.207 C 
ENDROOT
BRANCH   8  16
ATOM     15  O   UNL     1     -39.876  28.097   0.462  0.00  0.00    -0.244 OA
ATOM     16  C   UNL     1     -38.833  27.514   0.104  0.00  0.00    +0.353 C 
BRANCH  16  17
ATOM     17  O   UNL     1     -38.743  26.952  -1.141  0.00  0.00    -0.476 OA
ATOM     18  H   UNL     1     -38.413  27.455  -1.860  0.00  0.00    +0.295 HD
ENDBRANCH  16  17
ENDBRANCH   8  16
BRANCH  14  20
ATOM     19  OXT UNL     1     -35.236  22.002   7.075  0.00  0.00    -0.242 OA
ATOM     20  C   UNL     1     -35.296  21.953   5.841  0.00  0.00    +0.368 C 
BRANCH  20  21
ATOM     21  O   UNL     1     -35.177  20.781   5.159  0.00  0.00    -0.475 OA
ATOM     22  H   UNL     1     -35.867  20.148   5.191  0.00  0.00    +0.295 HD
ENDBRANCH  20  21
ENDBRANCH  14  20
TORSDOF 4
ENDMDL
MODEL 8
REMARK VINA RESULT:      -5.6      3.001      4.850
REMARK  Name = 54693540
REMARK  4 active torsions:
REMARK  status: ('A' for Active; 'I' for Inactive)
REMARK    1  A    between atoms: C_8  and  C_16
REMARK    2  A    between atoms: CA_14  and  C_20
REMARK    3  A    between atoms: C_16  and  O_17
REMARK    4  A    between atoms: C_20  and  O_21
REMARK                            x       y       z     vdW  Elec       q    Type
REMARK                         _______ _______ _______ _____ _____    ______ ____
ROOT
ATOM      1  S   UNL     1     -36.545  22.549  -0.701  0.00  0.00    -0.070 S 
ATOM      2  O   UNL     1     -35.183  20.994   4.728  0.00  0.00    -0.282 OA
ATOM      3  N   UNL     1     -35.990  21.007   1.194  0.00  0.00    -0.251 N 
ATOM      4  N   UNL     1     -35.483  23.646   4.351  0.00  0.00    -0.392 NA
ATOM      5  C   UNL     1     -36.144  22.309   0.974  0.00  0.00    +0.089 C 
ATOM      6  C   UNL     1     -35.980  23.251   2.033  0.00  0.00    +0.053 C 
ATOM      7  C   UNL     1     -35.647  22.789   3.328  0.00  0.00    +0.173 C 
ATOM      8  C   UNL     1     -36.169  20.175   0.111  0.00  0.00    +0.139 C 
ATOM      9  C   UNL     1     -35.640  20.495   2.548  0.00  0.00    +0.115 C 
ATOM     10  C   UNL     1     -35.485  21.432   3.558  0.00  0.00    +0.240 C 
ATOM     11  C   UNL     1     -36.137  24.634   1.829  0.00  0.00    +0.007 C 
ATOM     12  C   UNL     1     -36.484  20.867  -1.029  0.00  0.00    +0.058 C 
ATOM     13  C   UNL     1     -35.966  25.510   2.890  0.00  0.00    +0.039 C 
ATOM     14  CA  UNL     1     -35.642  24.969   4.119  0.00  0.00    +0.207 C 
ENDROOT
BRANCH   8  16
ATOM     15  O   UNL     1     -35.011  18.089  -0.071  0.00  0.00    -0.244 OA
ATOM     16  C   UNL     1     -36.036  18.749   0.192  0.00  0.00    +0.353 C 
BRANCH  16  17
ATOM     17  O   UNL     1     -37.181  18.120   0.604  0.00  0.00    -0.476 OA
ATOM     18  H   UNL     1     -37.328  17.966   1.516  0.00  0.00    +0.295 HD
ENDBRANCH  16  17
ENDBRANCH   8  16
BRANCH  14  20
ATOM     19  OXT UNL     1     -34.428  25.895   5.962  0.00  0.00    -0.242 OA
ATOM     20  C   UNL     1     -35.451  25.835   5.269  0.00  0.00    +0.368 C 
BRANCH  20  21
ATOM     21  O   UNL     1     -36.543  26.608   5.527  0.00  0.00    -0.475 OA
ATOM     22  H   UNL     1     -37.137  26.825   4.837  0.00  0.00    +0.295 HD
ENDBRANCH  20  21
ENDBRANCH  14  20
TORSDOF 4
ENDMDL
MODEL 9
REMARK VINA RESULT:      -5.6      1.340      6.272
REMARK  Name = 54693540
REMARK  4 active torsions:
REMARK  status: ('A' for Active; 'I' for Inactive)
REMARK    1  A    between atoms: C_8  and  C_16
REMARK    2  A    between atoms: CA_14  and  C_20
REMARK    3  A    between atoms: C_16  and  O_17
REMARK    4  A    between atoms: C_20  and  O_21
REMARK                            x       y       z     vdW  Elec       q    Type
REMARK                         _______ _______ _______ _____ _____    ______ ____
ROOT
ATOM      1  S   UNL     1     -34.313  26.151   0.377  0.00  0.00    -0.070 S 
ATOM      2  O   UNL     1     -33.842  26.493   6.157  0.00  0.00    -0.282 OA
ATOM      3  N   UNL     1     -33.810  27.191   2.600  0.00  0.00    -0.251 N 
ATOM      4  N   UNL     1     -34.736  24.125   5.232  0.00  0.00    -0.392 NA
ATOM      5  C   UNL     1     -34.249  26.035   2.111  0.00  0.00    +0.089 C 
ATOM      6  C   UNL     1     -34.578  24.954   2.982  0.00  0.00    +0.053 C 
ATOM      7  C   UNL     1     -34.435  25.119   4.380  0.00  0.00    +0.173 C 
ATOM      8  C   UNL     1     -33.517  28.176   1.683  0.00  0.00    +0.139 C 
ATOM      9  C   UNL     1     -33.651  27.391   4.067  0.00  0.00    +0.115 C 
ATOM     10  C   UNL     1     -33.979  26.324   4.890  0.00  0.00    +0.240 C 
ATOM     11  C   UNL     1     -35.044  23.720   2.493  0.00  0.00    +0.007 C 
ATOM     12  C   UNL     1     -33.740  27.766   0.393  0.00  0.00    +0.058 C 
ATOM     13  C   UNL     1     -35.352  22.700   3.379  0.00  0.00    +0.039 C 
ATOM     14  CA  UNL     1     -35.182  22.952   4.726  0.00  0.00    +0.207 C 
ENDROOT
BRANCH   8  16
ATOM     15  O   UNL     1     -31.843  29.792   2.243  0.00  0.00    -0.244 OA
ATOM     16  C   UNL     1     -33.035  29.474   2.057  0.00  0.00    +0.353 C 
BRANCH  16  17
ATOM     17  O   UNL     1     -34.034  30.399   2.208  0.00  0.00    -0.476 OA
ATOM     18  H   UNL     1     -33.885  31.169   2.721  0.00  0.00    +0.295 HD
ENDBRANCH  16  17
ENDBRANCH   8  16
BRANCH  14  20
ATOM     19  OXT UNL     1     -36.033  22.108   6.798  0.00  0.00    -0.242 OA
ATOM     20  C   UNL     1     -35.485  21.922   5.705  0.00  0.00    +0.368 C 
BRANCH  20  21
ATOM     21  O   UNL     1     -35.099  20.682   5.294  0.00  0.00    -0.475 OA
ATOM     22  H   UNL     1     -35.544  19.923   5.615  0.00  0.00    +0.295 HD
ENDBRANCH  20  21
ENDBRANCH  14  20
TORSDOF 4
ENDMDL
