MODEL 1
REMARK VINA RESULT:      -6.5      0.000      0.000
REMARK  Name = 5281818
REMARK  11 active torsions:
REMARK  status: ('A' for Active; 'I' for Inactive)
REMARK    1  A    between atoms: N_1  and  C_10
REMARK    2  A    between atoms: C_5  and  C_21
REMARK    3  A    between atoms: C_7  and  O_12
REMARK    4  A    between atoms: C_8  and  O_14
REMARK    5  A    between atoms: C_9  and  O_16
REMARK    6  A    between atoms: C_11  and  C_18
REMARK    7  A    between atoms: C_18  and  O_19
REMARK    8  A    between atoms: C_21  and  C_22
REMARK    9  A    between atoms: C_22  and  N_24
REMARK   10  A    between atoms: C_26  and  C_27
REMARK   11  A    between atoms: C_28  and  C_29
REMARK                            x       y       z     vdW  Elec       q    Type
REMARK                         _______ _______ _______ _____ _____    ______ ____
ROOT
ATOM      1  N   UNL     1     -38.605  23.858   1.977  0.00  0.00    -0.222 NA
ATOM      2  N   UNL     1     -40.759  23.553   1.560  0.00  0.00    -0.259 NA
ATOM      3  C   UNL     1     -38.675  23.460   0.674  0.00  0.00    +0.117 C 
ATOM      4  C   UNL     1     -39.876  23.900   2.469  0.00  0.00    +0.202 C 
ATOM      5  C   UNL     1     -40.017  23.278   0.438  0.00  0.00    +0.051 C 
ENDROOT
BRANCH   1  10
ATOM      6  O   UNL     1     -37.055  23.046   3.522  0.00  0.00    -0.336 OA
ATOM      7  C   UNL     1     -36.306  25.666   4.455  0.00  0.00    +0.170 C 
ATOM      8  C   UNL     1     -37.537  25.444   3.575  0.00  0.00    +0.183 C 
ATOM      9  C   UNL     1     -35.915  24.387   5.197  0.00  0.00    +0.169 C 
ATOM     10  C   UNL     1     -37.379  24.182   2.719  0.00  0.00    +0.208 C 
ATOM     11  C   UNL     1     -35.823  23.204   4.227  0.00  0.00    +0.175 C 
BRANCH   7  12
ATOM     12  O   UNL     1     -36.619  26.689   5.402  0.00  0.00    -0.379 OA
ATOM     13  H   UNL     1     -37.574  26.857   5.391  0.00  0.00    +0.211 HD
ENDBRANCH   7  12
BRANCH   8  14
ATOM     14  O   UNL     1     -37.701  26.571   2.715  0.00  0.00    -0.378 OA
ATOM     15  H   UNL     1     -36.870  27.071   2.676  0.00  0.00    +0.211 HD
ENDBRANCH   8  14
BRANCH   9  16
ATOM     16  O   UNL     1     -34.648  24.568   5.825  0.00  0.00    -0.379 OA
ATOM     17  H   UNL     1     -34.010  23.939   5.452  0.00  0.00    +0.211 HD
ENDBRANCH   9  16
BRANCH  11  18
ATOM     18  C   UNL     1     -35.542  21.895   4.956  0.00  0.00    +0.169 C 
BRANCH  18  19
ATOM     19  O   UNL     1     -36.041  21.997   6.277  0.00  0.00    -0.379 OA
ATOM     20  H   UNL     1     -35.616  21.328   6.836  0.00  0.00    +0.211 HD
ENDBRANCH  18  19
ENDBRANCH  11  18
ENDBRANCH   1  10
BRANCH   5  21
ATOM     21  C   UNL     1     -40.672  22.849  -0.806  0.00  0.00    +0.064 C 
BRANCH  21  22
ATOM     22  C   UNL     1     -39.792  21.970  -1.716  0.00  0.00    +0.100 C 
BRANCH  22  24
ATOM     23  O   UNL     1     -40.046  18.333  -1.271  0.00  0.00    -0.270 OA
ATOM     24  N   UNL     1     -40.263  20.612  -1.778  0.00  0.00    -0.274 N 
ATOM     25  C   UNL     1     -41.552  20.400  -2.447  0.00  0.00    +0.115 C 
ATOM     26  C   UNL     1     -39.613  19.486  -1.231  0.00  0.00    +0.249 C 
BRANCH  26  27
ATOM     27  C   UNL     1     -38.321  19.768  -0.539  0.00  0.00    +0.058 C 
ATOM     28  C   UNL     1     -37.392  18.803  -0.453  0.00  0.00    +0.005 C 
BRANCH  28  29
ATOM     29  C   UNL     1     -36.095  18.949   0.229  0.00  0.00    +0.000 C 
ATOM     30  C   UNL     1     -35.041  18.127  -0.134  0.00  0.00    +0.000 C 
ATOM     31  C   UNL     1     -35.954  19.906   1.221  0.00  0.00    +0.000 C 
ATOM     32  C   UNL     1     -33.812  18.265   0.512  0.00  0.00    +0.000 C 
ATOM     33  C   UNL     1     -34.725  20.045   1.867  0.00  0.00    +0.000 C 
ATOM     34  C   UNL     1     -33.654  19.224   1.513  0.00  0.00    +0.000 C 
ENDBRANCH  28  29
ENDBRANCH  26  27
ENDBRANCH  22  24
ENDBRANCH  21  22
ENDBRANCH   5  21
TORSDOF 11
ENDMDL
MODEL 2
REMARK VINA RESULT:      -6.5      4.670      8.518
REMARK  Name = 5281818
REMARK  11 active torsions:
REMARK  status: ('A' for Active; 'I' for Inactive)
REMARK    1  A    between atoms: N_1  and  C_10
REMARK    2  A    between atoms: C_5  and  C_21
REMARK    3  A    between atoms: C_7  and  O_12
REMARK    4  A    between atoms: C_8  and  O_14
REMARK    5  A    between atoms: C_9  and  O_16
REMARK    6  A    between atoms: C_11  and  C_18
REMARK    7  A    between atoms: C_18  and  O_19
REMARK    8  A    between atoms: C_21  and  C_22
REMARK    9  A    between atoms: C_22  and  N_24
REMARK   10  A    between atoms: C_26  and  C_27
REMARK   11  A    between atoms: C_28  and  C_29
REMARK                            x       y       z     vdW  Elec       q    Type
REMARK                         _______ _______ _______ _____ _____    ______ ____
ROOT
ATOM      1  N   UNL     1     -38.914  24.117   2.293  0.00  0.00    -0.222 NA
ATOM      2  N   UNL     1     -40.635  23.067   1.375  0.00  0.00    -0.259 NA
ATOM      3  C   UNL     1     -39.864  25.075   2.092  0.00  0.00    +0.117 C 
ATOM      4  C   UNL     1     -39.417  22.930   1.849  0.00  0.00    +0.202 C 
ATOM      5  C   UNL     1     -40.920  24.402   1.524  0.00  0.00    +0.051 C 
ENDROOT
BRANCH   1  10
ATOM      6  O   UNL     1     -37.269  23.161   3.646  0.00  0.00    -0.336 OA
ATOM      7  C   UNL     1     -36.182  25.698   4.469  0.00  0.00    +0.170 C 
ATOM      8  C   UNL     1     -37.525  25.591   3.745  0.00  0.00    +0.183 C 
ATOM      9  C   UNL     1     -35.822  24.384   5.166  0.00  0.00    +0.169 C 
ATOM     10  C   UNL     1     -37.584  24.326   2.881  0.00  0.00    +0.208 C 
ATOM     11  C   UNL     1     -35.953  23.204   4.198  0.00  0.00    +0.175 C 
BRANCH   7  12
ATOM     12  O   UNL     1     -36.287  26.739   5.442  0.00  0.00    -0.379 OA
ATOM     13  H   UNL     1     -36.755  26.405   6.222  0.00  0.00    +0.211 HD
ENDBRANCH   7  12
BRANCH   8  14
ATOM     14  O   UNL     1     -37.688  26.734   2.904  0.00  0.00    -0.378 OA
ATOM     15  H   UNL     1     -38.192  27.413   3.378  0.00  0.00    +0.211 HD
ENDBRANCH   8  14
BRANCH   9  16
ATOM     16  O   UNL     1     -34.478  24.448   5.637  0.00  0.00    -0.379 OA
ATOM     17  H   UNL     1     -33.954  23.748   5.214  0.00  0.00    +0.211 HD
ENDBRANCH   9  16
BRANCH  11  18
ATOM     18  C   UNL     1     -35.705  21.870   4.894  0.00  0.00    +0.169 C 
BRANCH  18  19
ATOM     19  O   UNL     1     -36.112  21.984   6.246  0.00  0.00    -0.379 OA
ATOM     20  H   UNL     1     -35.988  21.133   6.694  0.00  0.00    +0.211 HD
ENDBRANCH  18  19
ENDBRANCH  11  18
ENDBRANCH   1  10
BRANCH   5  21
ATOM     21  C   UNL     1     -42.219  24.943   1.097  0.00  0.00    +0.064 C 
BRANCH  21  22
ATOM     22  C   UNL     1     -42.774  26.054   2.009  0.00  0.00    +0.100 C 
BRANCH  22  24
ATOM     23  O   UNL     1     -42.364  29.695   1.752  0.00  0.00    -0.270 OA
ATOM     24  N   UNL     1     -42.503  27.368   1.491  0.00  0.00    -0.274 N 
ATOM     25  C   UNL     1     -42.023  27.437   0.107  0.00  0.00    +0.115 C 
ATOM     26  C   UNL     1     -42.628  28.579   2.205  0.00  0.00    +0.249 C 
BRANCH  26  27
ATOM     27  C   UNL     1     -43.093  28.444   3.617  0.00  0.00    +0.058 C 
ATOM     28  C   UNL     1     -43.652  29.497   4.233  0.00  0.00    +0.005 C 
BRANCH  28  29
ATOM     29  C   UNL     1     -44.120  29.497   5.629  0.00  0.00    +0.000 C 
ATOM     30  C   UNL     1     -43.560  30.386   6.532  0.00  0.00    +0.000 C 
ATOM     31  C   UNL     1     -45.110  28.608   6.014  0.00  0.00    +0.000 C 
ATOM     32  C   UNL     1     -44.003  30.387   7.856  0.00  0.00    +0.000 C 
ATOM     33  C   UNL     1     -45.553  28.607   7.337  0.00  0.00    +0.000 C 
ATOM     34  C   UNL     1     -44.999  29.497   8.258  0.00  0.00    +0.000 C 
ENDBRANCH  28  29
ENDBRANCH  26  27
ENDBRANCH  22  24
ENDBRANCH  21  22
ENDBRANCH   5  21
TORSDOF 11
ENDMDL
MODEL 3
REMARK VINA RESULT:      -6.4      4.764      6.813
REMARK  Name = 5281818
REMARK  11 active torsions:
REMARK  status: ('A' for Active; 'I' for Inactive)
REMARK    1  A    between atoms: N_1  and  C_10
REMARK    2  A    between atoms: C_5  and  C_21
REMARK    3  A    between atoms: C_7  and  O_12
REMARK    4  A    between atoms: C_8  and  O_14
REMARK    5  A    between atoms: C_9  and  O_16
REMARK    6  A    between atoms: C_11  and  C_18
REMARK    7  A    between atoms: C_18  and  O_19
REMARK    8  A    between atoms: C_21  and  C_22
REMARK    9  A    between atoms: C_22  and  N_24
REMARK   10  A    between atoms: C_26  and  C_27
REMARK   11  A    between atoms: C_28  and  C_29
REMARK                            x       y       z     vdW  Elec       q    Type
REMARK                         _______ _______ _______ _____ _____    ______ ____
ROOT
ATOM      1  N   UNL     1     -32.944  27.713   4.520  0.00  0.00    -0.222 NA
ATOM      2  N   UNL     1     -34.973  27.294   3.737  0.00  0.00    -0.259 NA
ATOM      3  C   UNL     1     -33.437  26.706   5.297  0.00  0.00    +0.117 C 
ATOM      4  C   UNL     1     -33.896  28.035   3.599  0.00  0.00    +0.202 C 
ATOM      5  C   UNL     1     -34.694  26.463   4.794  0.00  0.00    +0.051 C 
ENDROOT
BRANCH   1  10
ATOM      6  O   UNL     1     -30.670  27.456   4.058  0.00  0.00    -0.336 OA
ATOM      7  C   UNL     1     -29.828  29.144   6.235  0.00  0.00    +0.170 C 
ATOM      8  C   UNL     1     -31.267  28.641   6.114  0.00  0.00    +0.183 C 
ATOM      9  C   UNL     1     -28.857  28.240   5.473  0.00  0.00    +0.169 C 
ATOM     10  C   UNL     1     -31.622  28.341   4.653  0.00  0.00    +0.208 C 
ATOM     11  C   UNL     1     -29.349  28.000   4.042  0.00  0.00    +0.175 C 
BRANCH   7  12
ATOM     12  O   UNL     1     -29.479  29.155   7.621  0.00  0.00    -0.379 OA
ATOM     13  H   UNL     1     -28.609  29.567   7.731  0.00  0.00    +0.211 HD
ENDBRANCH   7  12
BRANCH   8  14
ATOM     14  O   UNL     1     -32.151  29.646   6.609  0.00  0.00    -0.378 OA
ATOM     15  H   UNL     1     -31.677  30.212   7.237  0.00  0.00    +0.211 HD
ENDBRANCH   8  14
BRANCH   9  16
ATOM     16  O   UNL     1     -27.572  28.855   5.422  0.00  0.00    -0.379 OA
ATOM     17  H   UNL     1     -27.377  29.118   4.508  0.00  0.00    +0.211 HD
ENDBRANCH   9  16
BRANCH  11  18
ATOM     18  C   UNL     1     -28.458  27.015   3.294  0.00  0.00    +0.169 C 
BRANCH  18  19
ATOM     19  O   UNL     1     -27.807  26.187   4.240  0.00  0.00    -0.379 OA
ATOM     20  H   UNL     1     -26.874  26.088   3.996  0.00  0.00    +0.211 HD
ENDBRANCH  18  19
ENDBRANCH  11  18
ENDBRANCH   1  10
BRANCH   5  21
ATOM     21  C   UNL     1     -35.681  25.475   5.251  0.00  0.00    +0.064 C 
BRANCH  21  22
ATOM     22  C   UNL     1     -35.631  24.132   4.497  0.00  0.00    +0.100 C 
BRANCH  22  24
ATOM     23  O   UNL     1     -37.671  22.966   1.674  0.00  0.00    -0.270 OA
ATOM     24  N   UNL     1     -36.685  24.017   3.524  0.00  0.00    -0.274 N 
ATOM     25  C   UNL     1     -37.804  24.956   3.661  0.00  0.00    +0.115 C 
ATOM     26  C   UNL     1     -36.746  23.068   2.482  0.00  0.00    +0.249 C 
BRANCH  26  27
ATOM     27  C   UNL     1     -35.594  22.121   2.410  0.00  0.00    +0.058 C 
ATOM     28  C   UNL     1     -35.153  21.705   1.213  0.00  0.00    +0.005 C 
BRANCH  28  29
ATOM     29  C   UNL     1     -34.049  20.751   1.015  0.00  0.00    +0.000 C 
ATOM     30  C   UNL     1     -32.964  21.122   0.235  0.00  0.00    +0.000 C 
ATOM     31  C   UNL     1     -34.114  19.502   1.610  0.00  0.00    +0.000 C 
ATOM     32  C   UNL     1     -31.917  20.219   0.047  0.00  0.00    +0.000 C 
ATOM     33  C   UNL     1     -33.068  18.599   1.422  0.00  0.00    +0.000 C 
ATOM     34  C   UNL     1     -31.970  18.957   0.640  0.00  0.00    +0.000 C 
ENDBRANCH  28  29
ENDBRANCH  26  27
ENDBRANCH  22  24
ENDBRANCH  21  22
ENDBRANCH   5  21
TORSDOF 11
ENDMDL
MODEL 4
REMARK VINA RESULT:      -6.3      1.688      2.192
REMARK  Name = 5281818
REMARK  11 active torsions:
REMARK  status: ('A' for Active; 'I' for Inactive)
REMARK    1  A    between atoms: N_1  and  C_10
REMARK    2  A    between atoms: C_5  and  C_21
REMARK    3  A    between atoms: C_7  and  O_12
REMARK    4  A    between atoms: C_8  and  O_14
REMARK    5  A    between atoms: C_9  and  O_16
REMARK    6  A    between atoms: C_11  and  C_18
REMARK    7  A    between atoms: C_18  and  O_19
REMARK    8  A    between atoms: C_21  and  C_22
REMARK    9  A    between atoms: C_22  and  N_24
REMARK   10  A    between atoms: C_26  and  C_27
REMARK   11  A    between atoms: C_28  and  C_29
REMARK                            x       y       z     vdW  Elec       q    Type
REMARK                         _______ _______ _______ _____ _____    ______ ____
ROOT
ATOM      1  N   UNL     1     -38.267  22.230   1.774  0.00  0.00    -0.222 NA
ATOM      2  N   UNL     1     -40.255  21.338   1.376  0.00  0.00    -0.259 NA
ATOM      3  C   UNL     1     -38.148  21.585   0.578  0.00  0.00    +0.117 C 
ATOM      4  C   UNL     1     -39.545  22.055   2.216  0.00  0.00    +0.202 C 
ATOM      5  C   UNL     1     -39.390  21.041   0.351  0.00  0.00    +0.051 C 
ENDROOT
BRANCH   1  10
ATOM      6  O   UNL     1     -36.764  22.174   3.559  0.00  0.00    -0.336 OA
ATOM      7  C   UNL     1     -36.616  25.041   3.791  0.00  0.00    +0.170 C 
ATOM      8  C   UNL     1     -37.686  24.354   2.941  0.00  0.00    +0.183 C 
ATOM      9  C   UNL     1     -36.074  24.100   4.869  0.00  0.00    +0.169 C 
ATOM     10  C   UNL     1     -37.207  22.978   2.464  0.00  0.00    +0.208 C 
ATOM     11  C   UNL     1     -35.663  22.756   4.258  0.00  0.00    +0.175 C 
BRANCH   7  12
ATOM     12  O   UNL     1     -37.212  26.183   4.411  0.00  0.00    -0.379 OA
ATOM     13  H   UNL     1     -37.940  26.505   3.859  0.00  0.00    +0.211 HD
ENDBRANCH   7  12
BRANCH   8  14
ATOM     14  O   UNL     1     -37.965  25.168   1.802  0.00  0.00    -0.378 OA
ATOM     15  H   UNL     1     -37.618  24.738   1.005  0.00  0.00    +0.211 HD
ENDBRANCH   8  14
BRANCH   9  16
ATOM     16  O   UNL     1     -34.936  24.692   5.490  0.00  0.00    -0.379 OA
ATOM     17  H   UNL     1     -34.456  25.230   4.839  0.00  0.00    +0.211 HD
ENDBRANCH   9  16
BRANCH  11  18
ATOM     18  C   UNL     1     -35.221  21.762   5.326  0.00  0.00    +0.169 C 
BRANCH  18  19
ATOM     19  O   UNL     1     -36.072  21.896   6.449  0.00  0.00    -0.379 OA
ATOM     20  H   UNL     1     -35.596  22.345   7.164  0.00  0.00    +0.211 HD
ENDBRANCH  18  19
ENDBRANCH  11  18
ENDBRANCH   1  10
BRANCH   5  21
ATOM     21  C   UNL     1     -39.835  20.237  -0.796  0.00  0.00    +0.064 C 
BRANCH  21  22
ATOM     22  C   UNL     1     -38.716  19.422  -1.472  0.00  0.00    +0.100 C 
BRANCH  22  24
ATOM     23  O   UNL     1     -37.855  16.114  -0.127  0.00  0.00    -0.270 OA
ATOM     24  N   UNL     1     -38.774  18.027  -1.125  0.00  0.00    -0.274 N 
ATOM     25  C   UNL     1     -40.003  17.315  -1.495  0.00  0.00    +0.115 C 
ATOM     26  C   UNL     1     -37.775  17.303  -0.441  0.00  0.00    +0.249 C 
BRANCH  26  27
ATOM     27  C   UNL     1     -36.561  18.088  -0.065  0.00  0.00    +0.058 C 
ATOM     28  C   UNL     1     -35.347  17.630  -0.405  0.00  0.00    +0.005 C 
BRANCH  28  29
ATOM     29  C   UNL     1     -34.078  18.295  -0.066  0.00  0.00    +0.000 C 
ATOM     30  C   UNL     1     -33.852  19.590  -0.504  0.00  0.00    +0.000 C 
ATOM     31  C   UNL     1     -33.133  17.614   0.685  0.00  0.00    +0.000 C 
ATOM     32  C   UNL     1     -32.650  20.222  -0.183  0.00  0.00    +0.000 C 
ATOM     33  C   UNL     1     -31.931  18.245   1.006  0.00  0.00    +0.000 C 
ATOM     34  C   UNL     1     -31.689  19.548   0.572  0.00  0.00    +0.000 C 
ENDBRANCH  28  29
ENDBRANCH  26  27
ENDBRANCH  22  24
ENDBRANCH  21  22
ENDBRANCH   5  21
TORSDOF 11
ENDMDL
MODEL 5
REMARK VINA RESULT:      -6.2      5.203     10.092
REMARK  Name = 5281818
REMARK  11 active torsions:
REMARK  status: ('A' for Active; 'I' for Inactive)
REMARK    1  A    between atoms: N_1  and  C_10
REMARK    2  A    between atoms: C_5  and  C_21
REMARK    3  A    between atoms: C_7  and  O_12
REMARK    4  A    between atoms: C_8  and  O_14
REMARK    5  A    between atoms: C_9  and  O_16
REMARK    6  A    between atoms: C_11  and  C_18
REMARK    7  A    between atoms: C_18  and  O_19
REMARK    8  A    between atoms: C_21  and  C_22
REMARK    9  A    between atoms: C_22  and  N_24
REMARK   10  A    between atoms: C_26  and  C_27
REMARK   11  A    between atoms: C_28  and  C_29
REMARK                            x       y       z     vdW  Elec       q    Type
REMARK                         _______ _______ _______ _____ _____    ______ ____
ROOT
ATOM      1  N   UNL     1     -34.724  25.304   4.650  0.00  0.00    -0.222 NA
ATOM      2  N   UNL     1     -32.938  26.562   4.281  0.00  0.00    -0.259 NA
ATOM      3  C   UNL     1     -34.369  25.804   5.868  0.00  0.00    +0.117 C 
ATOM      4  C   UNL     1     -33.840  25.783   3.728  0.00  0.00    +0.202 C 
ATOM      5  C   UNL     1     -33.262  26.580   5.616  0.00  0.00    +0.051 C 
ENDROOT
BRANCH   1  10
ATOM      6  O   UNL     1     -35.335  23.252   3.720  0.00  0.00    -0.336 OA
ATOM      7  C   UNL     1     -38.028  24.087   3.134  0.00  0.00    +0.170 C 
ATOM      8  C   UNL     1     -36.942  25.086   3.535  0.00  0.00    +0.183 C 
ATOM      9  C   UNL     1     -37.420  22.808   2.555  0.00  0.00    +0.169 C 
ATOM     10  C   UNL     1     -35.856  24.408   4.378  0.00  0.00    +0.208 C 
ATOM     11  C   UNL     1     -36.332  22.257   3.483  0.00  0.00    +0.175 C 
BRANCH   7  12
ATOM     12  O   UNL     1     -38.858  24.707   2.150  0.00  0.00    -0.379 OA
ATOM     13  H   UNL     1     -38.925  24.130   1.375  0.00  0.00    +0.211 HD
ENDBRANCH   7  12
BRANCH   8  14
ATOM     14  O   UNL     1     -37.537  26.133   4.301  0.00  0.00    -0.378 OA
ATOM     15  H   UNL     1     -37.892  25.768   5.127  0.00  0.00    +0.211 HD
ENDBRANCH   8  14
BRANCH   9  16
ATOM     16  O   UNL     1     -38.438  21.822   2.402  0.00  0.00    -0.379 OA
ATOM     17  H   UNL     1     -39.276  22.257   2.174  0.00  0.00    +0.211 HD
ENDBRANCH   9  16
BRANCH  11  18
ATOM     18  C   UNL     1     -35.633  21.045   2.878  0.00  0.00    +0.169 C 
BRANCH  18  19
ATOM     19  O   UNL     1     -36.539  19.956   2.877  0.00  0.00    -0.379 OA
ATOM     20  H   UNL     1     -36.301  19.338   2.167  0.00  0.00    +0.211 HD
ENDBRANCH  18  19
ENDBRANCH  11  18
ENDBRANCH   1  10
BRANCH   5  21
ATOM     21  C   UNL     1     -32.461  27.360   6.571  0.00  0.00    +0.064 C 
BRANCH  21  22
ATOM     22  C   UNL     1     -32.235  28.827   6.160  0.00  0.00    +0.100 C 
BRANCH  22  24
ATOM     23  O   UNL     1     -29.629  29.721   3.730  0.00  0.00    -0.270 OA
ATOM     24  N   UNL     1     -30.954  29.025   5.536  0.00  0.00    -0.274 N 
ATOM     25  C   UNL     1     -29.777  28.695   6.348  0.00  0.00    +0.115 C 
ATOM     26  C   UNL     1     -30.736  29.532   4.237  0.00  0.00    +0.249 C 
BRANCH  26  27
ATOM     27  C   UNL     1     -31.970  29.877   3.471  0.00  0.00    +0.058 C 
ATOM     28  C   UNL     1     -32.453  31.127   3.522  0.00  0.00    +0.005 C 
BRANCH  28  29
ATOM     29  C   UNL     1     -33.676  31.580   2.837  0.00  0.00    +0.000 C 
ATOM     30  C   UNL     1     -34.850  30.863   3.001  0.00  0.00    +0.000 C 
ATOM     31  C   UNL     1     -33.628  32.714   2.043  0.00  0.00    +0.000 C 
ATOM     32  C   UNL     1     -36.009  31.292   2.352  0.00  0.00    +0.000 C 
ATOM     33  C   UNL     1     -34.786  33.143   1.394  0.00  0.00    +0.000 C 
ATOM     34  C   UNL     1     -35.976  32.432   1.548  0.00  0.00    +0.000 C 
ENDBRANCH  28  29
ENDBRANCH  26  27
ENDBRANCH  22  24
ENDBRANCH  21  22
ENDBRANCH   5  21
TORSDOF 11
ENDMDL
MODEL 6
REMARK VINA RESULT:      -6.2      3.630      5.815
REMARK  Name = 5281818
REMARK  11 active torsions:
REMARK  status: ('A' for Active; 'I' for Inactive)
REMARK    1  A    between atoms: N_1  and  C_10
REMARK    2  A    between atoms: C_5  and  C_21
REMARK    3  A    between atoms: C_7  and  O_12
REMARK    4  A    between atoms: C_8  and  O_14
REMARK    5  A    between atoms: C_9  and  O_16
REMARK    6  A    between atoms: C_11  and  C_18
REMARK    7  A    between atoms: C_18  and  O_19
REMARK    8  A    between atoms: C_21  and  C_22
REMARK    9  A    between atoms: C_22  and  N_24
REMARK   10  A    between atoms: C_26  and  C_27
REMARK   11  A    between atoms: C_28  and  C_29
REMARK                            x       y       z     vdW  Elec       q    Type
REMARK                         _______ _______ _______ _____ _____    ______ ____
ROOT
ATOM      1  N   UNL     1     -35.249  24.657   3.434  0.00  0.00    -0.222 NA
ATOM      2  N   UNL     1     -33.321  25.466   4.168  0.00  0.00    -0.259 NA
ATOM      3  C   UNL     1     -34.661  25.246   2.353  0.00  0.00    +0.117 C 
ATOM      4  C   UNL     1     -34.413  24.813   4.499  0.00  0.00    +0.202 C 
ATOM      5  C   UNL     1     -33.470  25.739   2.830  0.00  0.00    +0.051 C 
ENDROOT
BRANCH   1  10
ATOM      6  O   UNL     1     -36.455  22.853   2.574  0.00  0.00    -0.336 OA
ATOM      7  C   UNL     1     -39.010  24.139   2.904  0.00  0.00    +0.170 C 
ATOM      8  C   UNL     1     -37.696  24.910   3.033  0.00  0.00    +0.183 C 
ATOM      9  C   UNL     1     -38.830  22.871   2.067  0.00  0.00    +0.169 C 
ATOM     10  C   UNL     1     -36.552  23.978   3.449  0.00  0.00    +0.208 C 
ATOM     11  C   UNL     1     -37.638  22.053   2.573  0.00  0.00    +0.175 C 
BRANCH   7  12
ATOM     12  O   UNL     1     -39.964  24.996   2.271  0.00  0.00    -0.379 OA
ATOM     13  H   UNL     1     -39.711  25.921   2.415  0.00  0.00    +0.211 HD
ENDBRANCH   7  12
BRANCH   8  14
ATOM     14  O   UNL     1     -37.850  25.925   4.024  0.00  0.00    -0.378 OA
ATOM     15  H   UNL     1     -36.981  26.288   4.254  0.00  0.00    +0.211 HD
ENDBRANCH   8  14
BRANCH   9  16
ATOM     16  O   UNL     1     -40.008  22.072   2.154  0.00  0.00    -0.379 OA
ATOM     17  H   UNL     1     -40.012  21.594   2.999  0.00  0.00    +0.211 HD
ENDBRANCH   9  16
BRANCH  11  18
ATOM     18  C   UNL     1     -37.369  20.840   1.690  0.00  0.00    +0.169 C 
BRANCH  18  19
ATOM     19  O   UNL     1     -36.908  19.779   2.508  0.00  0.00    -0.379 OA
ATOM     20  H   UNL     1     -37.583  19.566   3.172  0.00  0.00    +0.211 HD
ENDBRANCH  18  19
ENDBRANCH  11  18
ENDBRANCH   1  10
BRANCH   5  21
ATOM     21  C   UNL     1     -32.429  26.471   2.095  0.00  0.00    +0.064 C 
BRANCH  21  22
ATOM     22  C   UNL     1     -31.724  25.646   1.002  0.00  0.00    +0.100 C 
BRANCH  22  24
ATOM     23  O   UNL     1     -33.395  24.594  -2.095  0.00  0.00    -0.270 OA
ATOM     24  N   UNL     1     -32.438  25.674  -0.246  0.00  0.00    -0.274 N 
ATOM     25  C   UNL     1     -32.897  26.991  -0.704  0.00  0.00    +0.115 C 
ATOM     26  C   UNL     1     -32.757  24.553  -1.041  0.00  0.00    +0.249 C 
BRANCH  26  27
ATOM     27  C   UNL     1     -32.289  23.239  -0.510  0.00  0.00    +0.058 C 
ATOM     28  C   UNL     1     -33.157  22.223  -0.400  0.00  0.00    +0.005 C 
BRANCH  28  29
ATOM     29  C   UNL     1     -32.824  20.892   0.137  0.00  0.00    +0.000 C 
ATOM     30  C   UNL     1     -31.579  20.345  -0.130  0.00  0.00    +0.000 C 
ATOM     31  C   UNL     1     -33.762  20.213   0.898  0.00  0.00    +0.000 C 
ATOM     32  C   UNL     1     -31.263  19.085   0.379  0.00  0.00    +0.000 C 
ATOM     33  C   UNL     1     -33.446  18.953   1.406  0.00  0.00    +0.000 C 
ATOM     34  C   UNL     1     -32.197  18.389   1.147  0.00  0.00    +0.000 C 
ENDBRANCH  28  29
ENDBRANCH  26  27
ENDBRANCH  22  24
ENDBRANCH  21  22
ENDBRANCH   5  21
TORSDOF 11
ENDMDL
MODEL 7
REMARK VINA RESULT:      -6.2      3.791      5.830
REMARK  Name = 5281818
REMARK  11 active torsions:
REMARK  status: ('A' for Active; 'I' for Inactive)
REMARK    1  A    between atoms: N_1  and  C_10
REMARK    2  A    between atoms: C_5  and  C_21
REMARK    3  A    between atoms: C_7  and  O_12
REMARK    4  A    between atoms: C_8  and  O_14
REMARK    5  A    between atoms: C_9  and  O_16
REMARK    6  A    between atoms: C_11  and  C_18
REMARK    7  A    between atoms: C_18  and  O_19
REMARK    8  A    between atoms: C_21  and  C_22
REMARK    9  A    between atoms: C_22  and  N_24
REMARK   10  A    between atoms: C_26  and  C_27
REMARK   11  A    between atoms: C_28  and  C_29
REMARK                            x       y       z     vdW  Elec       q    Type
REMARK                         _______ _______ _______ _____ _____    ______ ____
ROOT
ATOM      1  N   UNL     1     -34.285  25.972   4.797  0.00  0.00    -0.222 NA
ATOM      2  N   UNL     1     -36.258  25.152   5.385  0.00  0.00    -0.259 NA
ATOM      3  C   UNL     1     -34.173  24.619   4.670  0.00  0.00    +0.117 C 
ATOM      4  C   UNL     1     -35.549  26.248   5.228  0.00  0.00    +0.202 C 
ATOM      5  C   UNL     1     -35.406  24.132   5.039  0.00  0.00    +0.051 C 
ENDROOT
BRANCH   1  10
ATOM      6  O   UNL     1     -32.980  27.664   5.737  0.00  0.00    -0.336 OA
ATOM      7  C   UNL     1     -32.575  29.026   3.232  0.00  0.00    +0.170 C 
ATOM      8  C   UNL     1     -33.617  27.917   3.389  0.00  0.00    +0.183 C 
ATOM      9  C   UNL     1     -32.239  29.667   4.580  0.00  0.00    +0.169 C 
ATOM     10  C   UNL     1     -33.231  26.958   4.521  0.00  0.00    +0.208 C 
ATOM     11  C   UNL     1     -31.903  28.595   5.621  0.00  0.00    +0.175 C 
BRANCH   7  12
ATOM     12  O   UNL     1     -33.114  30.016   2.354  0.00  0.00    -0.379 OA
ATOM     13  H   UNL     1     -33.352  30.805   2.866  0.00  0.00    +0.211 HD
ENDBRANCH   7  12
BRANCH   8  14
ATOM     14  O   UNL     1     -33.700  27.183   2.168  0.00  0.00    -0.378 OA
ATOM     15  H   UNL     1     -34.266  26.407   2.295  0.00  0.00    +0.211 HD
ENDBRANCH   8  14
BRANCH   9  16
ATOM     16  O   UNL     1     -31.116  30.532   4.429  0.00  0.00    -0.379 OA
ATOM     17  H   UNL     1     -30.305  30.001   4.373  0.00  0.00    +0.211 HD
ENDBRANCH   9  16
BRANCH  11  18
ATOM     18  C   UNL     1     -31.670  29.200   7.001  0.00  0.00    +0.169 C 
BRANCH  18  19
ATOM     19  O   UNL     1     -30.275  29.317   7.213  0.00  0.00    -0.379 OA
ATOM     20  H   UNL     1     -29.907  28.448   7.434  0.00  0.00    +0.211 HD
ENDBRANCH  18  19
ENDBRANCH  11  18
ENDBRANCH   1  10
BRANCH   5  21
ATOM     21  C   UNL     1     -35.852  22.733   5.090  0.00  0.00    +0.064 C 
BRANCH  21  22
ATOM     22  C   UNL     1     -35.501  21.908   3.838  0.00  0.00    +0.100 C 
BRANCH  22  24
ATOM     23  O   UNL     1     -36.485  22.597   0.367  0.00  0.00    -0.270 OA
ATOM     24  N   UNL     1     -36.254  22.322   2.685  0.00  0.00    -0.274 N 
ATOM     25  C   UNL     1     -37.611  22.820   2.938  0.00  0.00    +0.115 C 
ATOM     26  C   UNL     1     -35.814  22.262   1.345  0.00  0.00    +0.249 C 
BRANCH  26  27
ATOM     27  C   UNL     1     -34.437  21.721   1.148  0.00  0.00    +0.058 C 
ATOM     28  C   UNL     1     -34.271  20.416   0.882  0.00  0.00    +0.005 C 
BRANCH  28  29
ATOM     29  C   UNL     1     -32.966  19.760   0.699  0.00  0.00    +0.000 C 
ATOM     30  C   UNL     1     -31.980  20.401  -0.034  0.00  0.00    +0.000 C 
ATOM     31  C   UNL     1     -32.747  18.514   1.264  0.00  0.00    +0.000 C 
ATOM     32  C   UNL     1     -30.743  19.780  -0.208  0.00  0.00    +0.000 C 
ATOM     33  C   UNL     1     -31.511  17.891   1.090  0.00  0.00    +0.000 C 
ATOM     34  C   UNL     1     -30.509  18.525   0.354  0.00  0.00    +0.000 C 
ENDBRANCH  28  29
ENDBRANCH  26  27
ENDBRANCH  22  24
ENDBRANCH  21  22
ENDBRANCH   5  21
TORSDOF 11
ENDMDL
MODEL 8
REMARK VINA RESULT:      -6.2      4.614      6.815
REMARK  Name = 5281818
REMARK  11 active torsions:
REMARK  status: ('A' for Active; 'I' for Inactive)
REMARK    1  A    between atoms: N_1  and  C_10
REMARK    2  A    between atoms: C_5  and  C_21
REMARK    3  A    between atoms: C_7  and  O_12
REMARK    4  A    between atoms: C_8  and  O_14
REMARK    5  A    between atoms: C_9  and  O_16
REMARK    6  A    between atoms: C_11  and  C_18
REMARK    7  A    between atoms: C_18  and  O_19
REMARK    8  A    between atoms: C_21  and  C_22
REMARK    9  A    between atoms: C_22  and  N_24
REMARK   10  A    between atoms: C_26  and  C_27
REMARK   11  A    between atoms: C_28  and  C_29
REMARK                            x       y       z     vdW  Elec       q    Type
REMARK                         _______ _______ _______ _____ _____    ______ ____
ROOT
ATOM      1  N   UNL     1     -33.198  27.141   5.142  0.00  0.00    -0.222 NA
ATOM      2  N   UNL     1     -34.327  25.275   5.535  0.00  0.00    -0.259 NA
ATOM      3  C   UNL     1     -33.384  26.560   3.922  0.00  0.00    +0.117 C 
ATOM      4  C   UNL     1     -33.778  26.338   6.079  0.00  0.00    +0.202 C 
ATOM      5  C   UNL     1     -34.085  25.408   4.189  0.00  0.00    +0.051 C 
ENDROOT
BRANCH   1  10
ATOM      6  O   UNL     1     -32.811  29.294   4.328  0.00  0.00    -0.336 OA
ATOM      7  C   UNL     1     -30.264  29.556   5.647  0.00  0.00    +0.170 C 
ATOM      8  C   UNL     1     -30.982  28.210   5.537  0.00  0.00    +0.183 C 
ATOM      9  C   UNL     1     -30.728  30.524   4.557  0.00  0.00    +0.169 C 
ATOM     10  C   UNL     1     -32.496  28.405   5.402  0.00  0.00    +0.208 C 
ATOM     11  C   UNL     1     -32.258  30.598   4.514  0.00  0.00    +0.175 C 
BRANCH   7  12
ATOM     12  O   UNL     1     -28.861  29.321   5.509  0.00  0.00    -0.379 OA
ATOM     13  H   UNL     1     -28.679  28.967   4.625  0.00  0.00    +0.211 HD
ENDBRANCH   7  12
BRANCH   8  14
ATOM     14  O   UNL     1     -30.716  27.447   6.714  0.00  0.00    -0.378 OA
ATOM     15  H   UNL     1     -30.197  27.982   7.335  0.00  0.00    +0.211 HD
ENDBRANCH   8  14
BRANCH   9  16
ATOM     16  O   UNL     1     -30.210  31.825   4.822  0.00  0.00    -0.379 OA
ATOM     17  H   UNL     1     -30.395  32.406   4.066  0.00  0.00    +0.211 HD
ENDBRANCH   9  16
BRANCH  11  18
ATOM     18  C   UNL     1     -32.750  31.471   3.365  0.00  0.00    +0.169 C 
BRANCH  18  19
ATOM     19  O   UNL     1     -31.839  31.356   2.287  0.00  0.00    -0.379 OA
ATOM     20  H   UNL     1     -32.313  31.067   1.492  0.00  0.00    +0.211 HD
ENDBRANCH  18  19
ENDBRANCH  11  18
ENDBRANCH   1  10
BRANCH   5  21
ATOM     21  C   UNL     1     -34.557  24.390   3.239  0.00  0.00    +0.064 C 
BRANCH  21  22
ATOM     22  C   UNL     1     -35.344  23.234   3.886  0.00  0.00    +0.100 C 
BRANCH  22  24
ATOM     23  O   UNL     1     -37.530  21.363   1.603  0.00  0.00    -0.270 OA
ATOM     24  N   UNL     1     -36.476  22.837   3.092  0.00  0.00    -0.274 N 
ATOM     25  C   UNL     1     -37.674  23.678   3.199  0.00  0.00    +0.115 C 
ATOM     26  C   UNL     1     -36.541  21.703   2.255  0.00  0.00    +0.249 C 
BRANCH  26  27
ATOM     27  C   UNL     1     -35.302  20.871   2.209  0.00  0.00    +0.058 C 
ATOM     28  C   UNL     1     -34.598  20.795   1.071  0.00  0.00    +0.005 C 
BRANCH  28  29
ATOM     29  C   UNL     1     -33.380  19.985   0.893  0.00  0.00    +0.000 C 
ATOM     30  C   UNL     1     -33.308  18.731   1.479  0.00  0.00    +0.000 C 
ATOM     31  C   UNL     1     -32.331  20.492   0.144  0.00  0.00    +0.000 C 
ATOM     32  C   UNL     1     -32.155  17.963   1.311  0.00  0.00    +0.000 C 
ATOM     33  C   UNL     1     -31.178  19.725  -0.025  0.00  0.00    +0.000 C 
ATOM     34  C   UNL     1     -31.090  18.460   0.559  0.00  0.00    +0.000 C 
ENDBRANCH  28  29
ENDBRANCH  26  27
ENDBRANCH  22  24
ENDBRANCH  21  22
ENDBRANCH   5  21
TORSDOF 11
ENDMDL
MODEL 9
REMARK VINA RESULT:      -6.2      4.805      6.687
REMARK  Name = 5281818
REMARK  11 active torsions:
REMARK  status: ('A' for Active; 'I' for Inactive)
REMARK    1  A    between atoms: N_1  and  C_10
REMARK    2  A    between atoms: C_5  and  C_21
REMARK    3  A    between atoms: C_7  and  O_12
REMARK    4  A    between atoms: C_8  and  O_14
REMARK    5  A    between atoms: C_9  and  O_16
REMARK    6  A    between atoms: C_11  and  C_18
REMARK    7  A    between atoms: C_18  and  O_19
REMARK    8  A    between atoms: C_21  and  C_22
REMARK    9  A    between atoms: C_22  and  N_24
REMARK   10  A    between atoms: C_26  and  C_27
REMARK   11  A    between atoms: C_28  and  C_29
REMARK                            x       y       z     vdW  Elec       q    Type
REMARK                         _______ _______ _______ _____ _____    ______ ____
ROOT
ATOM      1  N   UNL     1     -32.947  27.183   5.159  0.00  0.00    -0.222 NA
ATOM      2  N   UNL     1     -34.411  25.954   6.280  0.00  0.00    -0.259 NA
ATOM      3  C   UNL     1     -33.814  26.700   4.223  0.00  0.00    +0.117 C 
ATOM      4  C   UNL     1     -33.341  26.712   6.376  0.00  0.00    +0.202 C 
ATOM      5  C   UNL     1     -34.711  25.942   4.940  0.00  0.00    +0.051 C 
ENDROOT
BRANCH   1  10
ATOM      6  O   UNL     1     -30.782  27.714   5.851  0.00  0.00    -0.336 OA
ATOM      7  C   UNL     1     -30.914  30.421   4.876  0.00  0.00    +0.170 C 
ATOM      8  C   UNL     1     -32.161  29.542   4.989  0.00  0.00    +0.183 C 
ATOM      9  C   UNL     1     -29.807  29.939   5.816  0.00  0.00    +0.169 C 
ATOM     10  C   UNL     1     -31.794  28.056   4.902  0.00  0.00    +0.208 C 
ATOM     11  C   UNL     1     -29.567  28.436   5.644  0.00  0.00    +0.175 C 
BRANCH   7  12
ATOM     12  O   UNL     1     -31.284  31.757   5.221  0.00  0.00    -0.379 OA
ATOM     13  H   UNL     1     -31.345  31.836   6.186  0.00  0.00    +0.211 HD
ENDBRANCH   7  12
BRANCH   8  14
ATOM     14  O   UNL     1     -33.051  29.863   3.921  0.00  0.00    -0.378 OA
ATOM     15  H   UNL     1     -32.660  30.560   3.372  0.00  0.00    +0.211 HD
ENDBRANCH   8  14
BRANCH   9  16
ATOM     16  O   UNL     1     -28.599  30.636   5.525  0.00  0.00    -0.379 OA
ATOM     17  H   UNL     1     -28.681  31.559   5.816  0.00  0.00    +0.211 HD
ENDBRANCH   9  16
BRANCH  11  18
ATOM     18  C   UNL     1     -28.546  27.908   6.646  0.00  0.00    +0.169 C 
BRANCH  18  19
ATOM     19  O   UNL     1     -28.698  28.616   7.862  0.00  0.00    -0.379 OA
ATOM     20  H   UNL     1     -27.845  28.997   8.124  0.00  0.00    +0.211 HD
ENDBRANCH  18  19
ENDBRANCH  11  18
ENDBRANCH   1  10
BRANCH   5  21
ATOM     21  C   UNL     1     -35.866  25.184   4.437  0.00  0.00    +0.064 C 
BRANCH  21  22
ATOM     22  C   UNL     1     -35.502  23.856   3.746  0.00  0.00    +0.100 C 
BRANCH  22  24
ATOM     23  O   UNL     1     -37.499  21.731   1.513  0.00  0.00    -0.270 OA
ATOM     24  N   UNL     1     -36.591  23.333   2.966  0.00  0.00    -0.274 N 
ATOM     25  C   UNL     1     -37.864  24.057   3.057  0.00  0.00    +0.115 C 
ATOM     26  C   UNL     1     -36.546  22.180   2.154  0.00  0.00    +0.249 C 
BRANCH  26  27
ATOM     27  C   UNL     1     -35.233  21.470   2.123  0.00  0.00    +0.058 C 
ATOM     28  C   UNL     1     -34.856  20.825   1.009  0.00  0.00    +0.005 C 
BRANCH  28  29
ATOM     29  C   UNL     1     -33.603  20.065   0.867  0.00  0.00    +0.000 C 
ATOM     30  C   UNL     1     -32.560  20.607   0.133  0.00  0.00    +0.000 C 
ATOM     31  C   UNL     1     -33.490  18.822   1.469  0.00  0.00    +0.000 C 
ATOM     32  C   UNL     1     -31.372  19.887  -0.002  0.00  0.00    +0.000 C 
ATOM     33  C   UNL     1     -32.303  18.102   1.334  0.00  0.00    +0.000 C 
ATOM     34  C   UNL     1     -31.244  18.635   0.598  0.00  0.00    +0.000 C 
ENDBRANCH  28  29
ENDBRANCH  26  27
ENDBRANCH  22  24
ENDBRANCH  21  22
ENDBRANCH   5  21
TORSDOF 11
ENDMDL
