MODEL 1
REMARK VINA RESULT:      -7.0      0.000      0.000
REMARK  Name = 53323644
REMARK  6 active torsions:
REMARK  status: ('A' for Active; 'I' for Inactive)
REMARK    1  A    between atoms: C_6  and  C_27
REMARK    2  A    between atoms: C_10  and  O_21
REMARK    3  A    between atoms: C_14  and  O_23
REMARK    4  A    between atoms: O_23  and  C_25
REMARK    5  A    between atoms: C_27  and  O_28
REMARK    6  A    between atoms: O_28  and  C_31
REMARK                            x       y       z     vdW  Elec       q    Type
REMARK                         _______ _______ _______ _____ _____    ______ ____
ROOT
ATOM      1  O   UNL     1     -33.610  25.323   2.777  0.00  0.00    -0.292 OA
ATOM      2  C   UNL     1     -35.478  21.615   2.184  0.00  0.00    +0.003 C 
ATOM      3  C   UNL     1     -35.248  22.594   3.418  0.00  0.00    +0.034 C 
ATOM      4  C   UNL     1     -35.693  24.075   3.139  0.00  0.00    +0.058 C 
ATOM      5  C   UNL     1     -34.855  22.342   0.933  0.00  0.00    +0.006 C 
ATOM      6  C   UNL     1     -34.535  21.463  -0.341  0.00  0.00    +0.064 C 
ATOM      7  C   UNL     1     -36.220  24.405   1.749  0.00  0.00    +0.007 C 
ATOM      8  C   UNL     1     -35.557  23.672   0.589  0.00  0.00    +0.001 C 
ATOM      9  C   UNL     1     -36.691  24.593   4.210  0.00  0.00    +0.012 C 
ATOM     10  C   UNL     1     -35.759  22.110   4.811  0.00  0.00    +0.111 C 
ATOM     11  C   UNL     1     -34.717  20.280   2.433  0.00  0.00    +0.004 C 
ATOM     12  C   UNL     1     -35.849  24.601   5.484  0.00  0.00    +0.028 C 
ATOM     13  C   UNL     1     -35.570  23.160   5.928  0.00  0.00    +0.034 C 
ATOM     14  C   UNL     1     -33.780  20.174   0.086  0.00  0.00    +0.171 C 
ATOM     15  C   UNL     1     -34.508  24.959   3.518  0.00  0.00    +0.168 C 
ATOM     16  C   UNL     1     -34.508  19.416   1.191  0.00  0.00    +0.044 C 
ATOM     17  C   UNL     1     -36.976  21.274   2.034  0.00  0.00    +0.000 C 
ATOM     18  C   UNL     1     -34.597  25.269   4.976  0.00  0.00    +0.012 C 
ATOM     19  C   UNL     1     -33.631  22.280  -1.306  0.00  0.00    +0.006 C 
ATOM     20  C   UNL     1     -33.733  26.048   5.627  0.00  0.00    -0.002 C 
ENDROOT
BRANCH  10  21
ATOM     21  O   UNL     1     -35.082  20.926   5.222  0.00  0.00    -0.384 OA
ATOM     22  H   UNL     1     -35.288  20.743   6.152  0.00  0.00    +0.210 HD
ENDBRANCH  10  21
BRANCH  14  23
ATOM     23  O   UNL     1     -32.470  20.480   0.575  0.00  0.00    -0.452 OA
BRANCH  23  25
ATOM     24  O   UNL     1     -31.358  18.468   0.796  0.00  0.00    -0.250 OA
ATOM     25  C   UNL     1     -31.504  19.565   0.276  0.00  0.00    +0.317 C 
ATOM     26  C   UNL     1     -30.619  20.105  -0.807  0.00  0.00    +0.121 C 
ENDBRANCH  23  25
ENDBRANCH  14  23
BRANCH   6  27
ATOM     27  C   UNL     1     -35.774  21.058  -1.172  0.00  0.00    +0.147 C 
BRANCH  27  28
ATOM     28  O   UNL     1     -35.485  19.833  -1.807  0.00  0.00    -0.338 OA
BRANCH  28  31
ATOM     29  O   UNL     1     -36.502  15.811  -1.034  0.00  0.00    -0.275 OA
ATOM     30  N   UNL     1     -36.362  17.749  -2.342  0.00  0.00    -0.283 N 
ATOM     31  C   UNL     1     -36.665  19.145  -2.191  0.00  0.00    +0.191 C 
ATOM     32  C   UNL     1     -37.691  19.159  -1.072  0.00  0.00    +0.060 C 
ATOM     33  C   UNL     1     -37.301  17.955  -0.214  0.00  0.00    +0.089 C 
ATOM     34  C   UNL     1     -36.694  17.003  -1.216  0.00  0.00    +0.224 C 
ATOM     35  H   UNL     1     -35.962  17.363  -3.154  0.00  0.00    +0.152 HD
ENDBRANCH  28  31
ENDBRANCH  27  28
ENDBRANCH   6  27
TORSDOF 6
ENDMDL
MODEL 2
REMARK VINA RESULT:      -6.7      1.795      2.527
REMARK  Name = 53323644
REMARK  6 active torsions:
REMARK  status: ('A' for Active; 'I' for Inactive)
REMARK    1  A    between atoms: C_6  and  C_27
REMARK    2  A    between atoms: C_10  and  O_21
REMARK    3  A    between atoms: C_14  and  O_23
REMARK    4  A    between atoms: O_23  and  C_25
REMARK    5  A    between atoms: C_27  and  O_28
REMARK    6  A    between atoms: O_28  and  C_31
REMARK                            x       y       z     vdW  Elec       q    Type
REMARK                         _______ _______ _______ _____ _____    ______ ____
ROOT
ATOM      1  O   UNL     1     -33.621  25.345   2.815  0.00  0.00    -0.292 OA
ATOM      2  C   UNL     1     -35.556  21.664   2.274  0.00  0.00    +0.003 C 
ATOM      3  C   UNL     1     -35.291  22.646   3.499  0.00  0.00    +0.034 C 
ATOM      4  C   UNL     1     -35.717  24.131   3.218  0.00  0.00    +0.058 C 
ATOM      5  C   UNL     1     -34.943  22.373   1.009  0.00  0.00    +0.006 C 
ATOM      6  C   UNL     1     -34.658  21.482  -0.265  0.00  0.00    +0.064 C 
ATOM      7  C   UNL     1     -36.261  24.462   1.835  0.00  0.00    +0.007 C 
ATOM      8  C   UNL     1     -35.629  23.712   0.669  0.00  0.00    +0.001 C 
ATOM      9  C   UNL     1     -36.689  24.672   4.302  0.00  0.00    +0.012 C 
ATOM     10  C   UNL     1     -35.786  22.178   4.902  0.00  0.00    +0.111 C 
ATOM     11  C   UNL     1     -34.812  20.317   2.519  0.00  0.00    +0.004 C 
ATOM     12  C   UNL     1     -35.826  24.673   5.562  0.00  0.00    +0.028 C 
ATOM     13  C   UNL     1     -35.562  23.231   6.010  0.00  0.00    +0.034 C 
ATOM     14  C   UNL     1     -33.916  20.184   0.158  0.00  0.00    +0.171 C 
ATOM     15  C   UNL     1     -34.512  24.999   3.572  0.00  0.00    +0.168 C 
ATOM     16  C   UNL     1     -34.637  19.444   1.278  0.00  0.00    +0.044 C 
ATOM     17  C   UNL     1     -37.062  21.345   2.151  0.00  0.00    +0.000 C 
ATOM     18  C   UNL     1     -34.572  25.319   5.030  0.00  0.00    +0.012 C 
ATOM     19  C   UNL     1     -33.757  22.279  -1.249  0.00  0.00    +0.006 C 
ATOM     20  C   UNL     1     -33.686  26.088   5.662  0.00  0.00    -0.002 C 
ENDROOT
BRANCH  10  21
ATOM     21  O   UNL     1     -35.121  20.985   5.309  0.00  0.00    -0.384 OA
ATOM     22  H   UNL     1     -35.501  20.674   6.146  0.00  0.00    +0.210 HD
ENDBRANCH  10  21
BRANCH  14  23
ATOM     23  O   UNL     1     -32.594  20.472   0.623  0.00  0.00    -0.452 OA
BRANCH  23  25
ATOM     24  O   UNL     1     -31.571  18.424   0.934  0.00  0.00    -0.250 OA
ATOM     25  C   UNL     1     -31.661  19.508   0.375  0.00  0.00    +0.317 C 
ATOM     26  C   UNL     1     -30.735  19.973  -0.709  0.00  0.00    +0.121 C 
ENDBRANCH  23  25
ENDBRANCH  14  23
BRANCH   6  27
ATOM     27  C   UNL     1     -35.916  21.092  -1.073  0.00  0.00    +0.147 C 
BRANCH  27  28
ATOM     28  O   UNL     1     -36.149  22.107  -2.023  0.00  0.00    -0.338 OA
BRANCH  28  31
ATOM     29  O   UNL     1     -39.575  23.223   0.174  0.00  0.00    -0.275 OA
ATOM     30  N   UNL     1     -38.359  21.906  -1.333  0.00  0.00    -0.283 N 
ATOM     31  C   UNL     1     -37.498  22.122  -2.463  0.00  0.00    +0.191 C 
ATOM     32  C   UNL     1     -37.897  23.506  -2.944  0.00  0.00    +0.060 C 
ATOM     33  C   UNL     1     -38.336  24.218  -1.664  0.00  0.00    +0.089 C 
ATOM     34  C   UNL     1     -38.866  23.092  -0.811  0.00  0.00    +0.224 C 
ATOM     35  H   UNL     1     -38.566  21.016  -0.968  0.00  0.00    +0.152 HD
ENDBRANCH  28  31
ENDBRANCH  27  28
ENDBRANCH   6  27
TORSDOF 6
ENDMDL
MODEL 3
REMARK VINA RESULT:      -6.5      1.146      1.329
REMARK  Name = 53323644
REMARK  6 active torsions:
REMARK  status: ('A' for Active; 'I' for Inactive)
REMARK    1  A    between atoms: C_6  and  C_27
REMARK    2  A    between atoms: C_10  and  O_21
REMARK    3  A    between atoms: C_14  and  O_23
REMARK    4  A    between atoms: O_23  and  C_25
REMARK    5  A    between atoms: C_27  and  O_28
REMARK    6  A    between atoms: O_28  and  C_31
REMARK                            x       y       z     vdW  Elec       q    Type
REMARK                         _______ _______ _______ _____ _____    ______ ____
ROOT
ATOM      1  O   UNL     1     -33.596  25.315   2.855  0.00  0.00    -0.292 OA
ATOM      2  C   UNL     1     -35.548  21.652   2.255  0.00  0.00    +0.003 C 
ATOM      3  C   UNL     1     -35.293  22.621   3.492  0.00  0.00    +0.034 C 
ATOM      4  C   UNL     1     -35.705  24.112   3.219  0.00  0.00    +0.058 C 
ATOM      5  C   UNL     1     -34.913  22.369   1.005  0.00  0.00    +0.006 C 
ATOM      6  C   UNL     1     -34.617  21.487  -0.274  0.00  0.00    +0.064 C 
ATOM      7  C   UNL     1     -36.229  24.459   1.832  0.00  0.00    +0.007 C 
ATOM      8  C   UNL     1     -35.586  23.715   0.668  0.00  0.00    +0.001 C 
ATOM      9  C   UNL     1     -36.688  24.650   4.295  0.00  0.00    +0.012 C 
ATOM     10  C   UNL     1     -35.810  22.144   4.884  0.00  0.00    +0.111 C 
ATOM     11  C   UNL     1     -34.817  20.298   2.498  0.00  0.00    +0.004 C 
ATOM     12  C   UNL     1     -35.843  24.634   5.566  0.00  0.00    +0.028 C 
ATOM     13  C   UNL     1     -35.595  23.185   6.005  0.00  0.00    +0.034 C 
ATOM     14  C   UNL     1     -33.890  20.180   0.148  0.00  0.00    +0.171 C 
ATOM     15  C   UNL     1     -34.499  24.968   3.597  0.00  0.00    +0.168 C 
ATOM     16  C   UNL     1     -34.631  19.435   1.251  0.00  0.00    +0.044 C 
ATOM     17  C   UNL     1     -37.055  21.345   2.108  0.00  0.00    +0.000 C 
ATOM     18  C   UNL     1     -34.577  25.275   5.057  0.00  0.00    +0.012 C 
ATOM     19  C   UNL     1     -33.698  22.287  -1.238  0.00  0.00    +0.006 C 
ATOM     20  C   UNL     1     -33.694  26.033   5.708  0.00  0.00    -0.002 C 
ENDROOT
BRANCH  10  21
ATOM     21  O   UNL     1     -35.159  20.943   5.289  0.00  0.00    -0.384 OA
ATOM     22  H   UNL     1     -35.757  20.427   5.853  0.00  0.00    +0.210 HD
ENDBRANCH  10  21
BRANCH  14  23
ATOM     23  O   UNL     1     -32.572  20.454   0.634  0.00  0.00    -0.452 OA
BRANCH  23  25
ATOM     24  O   UNL     1     -31.534  18.417   0.955  0.00  0.00    -0.250 OA
ATOM     25  C   UNL     1     -31.641  19.491   0.381  0.00  0.00    +0.317 C 
ATOM     26  C   UNL     1     -30.740  19.942  -0.729  0.00  0.00    +0.121 C 
ENDBRANCH  23  25
ENDBRANCH  14  23
BRANCH   6  27
ATOM     27  C   UNL     1     -35.867  21.113  -1.102  0.00  0.00    +0.147 C 
BRANCH  27  28
ATOM     28  O   UNL     1     -35.448  20.860  -2.424  0.00  0.00    -0.338 OA
BRANCH  28  31
ATOM     29  O   UNL     1     -33.995  17.577  -4.642  0.00  0.00    -0.275 OA
ATOM     30  N   UNL     1     -35.478  19.327  -4.170  0.00  0.00    -0.283 N 
ATOM     31  C   UNL     1     -36.198  19.818  -3.027  0.00  0.00    +0.191 C 
ATOM     32  C   UNL     1     -36.272  18.605  -2.116  0.00  0.00    +0.060 C 
ATOM     33  C   UNL     1     -34.992  17.834  -2.440  0.00  0.00    +0.089 C 
ATOM     34  C   UNL     1     -34.741  18.181  -3.888  0.00  0.00    +0.224 C 
ATOM     35  H   UNL     1     -35.504  19.756  -5.055  0.00  0.00    +0.152 HD
ENDBRANCH  28  31
ENDBRANCH  27  28
ENDBRANCH   6  27
TORSDOF 6
ENDMDL
MODEL 4
REMARK VINA RESULT:      -6.4      4.309      6.720
REMARK  Name = 53323644
REMARK  6 active torsions:
REMARK  status: ('A' for Active; 'I' for Inactive)
REMARK    1  A    between atoms: C_6  and  C_27
REMARK    2  A    between atoms: C_10  and  O_21
REMARK    3  A    between atoms: C_14  and  O_23
REMARK    4  A    between atoms: O_23  and  C_25
REMARK    5  A    between atoms: C_27  and  O_28
REMARK    6  A    between atoms: O_28  and  C_31
REMARK                            x       y       z     vdW  Elec       q    Type
REMARK                         _______ _______ _______ _____ _____    ______ ____
ROOT
ATOM      1  O   UNL     1     -30.621  25.797   2.047  0.00  0.00    -0.292 OA
ATOM      2  C   UNL     1     -34.216  26.815   3.950  0.00  0.00    +0.003 C 
ATOM      3  C   UNL     1     -32.704  27.306   4.028  0.00  0.00    +0.034 C 
ATOM      4  C   UNL     1     -32.089  27.676   2.630  0.00  0.00    +0.058 C 
ATOM      5  C   UNL     1     -34.259  25.720   2.820  0.00  0.00    +0.006 C 
ATOM      6  C   UNL     1     -35.500  24.741   2.793  0.00  0.00    +0.064 C 
ATOM      7  C   UNL     1     -32.962  27.474   1.398  0.00  0.00    +0.007 C 
ATOM      8  C   UNL     1     -33.892  26.268   1.426  0.00  0.00    +0.001 C 
ATOM      9  C   UNL     1     -31.497  29.112   2.617  0.00  0.00    +0.012 C 
ATOM     10  C   UNL     1     -32.366  28.395   5.093  0.00  0.00    +0.111 C 
ATOM     11  C   UNL     1     -34.622  26.169   5.308  0.00  0.00    +0.004 C 
ATOM     12  C   UNL     1     -30.343  29.011   3.613  0.00  0.00    +0.028 C 
ATOM     13  C   UNL     1     -30.897  28.869   5.035  0.00  0.00    +0.034 C 
ATOM     14  C   UNL     1     -35.765  24.191   4.222  0.00  0.00    +0.171 C 
ATOM     15  C   UNL     1     -30.774  26.910   2.522  0.00  0.00    +0.168 C 
ATOM     16  C   UNL     1     -35.880  25.304   5.259  0.00  0.00    +0.044 C 
ATOM     17  C   UNL     1     -35.163  28.011   3.705  0.00  0.00    +0.000 C 
ATOM     18  C   UNL     1     -29.695  27.732   3.148  0.00  0.00    +0.012 C 
ATOM     19  C   UNL     1     -35.186  23.550   1.846  0.00  0.00    +0.006 C 
ATOM     20  C   UNL     1     -28.414  27.369   3.195  0.00  0.00    -0.002 C 
ENDROOT
BRANCH  10  21
ATOM     21  O   UNL     1     -32.606  27.914   6.412  0.00  0.00    -0.384 OA
ATOM     22  H   UNL     1     -32.009  28.362   7.032  0.00  0.00    +0.210 HD
ENDBRANCH  10  21
BRANCH  14  23
ATOM     23  O   UNL     1     -34.710  23.324   4.647  0.00  0.00    -0.452 OA
BRANCH  23  25
ATOM     24  O   UNL     1     -35.217  21.089   4.362  0.00  0.00    -0.250 OA
ATOM     25  C   UNL     1     -35.100  22.084   5.062  0.00  0.00    +0.317 C 
ATOM     26  C   UNL     1     -35.375  22.111   6.535  0.00  0.00    +0.121 C 
ENDBRANCH  23  25
ENDBRANCH  14  23
BRANCH   6  27
ATOM     27  C   UNL     1     -36.805  25.371   2.255  0.00  0.00    +0.147 C 
BRANCH  27  28
ATOM     28  O   UNL     1     -37.678  24.320   1.906  0.00  0.00    -0.338 OA
BRANCH  28  31
ATOM     29  O   UNL     1     -40.828  26.945   2.905  0.00  0.00    -0.275 OA
ATOM     30  N   UNL     1     -39.118  25.414   3.367  0.00  0.00    -0.283 N 
ATOM     31  C   UNL     1     -38.693  24.130   2.879  0.00  0.00    +0.191 C 
ATOM     32  C   UNL     1     -39.952  23.565   2.246  0.00  0.00    +0.060 C 
ATOM     33  C   UNL     1     -40.695  24.808   1.754  0.00  0.00    +0.089 C 
ATOM     34  C   UNL     1     -40.271  25.872   2.738  0.00  0.00    +0.224 C 
ATOM     35  H   UNL     1     -38.643  25.914   4.069  0.00  0.00    +0.152 HD
ENDBRANCH  28  31
ENDBRANCH  27  28
ENDBRANCH   6  27
TORSDOF 6
ENDMDL
MODEL 5
REMARK VINA RESULT:      -6.3      2.818      6.782
REMARK  Name = 53323644
REMARK  6 active torsions:
REMARK  status: ('A' for Active; 'I' for Inactive)
REMARK    1  A    between atoms: C_6  and  C_27
REMARK    2  A    between atoms: C_10  and  O_21
REMARK    3  A    between atoms: C_14  and  O_23
REMARK    4  A    between atoms: O_23  and  C_25
REMARK    5  A    between atoms: C_27  and  O_28
REMARK    6  A    between atoms: O_28  and  C_31
REMARK                            x       y       z     vdW  Elec       q    Type
REMARK                         _______ _______ _______ _____ _____    ______ ____
ROOT
ATOM      1  O   UNL     1     -34.696  20.090   2.592  0.00  0.00    -0.292 OA
ATOM      2  C   UNL     1     -34.427  23.721   0.511  0.00  0.00    +0.003 C 
ATOM      3  C   UNL     1     -33.747  22.286   0.397  0.00  0.00    +0.034 C 
ATOM      4  C   UNL     1     -34.778  21.102   0.356  0.00  0.00    +0.058 C 
ATOM      5  C   UNL     1     -35.466  23.616   1.690  0.00  0.00    +0.006 C 
ATOM      6  C   UNL     1     -35.984  24.964   2.333  0.00  0.00    +0.064 C 
ATOM      7  C   UNL     1     -36.256  21.446   0.486  0.00  0.00    +0.007 C 
ATOM      8  C   UNL     1     -36.596  22.603   1.418  0.00  0.00    +0.001 C 
ATOM      9  C   UNL     1     -34.565  20.186  -0.880  0.00  0.00    +0.012 C 
ATOM     10  C   UNL     1     -32.648  22.108  -0.696  0.00  0.00    +0.111 C 
ATOM     11  C   UNL     1     -33.344  24.780   0.873  0.00  0.00    +0.004 C 
ATOM     12  C   UNL     1     -33.186  19.584  -0.621  0.00  0.00    +0.028 C 
ATOM     13  C   UNL     1     -32.109  20.663  -0.789  0.00  0.00    +0.034 C 
ATOM     14  C   UNL     1     -34.780  25.901   2.628  0.00  0.00    +0.171 C 
ATOM     15  C   UNL     1     -34.335  20.108   1.427  0.00  0.00    +0.168 C 
ATOM     16  C   UNL     1     -33.891  26.103   1.406  0.00  0.00    +0.044 C 
ATOM     17  C   UNL     1     -35.048  24.136  -0.840  0.00  0.00    +0.000 C 
ATOM     18  C   UNL     1     -33.334  19.179   0.823  0.00  0.00    +0.012 C 
ATOM     19  C   UNL     1     -36.709  24.641   3.669  0.00  0.00    +0.006 C 
ATOM     20  C   UNL     1     -32.766  18.166   1.478  0.00  0.00    -0.002 C 
ENDROOT
BRANCH  10  21
ATOM     21  O   UNL     1     -31.535  22.961  -0.448  0.00  0.00    -0.384 OA
ATOM     22  H   UNL     1     -31.681  23.450   0.378  0.00  0.00    +0.210 HD
ENDBRANCH  10  21
BRANCH  14  23
ATOM     23  O   UNL     1     -33.954  25.371   3.669  0.00  0.00    -0.452 OA
BRANCH  23  25
ATOM     24  O   UNL     1     -32.628  27.121   4.388  0.00  0.00    -0.250 OA
ATOM     25  C   UNL     1     -33.497  26.281   4.577  0.00  0.00    +0.317 C 
ATOM     26  C   UNL     1     -34.227  26.105   5.874  0.00  0.00    +0.121 C 
ENDBRANCH  23  25
ENDBRANCH  14  23
BRANCH   6  27
ATOM     27  C   UNL     1     -37.012  25.734   1.474  0.00  0.00    +0.147 C 
BRANCH  27  28
ATOM     28  O   UNL     1     -37.972  26.287   2.346  0.00  0.00    -0.338 OA
BRANCH  28  31
ATOM     29  O   UNL     1     -40.265  22.773   1.893  0.00  0.00    -0.275 OA
ATOM     30  N   UNL     1     -39.441  24.865   1.240  0.00  0.00    -0.283 N 
ATOM     31  C   UNL     1     -39.288  26.167   1.828  0.00  0.00    +0.191 C 
ATOM     32  C   UNL     1     -40.313  26.165   2.949  0.00  0.00    +0.060 C 
ATOM     33  C   UNL     1     -40.377  24.697   3.373  0.00  0.00    +0.089 C 
ATOM     34  C   UNL     1     -40.054  23.958   2.098  0.00  0.00    +0.224 C 
ATOM     35  H   UNL     1     -39.143  24.641   0.329  0.00  0.00    +0.152 HD
ENDBRANCH  28  31
ENDBRANCH  27  28
ENDBRANCH   6  27
TORSDOF 6
ENDMDL
MODEL 6
REMARK VINA RESULT:      -6.3      4.450      7.785
REMARK  Name = 53323644
REMARK  6 active torsions:
REMARK  status: ('A' for Active; 'I' for Inactive)
REMARK    1  A    between atoms: C_6  and  C_27
REMARK    2  A    between atoms: C_10  and  O_21
REMARK    3  A    between atoms: C_14  and  O_23
REMARK    4  A    between atoms: O_23  and  C_25
REMARK    5  A    between atoms: C_27  and  O_28
REMARK    6  A    between atoms: O_28  and  C_31
REMARK                            x       y       z     vdW  Elec       q    Type
REMARK                         _______ _______ _______ _____ _____    ______ ____
ROOT
ATOM      1  O   UNL     1     -34.223  24.766   5.725  0.00  0.00    -0.292 OA
ATOM      2  C   UNL     1     -33.641  25.642   1.665  0.00  0.00    +0.003 C 
ATOM      3  C   UNL     1     -34.350  24.481   2.493  0.00  0.00    +0.034 C 
ATOM      4  C   UNL     1     -35.369  25.006   3.567  0.00  0.00    +0.058 C 
ATOM      5  C   UNL     1     -33.113  26.674   2.731  0.00  0.00    +0.006 C 
ATOM      6  C   UNL     1     -32.003  27.701   2.269  0.00  0.00    +0.064 C 
ATOM      7  C   UNL     1     -35.514  26.514   3.727  0.00  0.00    +0.007 C 
ATOM      8  C   UNL     1     -34.241  27.332   3.552  0.00  0.00    +0.001 C 
ATOM      9  C   UNL     1     -36.773  24.364   3.399  0.00  0.00    +0.012 C 
ATOM     10  C   UNL     1     -34.957  23.298   1.678  0.00  0.00    +0.111 C 
ATOM     11  C   UNL     1     -32.433  25.053   0.877  0.00  0.00    +0.004 C 
ATOM     12  C   UNL     1     -36.511  22.890   3.699  0.00  0.00    +0.028 C 
ATOM     13  C   UNL     1     -35.697  22.267   2.558  0.00  0.00    +0.034 C 
ATOM     14  C   UNL     1     -30.881  26.949   1.501  0.00  0.00    +0.171 C 
ATOM     15  C   UNL     1     -34.992  24.332   4.884  0.00  0.00    +0.168 C 
ATOM     16  C   UNL     1     -31.431  26.087   0.370  0.00  0.00    +0.044 C 
ATOM     17  C   UNL     1     -34.618  26.245   0.632  0.00  0.00    +0.000 C 
ATOM     18  C   UNL     1     -35.687  23.012   4.955  0.00  0.00    +0.012 C 
ATOM     19  C   UNL     1     -31.388  28.379   3.525  0.00  0.00    +0.006 C 
ATOM     20  C   UNL     1     -35.600  22.179   5.992  0.00  0.00    -0.002 C 
ENDROOT
BRANCH  10  21
ATOM     21  O   UNL     1     -33.945  22.597   0.961  0.00  0.00    -0.384 OA
ATOM     22  H   UNL     1     -34.356  21.910   0.411  0.00  0.00    +0.210 HD
ENDBRANCH  10  21
BRANCH  14  23
ATOM     23  O   UNL     1     -30.145  26.086   2.373  0.00  0.00    -0.452 OA
BRANCH  23  25
ATOM     24  O   UNL     1     -28.241  26.221   3.672  0.00  0.00    -0.250 OA
ATOM     25  C   UNL     1     -28.874  26.486   2.660  0.00  0.00    +0.317 C 
ATOM     26  C   UNL     1     -28.343  27.319   1.532  0.00  0.00    +0.121 C 
ENDBRANCH  23  25
ENDBRANCH  14  23
BRANCH   6  27
ATOM     27  C   UNL     1     -32.523  28.856   1.383  0.00  0.00    +0.147 C 
BRANCH  27  28
ATOM     28  O   UNL     1     -32.517  30.031   2.161  0.00  0.00    -0.338 OA
BRANCH  28  31
ATOM     29  O   UNL     1     -36.661  29.621   1.471  0.00  0.00    -0.275 OA
ATOM     30  N   UNL     1     -34.489  30.339   0.970  0.00  0.00    -0.283 N 
ATOM     31  C   UNL     1     -33.416  31.005   1.655  0.00  0.00    +0.191 C 
ATOM     32  C   UNL     1     -34.123  31.731   2.786  0.00  0.00    +0.060 C 
ATOM     33  C   UNL     1     -35.320  30.831   3.097  0.00  0.00    +0.089 C 
ATOM     34  C   UNL     1     -35.622  30.191   1.763  0.00  0.00    +0.224 C 
ATOM     35  H   UNL     1     -34.427  30.022   0.040  0.00  0.00    +0.152 HD
ENDBRANCH  28  31
ENDBRANCH  27  28
ENDBRANCH   6  27
TORSDOF 6
ENDMDL
MODEL 7
REMARK VINA RESULT:      -6.0      3.400      7.565
REMARK  Name = 53323644
REMARK  6 active torsions:
REMARK  status: ('A' for Active; 'I' for Inactive)
REMARK    1  A    between atoms: C_6  and  C_27
REMARK    2  A    between atoms: C_10  and  O_21
REMARK    3  A    between atoms: C_14  and  O_23
REMARK    4  A    between atoms: O_23  and  C_25
REMARK    5  A    between atoms: C_27  and  O_28
REMARK    6  A    between atoms: O_28  and  C_31
REMARK                            x       y       z     vdW  Elec       q    Type
REMARK                         _______ _______ _______ _____ _____    ______ ____
ROOT
ATOM      1  O   UNL     1     -35.250  22.284  -1.924  0.00  0.00    -0.292 OA
ATOM      2  C   UNL     1     -36.155  22.945   2.117  0.00  0.00    +0.003 C 
ATOM      3  C   UNL     1     -35.638  21.715   1.248  0.00  0.00    +0.034 C 
ATOM      4  C   UNL     1     -34.386  22.052   0.362  0.00  0.00    +0.058 C 
ATOM      5  C   UNL     1     -36.270  24.160   1.122  0.00  0.00    +0.006 C 
ATOM      6  C   UNL     1     -37.154  25.392   1.568  0.00  0.00    +0.064 C 
ATOM      7  C   UNL     1     -33.864  23.483   0.389  0.00  0.00    +0.007 C 
ATOM      8  C   UNL     1     -34.916  24.578   0.511  0.00  0.00    +0.001 C 
ATOM      9  C   UNL     1     -33.213  21.066   0.614  0.00  0.00    +0.012 C 
ATOM     10  C   UNL     1     -35.449  20.355   1.988  0.00  0.00    +0.111 C 
ATOM     11  C   UNL     1     -37.565  22.617   2.692  0.00  0.00    +0.004 C 
ATOM     12  C   UNL     1     -33.777  19.735   0.122  0.00  0.00    +0.028 C 
ATOM     13  C   UNL     1     -34.864  19.246   1.086  0.00  0.00    +0.034 C 
ATOM     14  C   UNL     1     -38.518  24.888   2.116  0.00  0.00    +0.171 C 
ATOM     15  C   UNL     1     -34.730  21.604  -1.057  0.00  0.00    +0.168 C 
ATOM     16  C   UNL     1     -38.351  23.826   3.197  0.00  0.00    +0.044 C 
ATOM     17  C   UNL     1     -35.213  23.197   3.314  0.00  0.00    +0.000 C 
ATOM     18  C   UNL     1     -34.368  20.162  -1.197  0.00  0.00    +0.012 C 
ATOM     19  C   UNL     1     -37.412  26.303   0.336  0.00  0.00    +0.006 C 
ATOM     20  C   UNL     1     -34.508  19.464  -2.324  0.00  0.00    -0.002 C 
ENDROOT
BRANCH  10  21
ATOM     21  O   UNL     1     -36.688  19.875   2.503  0.00  0.00    -0.384 OA
ATOM     22  H   UNL     1     -36.588  18.947   2.770  0.00  0.00    +0.210 HD
ENDBRANCH  10  21
BRANCH  14  23
ATOM     23  O   UNL     1     -39.313  24.311   1.075  0.00  0.00    -0.452 OA
BRANCH  23  25
ATOM     24  O   UNL     1     -41.517  23.625   1.007  0.00  0.00    -0.250 OA
ATOM     25  C   UNL     1     -40.660  24.475   1.206  0.00  0.00    +0.317 C 
ATOM     26  C   UNL     1     -40.955  25.879   1.638  0.00  0.00    +0.121 C 
ENDBRANCH  23  25
ENDBRANCH  14  23
BRANCH   6  27
ATOM     27  C   UNL     1     -36.500  26.303   2.631  0.00  0.00    +0.147 C 
BRANCH  27  28
ATOM     28  O   UNL     1     -35.761  27.294   1.953  0.00  0.00    -0.338 OA
BRANCH  28  31
ATOM     29  O   UNL     1     -33.577  25.816   5.248  0.00  0.00    -0.275 OA
ATOM     30  N   UNL     1     -34.911  27.371   4.115  0.00  0.00    -0.283 N 
ATOM     31  C   UNL     1     -34.916  28.019   2.832  0.00  0.00    +0.191 C 
ATOM     32  C   UNL     1     -33.465  27.925   2.391  0.00  0.00    +0.060 C 
ATOM     33  C   UNL     1     -32.977  26.628   3.037  0.00  0.00    +0.089 C 
ATOM     34  C   UNL     1     -33.815  26.532   4.289  0.00  0.00    +0.224 C 
ATOM     35  H   UNL     1     -35.609  27.506   4.796  0.00  0.00    +0.152 HD
ENDBRANCH  28  31
ENDBRANCH  27  28
ENDBRANCH   6  27
TORSDOF 6
ENDMDL
MODEL 8
REMARK VINA RESULT:      -5.9      3.218      5.346
REMARK  Name = 53323644
REMARK  6 active torsions:
REMARK  status: ('A' for Active; 'I' for Inactive)
REMARK    1  A    between atoms: C_6  and  C_27
REMARK    2  A    between atoms: C_10  and  O_21
REMARK    3  A    between atoms: C_14  and  O_23
REMARK    4  A    between atoms: O_23  and  C_25
REMARK    5  A    between atoms: C_27  and  O_28
REMARK    6  A    between atoms: O_28  and  C_31
REMARK                            x       y       z     vdW  Elec       q    Type
REMARK                         _______ _______ _______ _____ _____    ______ ____
ROOT
ATOM      1  O   UNL     1     -38.703  26.705   1.762  0.00  0.00    -0.292 OA
ATOM      2  C   UNL     1     -37.737  22.795   0.590  0.00  0.00    +0.003 C 
ATOM      3  C   UNL     1     -39.058  23.682   0.630  0.00  0.00    +0.034 C 
ATOM      4  C   UNL     1     -38.900  25.080  -0.069  0.00  0.00    +0.058 C 
ATOM      5  C   UNL     1     -36.571  23.732   1.085  0.00  0.00    +0.006 C 
ATOM      6  C   UNL     1     -35.233  23.043   1.569  0.00  0.00    +0.064 C 
ATOM      7  C   UNL     1     -37.530  25.438  -0.632  0.00  0.00    +0.007 C 
ATOM      8  C   UNL     1     -36.328  24.943   0.161  0.00  0.00    +0.001 C 
ATOM      9  C   UNL     1     -39.986  25.315  -1.154  0.00  0.00    +0.012 C 
ATOM     10  C   UNL     1     -40.389  22.991   0.200  0.00  0.00    +0.111 C 
ATOM     11  C   UNL     1     -37.887  21.598   1.575  0.00  0.00    +0.004 C 
ATOM     12  C   UNL     1     -41.276  25.354  -0.339  0.00  0.00    +0.028 C 
ATOM     13  C   UNL     1     -41.599  23.951   0.188  0.00  0.00    +0.034 C 
ATOM     14  C   UNL     1     -35.565  21.875   2.538  0.00  0.00    +0.171 C 
ATOM     15  C   UNL     1     -39.385  26.122   0.936  0.00  0.00    +0.168 C 
ATOM     16  C   UNL     1     -36.578  20.902   1.946  0.00  0.00    +0.044 C 
ATOM     17  C   UNL     1     -37.518  22.210  -0.822  0.00  0.00    +0.000 C 
ATOM     18  C   UNL     1     -40.862  26.276   0.779  0.00  0.00    +0.012 C 
ATOM     19  C   UNL     1     -34.368  24.092   2.322  0.00  0.00    +0.006 C 
ATOM     20  C   UNL     1     -41.602  27.133   1.484  0.00  0.00    -0.002 C 
ENDROOT
BRANCH  10  21
ATOM     21  O   UNL     1     -40.711  21.912   1.073  0.00  0.00    -0.384 OA
ATOM     22  H   UNL     1     -41.587  22.062   1.462  0.00  0.00    +0.210 HD
ENDBRANCH  10  21
BRANCH  14  23
ATOM     23  O   UNL     1     -36.112  22.360   3.767  0.00  0.00    -0.452 OA
BRANCH  23  25
ATOM     24  O   UNL     1     -35.051  20.832   5.135  0.00  0.00    -0.250 OA
ATOM     25  C   UNL     1     -35.465  21.958   4.898  0.00  0.00    +0.317 C 
ATOM     26  C   UNL     1     -35.327  23.117   5.838  0.00  0.00    +0.121 C 
ENDBRANCH  23  25
ENDBRANCH  14  23
BRANCH   6  27
ATOM     27  C   UNL     1     -34.338  22.504   0.430  0.00  0.00    +0.147 C 
BRANCH  27  28
ATOM     28  O   UNL     1     -33.507  21.503   0.973  0.00  0.00    -0.338 OA
BRANCH  28  31
ATOM     29  O   UNL     1     -31.645  17.764   1.575  0.00  0.00    -0.275 OA
ATOM     30  N   UNL     1     -31.978  19.818   0.501  0.00  0.00    -0.283 N 
ATOM     31  C   UNL     1     -33.089  20.571  -0.011  0.00  0.00    +0.191 C 
ATOM     32  C   UNL     1     -34.152  19.509  -0.240  0.00  0.00    +0.060 C 
ATOM     33  C   UNL     1     -33.852  18.465   0.836  0.00  0.00    +0.089 C 
ATOM     34  C   UNL     1     -32.359  18.587   1.025  0.00  0.00    +0.224 C 
ATOM     35  H   UNL     1     -31.048  20.140   0.483  0.00  0.00    +0.152 HD
ENDBRANCH  28  31
ENDBRANCH  27  28
ENDBRANCH   6  27
TORSDOF 6
ENDMDL
MODEL 9
REMARK VINA RESULT:      -5.9      3.155      5.585
REMARK  Name = 53323644
REMARK  6 active torsions:
REMARK  status: ('A' for Active; 'I' for Inactive)
REMARK    1  A    between atoms: C_6  and  C_27
REMARK    2  A    between atoms: C_10  and  O_21
REMARK    3  A    between atoms: C_14  and  O_23
REMARK    4  A    between atoms: O_23  and  C_25
REMARK    5  A    between atoms: C_27  and  O_28
REMARK    6  A    between atoms: O_28  and  C_31
REMARK                            x       y       z     vdW  Elec       q    Type
REMARK                         _______ _______ _______ _____ _____    ______ ____
ROOT
ATOM      1  O   UNL     1     -35.605  21.326   3.594  0.00  0.00    -0.292 OA
ATOM      2  C   UNL     1     -37.118  24.521   1.339  0.00  0.00    +0.003 C 
ATOM      3  C   UNL     1     -36.667  24.303   2.850  0.00  0.00    +0.034 C 
ATOM      4  C   UNL     1     -35.233  23.677   2.995  0.00  0.00    +0.058 C 
ATOM      5  C   UNL     1     -36.837  23.159   0.601  0.00  0.00    +0.006 C 
ATOM      6  C   UNL     1     -37.565  22.910  -0.780  0.00  0.00    +0.064 C 
ATOM      7  C   UNL     1     -34.489  23.311   1.717  0.00  0.00    +0.007 C 
ATOM      8  C   UNL     1     -35.343  22.778   0.573  0.00  0.00    +0.001 C 
ATOM      9  C   UNL     1     -34.313  24.537   3.904  0.00  0.00    +0.012 C 
ATOM     10  C   UNL     1     -36.854  25.505   3.827  0.00  0.00    +0.111 C 
ATOM     11  C   UNL     1     -38.645  24.825   1.293  0.00  0.00    +0.004 C 
ATOM     12  C   UNL     1     -34.995  24.439   5.267  0.00  0.00    +0.028 C 
ATOM     13  C   UNL     1     -36.310  25.228   5.246  0.00  0.00    +0.034 C 
ATOM     14  C   UNL     1     -39.073  23.263  -0.649  0.00  0.00    +0.171 C 
ATOM     15  C   UNL     1     -35.379  22.477   3.926  0.00  0.00    +0.168 C 
ATOM     16  C   UNL     1     -39.293  24.660  -0.080  0.00  0.00    +0.044 C 
ATOM     17  C   UNL     1     -36.386  25.734   0.725  0.00  0.00    +0.000 C 
ATOM     18  C   UNL     1     -35.249  22.955   5.336  0.00  0.00    +0.012 C 
ATOM     19  C   UNL     1     -37.430  21.409  -1.159  0.00  0.00    +0.006 C 
ATOM     20  C   UNL     1     -35.295  22.155   6.401  0.00  0.00    -0.002 C 
ENDROOT
BRANCH  10  21
ATOM     21  O   UNL     1     -38.230  25.849   3.959  0.00  0.00    -0.384 OA
ATOM     22  H   UNL     1     -38.391  26.705   3.530  0.00  0.00    +0.210 HD
ENDBRANCH  10  21
BRANCH  14  23
ATOM     23  O   UNL     1     -39.747  22.343   0.215  0.00  0.00    -0.452 OA
BRANCH  23  25
ATOM     24  O   UNL     1     -41.499  20.837   0.205  0.00  0.00    -0.250 OA
ATOM     25  C   UNL     1     -40.813  21.694  -0.335  0.00  0.00    +0.317 C 
ATOM     26  C   UNL     1     -41.035  22.188  -1.732  0.00  0.00    +0.121 C 
ENDBRANCH  23  25
ENDBRANCH  14  23
BRANCH   6  27
ATOM     27  C   UNL     1     -36.974  23.696  -1.971  0.00  0.00    +0.147 C 
BRANCH  27  28
ATOM     28  O   UNL     1     -36.127  22.824  -2.685  0.00  0.00    -0.338 OA
BRANCH  28  31
ATOM     29  O   UNL     1     -32.961  25.232  -1.275  0.00  0.00    -0.275 OA
ATOM     30  N   UNL     1     -34.730  24.681  -2.708  0.00  0.00    -0.283 N 
ATOM     31  C   UNL     1     -35.163  23.530  -3.451  0.00  0.00    +0.191 C 
ATOM     32  C   UNL     1     -33.891  22.716  -3.604  0.00  0.00    +0.060 C 
ATOM     33  C   UNL     1     -33.094  23.053  -2.343  0.00  0.00    +0.089 C 
ATOM     34  C   UNL     1     -33.537  24.461  -2.026  0.00  0.00    +0.224 C 
ATOM     35  H   UNL     1     -35.224  25.532  -2.684  0.00  0.00    +0.152 HD
ENDBRANCH  28  31
ENDBRANCH  27  28
ENDBRANCH   6  27
TORSDOF 6
ENDMDL
