MODEL 1
REMARK VINA RESULT:      -6.5      0.000      0.000
REMARK  Name = 5284418
REMARK  5 active torsions:
REMARK  status: ('A' for Active; 'I' for Inactive)
REMARK    1  A    between atoms: C_7  and  C_14
REMARK    2  A    between atoms: C_10  and  C_17
REMARK    3  A    between atoms: C_14  and  O_15
REMARK    4  A    between atoms: C_18  and  C_20
REMARK    5  A    between atoms: C_22  and  N_26
REMARK                            x       y       z     vdW  Elec       q    Type
REMARK                         _______ _______ _______ _____ _____    ______ ____
ROOT
ATOM      1  O   UNL     1     -38.458  24.751   3.767  0.00  0.00    -0.290 OA
ATOM      2  N   UNL     1     -35.919  27.506   2.185  0.00  0.00    -0.262 N 
ATOM      3  N   UNL     1     -34.374  27.190   4.021  0.00  0.00    -0.390 NA
ATOM      4  C   UNL     1     -35.545  26.879   3.403  0.00  0.00    +0.175 C 
ATOM      5  C   UNL     1     -36.411  25.925   3.963  0.00  0.00    +0.151 C 
ATOM      6  C   UNL     1     -37.691  25.580   3.293  0.00  0.00    +0.192 C 
ATOM      7  C   UNL     1     -38.000  26.286   2.023  0.00  0.00    +0.126 C 
ATOM      8  C   UNL     1     -37.110  27.177   1.572  0.00  0.00    +0.076 C 
ATOM      9  C   UNL     1     -36.069  25.292   5.160  0.00  0.00    -0.008 C 
ATOM     10  C   UNL     1     -34.068  26.562   5.179  0.00  0.00    +0.132 C 
ATOM     11  C   UNL     1     -34.873  25.616   5.784  0.00  0.00    +0.028 C 
ATOM     12  C   UNL     1     -34.983  28.487   1.649  0.00  0.00    +0.119 C 
ENDROOT
BRANCH   7  14
ATOM     13  O   UNL     1     -39.248  25.549   0.138  0.00  0.00    -0.245 OA
ATOM     14  C   UNL     1     -39.218  26.058   1.245  0.00  0.00    +0.342 C 
BRANCH  14  15
ATOM     15  O   UNL     1     -40.289  26.495   1.941  0.00  0.00    -0.477 OA
ATOM     16  H   UNL     1     -40.195  27.195   2.556  0.00  0.00    +0.295 HD
ENDBRANCH  14  15
ENDBRANCH   7  14
BRANCH  10  17
ATOM     17  C   UNL     1     -32.803  26.938   5.791  0.00  0.00    +0.035 C 
ATOM     18  C   UNL     1     -32.070  28.026   5.460  0.00  0.00    +0.040 C 
BRANCH  18  20
ATOM     19  O   UNL     1     -29.901  27.489   6.408  0.00  0.00    -0.433 OA
ATOM     20  C   UNL     1     -30.798  28.417   6.093  0.00  0.00    +0.148 C 
ATOM     21  C   UNL     1     -30.437  29.672   6.398  0.00  0.00    +0.043 C 
ATOM     22  C   UNL     1     -28.873  28.184   6.961  0.00  0.00    +0.289 C 
ATOM     23  C   UNL     1     -29.154  29.531   6.979  0.00  0.00    +0.066 C 
BRANCH  22  26
ATOM     24  O   UNL     1     -26.981  27.887   8.237  0.00  0.00    -0.123 OA
ATOM     25  O   UNL     1     -27.616  26.257   6.904  0.00  0.00    -0.123 OA
ATOM     26  N   UNL     1     -27.786  27.416   7.382  0.00  0.00    +0.093 N 
ENDBRANCH  22  26
ENDBRANCH  18  20
ENDBRANCH  10  17
TORSDOF 5
ENDMDL
MODEL 2
REMARK VINA RESULT:      -6.4      6.284      9.935
REMARK  Name = 5284418
REMARK  5 active torsions:
REMARK  status: ('A' for Active; 'I' for Inactive)
REMARK    1  A    between atoms: C_7  and  C_14
REMARK    2  A    between atoms: C_10  and  C_17
REMARK    3  A    between atoms: C_14  and  O_15
REMARK    4  A    between atoms: C_18  and  C_20
REMARK    5  A    between atoms: C_22  and  N_26
REMARK                            x       y       z     vdW  Elec       q    Type
REMARK                         _______ _______ _______ _____ _____    ______ ____
ROOT
ATOM      1  O   UNL     1     -38.630  21.173   0.881  0.00  0.00    -0.290 OA
ATOM      2  N   UNL     1     -37.488  24.112   3.448  0.00  0.00    -0.262 N 
ATOM      3  N   UNL     1     -39.505  25.361   2.974  0.00  0.00    -0.390 NA
ATOM      4  C   UNL     1     -38.726  24.265   2.770  0.00  0.00    +0.175 C 
ATOM      5  C   UNL     1     -39.135  23.258   1.880  0.00  0.00    +0.151 C 
ATOM      6  C   UNL     1     -38.289  22.059   1.653  0.00  0.00    +0.192 C 
ATOM      7  C   UNL     1     -37.010  21.984   2.405  0.00  0.00    +0.126 C 
ATOM      8  C   UNL     1     -36.710  22.993   3.230  0.00  0.00    +0.076 C 
ATOM      9  C   UNL     1     -40.349  23.383   1.200  0.00  0.00    -0.008 C 
ATOM     10  C   UNL     1     -40.676  25.455   2.302  0.00  0.00    +0.132 C 
ATOM     11  C   UNL     1     -41.138  24.504   1.413  0.00  0.00    +0.028 C 
ATOM     12  C   UNL     1     -37.113  25.185   4.360  0.00  0.00    +0.119 C 
ENDROOT
BRANCH   7  14
ATOM     13  O   UNL     1     -34.905  20.980   1.946  0.00  0.00    -0.245 OA
ATOM     14  C   UNL     1     -36.068  20.870   2.291  0.00  0.00    +0.342 C 
BRANCH  14  15
ATOM     15  O   UNL     1     -36.686  19.717   2.624  0.00  0.00    -0.477 OA
ATOM     16  H   UNL     1     -36.829  19.057   1.975  0.00  0.00    +0.295 HD
ENDBRANCH  14  15
ENDBRANCH   7  14
BRANCH  10  17
ATOM     17  C   UNL     1     -41.464  26.649   2.563  0.00  0.00    +0.035 C 
ATOM     18  C   UNL     1     -42.167  26.888   3.694  0.00  0.00    +0.040 C 
BRANCH  18  20
ATOM     19  O   UNL     1     -42.690  28.834   5.047  0.00  0.00    -0.433 OA
ATOM     20  C   UNL     1     -42.950  28.106   3.966  0.00  0.00    +0.148 C 
ATOM     21  C   UNL     1     -43.944  28.576   3.199  0.00  0.00    +0.043 C 
ATOM     22  C   UNL     1     -43.579  29.860   4.987  0.00  0.00    +0.289 C 
ATOM     23  C   UNL     1     -44.374  29.746   3.869  0.00  0.00    +0.066 C 
BRANCH  22  26
ATOM     24  O   UNL     1     -43.365  30.369   7.221  0.00  0.00    -0.123 OA
ATOM     25  O   UNL     1     -43.580  32.019   5.783  0.00  0.00    -0.123 OA
ATOM     26  N   UNL     1     -43.506  30.781   6.033  0.00  0.00    +0.093 N 
ENDBRANCH  22  26
ENDBRANCH  18  20
ENDBRANCH  10  17
TORSDOF 5
ENDMDL
MODEL 3
REMARK VINA RESULT:      -6.2      6.732     10.910
REMARK  Name = 5284418
REMARK  5 active torsions:
REMARK  status: ('A' for Active; 'I' for Inactive)
REMARK    1  A    between atoms: C_7  and  C_14
REMARK    2  A    between atoms: C_10  and  C_17
REMARK    3  A    between atoms: C_14  and  O_15
REMARK    4  A    between atoms: C_18  and  C_20
REMARK    5  A    between atoms: C_22  and  N_26
REMARK                            x       y       z     vdW  Elec       q    Type
REMARK                         _______ _______ _______ _____ _____    ______ ____
ROOT
ATOM      1  O   UNL     1     -34.244  25.743   2.395  0.00  0.00    -0.290 OA
ATOM      2  N   UNL     1     -35.127  22.783   5.039  0.00  0.00    -0.262 N 
ATOM      3  N   UNL     1     -35.627  21.261   3.225  0.00  0.00    -0.390 NA
ATOM      4  C   UNL     1     -35.237  22.492   3.654  0.00  0.00    +0.175 C 
ATOM      5  C   UNL     1     -34.936  23.504   2.727  0.00  0.00    +0.151 C 
ATOM      6  C   UNL     1     -34.510  24.849   3.189  0.00  0.00    +0.192 C 
ATOM      7  C   UNL     1     -34.422  25.063   4.656  0.00  0.00    +0.126 C 
ATOM      8  C   UNL     1     -34.730  24.036   5.456  0.00  0.00    +0.076 C 
ATOM      9  C   UNL     1     -35.036  23.245   1.358  0.00  0.00    -0.008 C 
ATOM     10  C   UNL     1     -35.715  21.039   1.894  0.00  0.00    +0.132 C 
ATOM     11  C   UNL     1     -35.434  21.988   0.930  0.00  0.00    +0.028 C 
ATOM     12  C   UNL     1     -35.450  21.697   5.956  0.00  0.00    +0.119 C 
ENDROOT
BRANCH   7  14
ATOM     13  O   UNL     1     -33.336  26.428   6.271  0.00  0.00    -0.245 OA
ATOM     14  C   UNL     1     -34.019  26.330   5.267  0.00  0.00    +0.342 C 
BRANCH  14  15
ATOM     15  O   UNL     1     -34.519  27.360   4.551  0.00  0.00    -0.477 OA
ATOM     16  H   UNL     1     -34.490  28.229   4.897  0.00  0.00    +0.295 HD
ENDBRANCH  14  15
ENDBRANCH   7  14
BRANCH  10  17
ATOM     17  C   UNL     1     -36.136  19.704   1.499  0.00  0.00    +0.035 C 
ATOM     18  C   UNL     1     -36.193  19.249   0.226  0.00  0.00    +0.040 C 
BRANCH  18  20
ATOM     19  O   UNL     1     -37.883  17.544  -0.132  0.00  0.00    -0.433 OA
ATOM     20  C   UNL     1     -36.601  17.890  -0.172  0.00  0.00    +0.148 C 
ATOM     21  C   UNL     1     -35.772  16.923  -0.590  0.00  0.00    +0.043 C 
ATOM     22  C   UNL     1     -37.900  16.253  -0.554  0.00  0.00    +0.289 C 
ATOM     23  C   UNL     1     -36.626  15.824  -0.848  0.00  0.00    +0.066 C 
BRANCH  22  26
ATOM     24  O   UNL     1     -39.260  14.399  -0.449  0.00  0.00    -0.123 OA
ATOM     25  O   UNL     1     -40.186  16.364  -0.792  0.00  0.00    -0.123 OA
ATOM     26  N   UNL     1     -39.158  15.652  -0.600  0.00  0.00    +0.093 N 
ENDBRANCH  22  26
ENDBRANCH  18  20
ENDBRANCH  10  17
TORSDOF 5
ENDMDL
MODEL 4
REMARK VINA RESULT:      -6.2      7.326     10.280
REMARK  Name = 5284418
REMARK  5 active torsions:
REMARK  status: ('A' for Active; 'I' for Inactive)
REMARK    1  A    between atoms: C_7  and  C_14
REMARK    2  A    between atoms: C_10  and  C_17
REMARK    3  A    between atoms: C_14  and  O_15
REMARK    4  A    between atoms: C_18  and  C_20
REMARK    5  A    between atoms: C_22  and  N_26
REMARK                            x       y       z     vdW  Elec       q    Type
REMARK                         _______ _______ _______ _____ _____    ______ ____
ROOT
ATOM      1  O   UNL     1     -35.336  25.728   2.406  0.00  0.00    -0.290 OA
ATOM      2  N   UNL     1     -35.268  22.530   4.917  0.00  0.00    -0.262 N 
ATOM      3  N   UNL     1     -35.160  21.010   3.038  0.00  0.00    -0.390 NA
ATOM      4  C   UNL     1     -35.223  22.280   3.521  0.00  0.00    +0.175 C 
ATOM      5  C   UNL     1     -35.246  23.374   2.639  0.00  0.00    +0.151 C 
ATOM      6  C   UNL     1     -35.315  24.763   3.160  0.00  0.00    +0.192 C 
ATOM      7  C   UNL     1     -35.358  24.930   4.635  0.00  0.00    +0.126 C 
ATOM      8  C   UNL     1     -35.331  23.825   5.389  0.00  0.00    +0.076 C 
ATOM      9  C   UNL     1     -35.203  23.156   1.260  0.00  0.00    -0.008 C 
ATOM     10  C   UNL     1     -35.119  20.829   1.698  0.00  0.00    +0.132 C 
ATOM     11  C   UNL     1     -35.139  21.858   0.776  0.00  0.00    +0.028 C 
ATOM     12  C   UNL     1     -35.240  21.360   5.786  0.00  0.00    +0.119 C 
ENDROOT
BRANCH   7  14
ATOM     13  O   UNL     1     -34.459  26.889   5.637  0.00  0.00    -0.245 OA
ATOM     14  C   UNL     1     -35.428  26.231   5.301  0.00  0.00    +0.342 C 
BRANCH  14  15
ATOM     15  O   UNL     1     -36.719  26.580   5.481  0.00  0.00    -0.477 OA
ATOM     16  H   UNL     1     -37.055  26.704   6.346  0.00  0.00    +0.295 HD
ENDBRANCH  14  15
ENDBRANCH   7  14
BRANCH  10  17
ATOM     17  C   UNL     1     -35.051  19.449   1.245  0.00  0.00    +0.035 C 
ATOM     18  C   UNL     1     -33.980  18.874   0.651  0.00  0.00    +0.040 C 
BRANCH  18  20
ATOM     19  O   UNL     1     -35.016  16.812  -0.097  0.00  0.00    -0.433 OA
ATOM     20  C   UNL     1     -33.904  17.471   0.209  0.00  0.00    +0.148 C 
ATOM     21  C   UNL     1     -32.776  16.758   0.081  0.00  0.00    +0.043 C 
ATOM     22  C   UNL     1     -34.588  15.573  -0.455  0.00  0.00    +0.289 C 
ATOM     23  C   UNL     1     -33.218  15.489  -0.363  0.00  0.00    +0.066 C 
BRANCH  22  26
ATOM     24  O   UNL     1     -35.279  13.503  -1.188  0.00  0.00    -0.123 OA
ATOM     25  O   UNL     1     -36.801  15.043  -0.803  0.00  0.00    -0.123 OA
ATOM     26  N   UNL     1     -35.590  14.676  -0.829  0.00  0.00    +0.093 N 
ENDBRANCH  22  26
ENDBRANCH  18  20
ENDBRANCH  10  17
TORSDOF 5
ENDMDL
MODEL 5
REMARK VINA RESULT:      -6.1      4.013      5.830
REMARK  Name = 5284418
REMARK  5 active torsions:
REMARK  status: ('A' for Active; 'I' for Inactive)
REMARK    1  A    between atoms: C_7  and  C_14
REMARK    2  A    between atoms: C_10  and  C_17
REMARK    3  A    between atoms: C_14  and  O_15
REMARK    4  A    between atoms: C_18  and  C_20
REMARK    5  A    between atoms: C_22  and  N_26
REMARK                            x       y       z     vdW  Elec       q    Type
REMARK                         _______ _______ _______ _____ _____    ______ ____
ROOT
ATOM      1  O   UNL     1     -36.957  23.603   3.128  0.00  0.00    -0.290 OA
ATOM      2  N   UNL     1     -34.322  25.851   5.258  0.00  0.00    -0.262 N 
ATOM      3  N   UNL     1     -34.647  27.720   3.756  0.00  0.00    -0.390 NA
ATOM      4  C   UNL     1     -34.934  26.442   4.121  0.00  0.00    +0.175 C 
ATOM      5  C   UNL     1     -35.847  25.678   3.374  0.00  0.00    +0.151 C 
ATOM      6  C   UNL     1     -36.164  24.282   3.767  0.00  0.00    +0.192 C 
ATOM      7  C   UNL     1     -35.477  23.747   4.970  0.00  0.00    +0.126 C 
ATOM      8  C   UNL     1     -34.626  24.553   5.614  0.00  0.00    +0.076 C 
ATOM      9  C   UNL     1     -36.463  26.235   2.251  0.00  0.00    -0.008 C 
ATOM     10  C   UNL     1     -35.259  28.233   2.664  0.00  0.00    +0.132 C 
ATOM     11  C   UNL     1     -36.165  27.539   1.886  0.00  0.00    +0.028 C 
ATOM     12  C   UNL     1     -33.385  26.687   5.996  0.00  0.00    +0.119 C 
ENDROOT
BRANCH   7  14
ATOM     13  O   UNL     1     -35.935  22.124   6.646  0.00  0.00    -0.245 OA
ATOM     14  C   UNL     1     -35.683  22.392   5.484  0.00  0.00    +0.342 C 
BRANCH  14  15
ATOM     15  O   UNL     1     -35.551  21.500   4.480  0.00  0.00    -0.477 OA
ATOM     16  H   UNL     1     -34.742  21.436   4.013  0.00  0.00    +0.295 HD
ENDBRANCH  14  15
ENDBRANCH   7  14
BRANCH  10  17
ATOM     17  C   UNL     1     -34.911  29.604   2.326  0.00  0.00    +0.035 C 
ATOM     18  C   UNL     1     -34.059  30.389   3.027  0.00  0.00    +0.040 C 
BRANCH  18  20
ATOM     19  O   UNL     1     -32.567  32.299   3.142  0.00  0.00    -0.433 OA
ATOM     20  C   UNL     1     -33.692  31.771   2.674  0.00  0.00    +0.148 C 
ATOM     21  C   UNL     1     -34.413  32.589   1.894  0.00  0.00    +0.043 C 
ATOM     22  C   UNL     1     -32.543  33.558   2.631  0.00  0.00    +0.289 C 
ATOM     23  C   UNL     1     -33.657  33.785   1.857  0.00  0.00    +0.066 C 
BRANCH  22  26
ATOM     24  O   UNL     1     -31.608  35.482   3.480  0.00  0.00    -0.123 OA
ATOM     25  O   UNL     1     -30.270  33.870   2.811  0.00  0.00    -0.123 OA
ATOM     26  N   UNL     1     -31.436  34.330   2.986  0.00  0.00    +0.093 N 
ENDBRANCH  22  26
ENDBRANCH  18  20
ENDBRANCH  10  17
TORSDOF 5
ENDMDL
MODEL 6
REMARK VINA RESULT:      -6.1      6.606      8.840
REMARK  Name = 5284418
REMARK  5 active torsions:
REMARK  status: ('A' for Active; 'I' for Inactive)
REMARK    1  A    between atoms: C_7  and  C_14
REMARK    2  A    between atoms: C_10  and  C_17
REMARK    3  A    between atoms: C_14  and  O_15
REMARK    4  A    between atoms: C_18  and  C_20
REMARK    5  A    between atoms: C_22  and  N_26
REMARK                            x       y       z     vdW  Elec       q    Type
REMARK                         _______ _______ _______ _____ _____    ______ ____
ROOT
ATOM      1  O   UNL     1     -40.960  23.711   1.407  0.00  0.00    -0.290 OA
ATOM      2  N   UNL     1     -37.510  24.331   3.466  0.00  0.00    -0.262 N 
ATOM      3  N   UNL     1     -36.601  22.244   2.645  0.00  0.00    -0.390 NA
ATOM      4  C   UNL     1     -37.619  23.145   2.694  0.00  0.00    +0.175 C 
ATOM      5  C   UNL     1     -38.805  22.916   1.976  0.00  0.00    +0.151 C 
ATOM      6  C   UNL     1     -39.920  23.895   2.026  0.00  0.00    +0.192 C 
ATOM      7  C   UNL     1     -39.717  25.108   2.859  0.00  0.00    +0.126 C 
ATOM      8  C   UNL     1     -38.552  25.234   3.503  0.00  0.00    +0.076 C 
ATOM      9  C   UNL     1     -38.940  21.756   1.209  0.00  0.00    -0.008 C 
ATOM     10  C   UNL     1     -36.760  21.131   1.893  0.00  0.00    +0.132 C 
ATOM     11  C   UNL     1     -37.897  20.843   1.164  0.00  0.00    +0.028 C 
ATOM     12  C   UNL     1     -36.258  24.519   4.189  0.00  0.00    +0.119 C 
ENDROOT
BRANCH   7  14
ATOM     13  O   UNL     1     -41.016  26.965   2.142  0.00  0.00    -0.245 OA
ATOM     14  C   UNL     1     -40.719  26.163   3.010  0.00  0.00    +0.342 C 
BRANCH  14  15
ATOM     15  O   UNL     1     -41.254  26.108   4.248  0.00  0.00    -0.477 OA
ATOM     16  H   UNL     1     -40.786  25.690   4.943  0.00  0.00    +0.295 HD
ENDBRANCH  14  15
ENDBRANCH   7  14
BRANCH  10  17
ATOM     17  C   UNL     1     -35.636  20.207   1.882  0.00  0.00    +0.035 C 
ATOM     18  C   UNL     1     -35.055  19.700   0.770  0.00  0.00    +0.040 C 
BRANCH  18  20
ATOM     19  O   UNL     1     -34.045  17.549   0.278  0.00  0.00    -0.433 OA
ATOM     20  C   UNL     1     -33.905  18.779   0.758  0.00  0.00    +0.148 C 
ATOM     21  C   UNL     1     -32.674  19.070   1.204  0.00  0.00    +0.043 C 
ATOM     22  C   UNL     1     -32.816  16.987   0.417  0.00  0.00    +0.289 C 
ATOM     23  C   UNL     1     -31.937  17.882   0.983  0.00  0.00    +0.066 C 
BRANCH  22  26
ATOM     24  O   UNL     1     -33.622  15.165  -0.735  0.00  0.00    -0.123 OA
ATOM     25  O   UNL     1     -31.683  14.987   0.289  0.00  0.00    -0.123 OA
ATOM     26  N   UNL     1     -32.703  15.668  -0.024  0.00  0.00    +0.093 N 
ENDBRANCH  22  26
ENDBRANCH  18  20
ENDBRANCH  10  17
TORSDOF 5
ENDMDL
MODEL 7
REMARK VINA RESULT:      -6.1      1.628      2.717
REMARK  Name = 5284418
REMARK  5 active torsions:
REMARK  status: ('A' for Active; 'I' for Inactive)
REMARK    1  A    between atoms: C_7  and  C_14
REMARK    2  A    between atoms: C_10  and  C_17
REMARK    3  A    between atoms: C_14  and  O_15
REMARK    4  A    between atoms: C_18  and  C_20
REMARK    5  A    between atoms: C_22  and  N_26
REMARK                            x       y       z     vdW  Elec       q    Type
REMARK                         _______ _______ _______ _____ _____    ______ ____
ROOT
ATOM      1  O   UNL     1     -37.824  27.021   1.680  0.00  0.00    -0.290 OA
ATOM      2  N   UNL     1     -35.497  25.450   4.621  0.00  0.00    -0.262 N 
ATOM      3  N   UNL     1     -33.837  27.177   4.281  0.00  0.00    -0.390 NA
ATOM      4  C   UNL     1     -35.028  26.609   3.950  0.00  0.00    +0.175 C 
ATOM      5  C   UNL     1     -35.820  27.165   2.931  0.00  0.00    +0.151 C 
ATOM      6  C   UNL     1     -37.121  26.550   2.565  0.00  0.00    +0.192 C 
ATOM      7  C   UNL     1     -37.532  25.340   3.320  0.00  0.00    +0.126 C 
ATOM      8  C   UNL     1     -36.708  24.888   4.273  0.00  0.00    +0.076 C 
ATOM      9  C   UNL     1     -35.382  28.306   2.255  0.00  0.00    -0.008 C 
ATOM     10  C   UNL     1     -33.438  28.281   3.609  0.00  0.00    +0.132 C 
ATOM     11  C   UNL     1     -34.166  28.878   2.599  0.00  0.00    +0.028 C 
ATOM     12  C   UNL     1     -34.637  24.916   5.669  0.00  0.00    +0.119 C 
ENDROOT
BRANCH   7  14
ATOM     13  O   UNL     1     -38.964  23.835   2.163  0.00  0.00    -0.245 OA
ATOM     14  C   UNL     1     -38.783  24.620   3.078  0.00  0.00    +0.342 C 
BRANCH  14  15
ATOM     15  O   UNL     1     -39.691  24.959   4.017  0.00  0.00    -0.477 OA
ATOM     16  H   UNL     1     -40.520  24.524   4.046  0.00  0.00    +0.295 HD
ENDBRANCH  14  15
ENDBRANCH   7  14
BRANCH  10  17
ATOM     17  C   UNL     1     -32.157  28.841   4.010  0.00  0.00    +0.035 C 
ATOM     18  C   UNL     1     -31.769  29.066   5.287  0.00  0.00    +0.040 C 
BRANCH  18  20
ATOM     19  O   UNL     1     -29.870  29.168   6.793  0.00  0.00    -0.433 OA
ATOM     20  C   UNL     1     -30.464  29.616   5.693  0.00  0.00    +0.148 C 
ATOM     21  C   UNL     1     -29.784  30.566   5.035  0.00  0.00    +0.043 C 
ATOM     22  C   UNL     1     -28.712  29.876   6.866  0.00  0.00    +0.289 C 
ATOM     23  C   UNL     1     -28.612  30.749   5.808  0.00  0.00    +0.066 C 
BRANCH  22  26
ATOM     24  O   UNL     1     -27.711  28.376   8.297  0.00  0.00    -0.123 OA
ATOM     25  O   UNL     1     -27.344  30.523   8.600  0.00  0.00    -0.123 OA
ATOM     26  N   UNL     1     -27.895  29.582   7.958  0.00  0.00    +0.093 N 
ENDBRANCH  22  26
ENDBRANCH  18  20
ENDBRANCH  10  17
TORSDOF 5
ENDMDL
MODEL 8
REMARK VINA RESULT:      -6.1      6.284      7.730
REMARK  Name = 5284418
REMARK  5 active torsions:
REMARK  status: ('A' for Active; 'I' for Inactive)
REMARK    1  A    between atoms: C_7  and  C_14
REMARK    2  A    between atoms: C_10  and  C_17
REMARK    3  A    between atoms: C_14  and  O_15
REMARK    4  A    between atoms: C_18  and  C_20
REMARK    5  A    between atoms: C_22  and  N_26
REMARK                            x       y       z     vdW  Elec       q    Type
REMARK                         _______ _______ _______ _____ _____    ______ ____
ROOT
ATOM      1  O   UNL     1     -40.428  23.249   1.940  0.00  0.00    -0.290 OA
ATOM      2  N   UNL     1     -36.724  24.338   3.217  0.00  0.00    -0.262 N 
ATOM      3  N   UNL     1     -35.817  22.204   2.523  0.00  0.00    -0.390 NA
ATOM      4  C   UNL     1     -36.877  23.049   2.643  0.00  0.00    +0.175 C 
ATOM      5  C   UNL     1     -38.150  22.657   2.196  0.00  0.00    +0.151 C 
ATOM      6  C   UNL     1     -39.311  23.574   2.324  0.00  0.00    +0.192 C 
ATOM      7  C   UNL     1     -39.058  24.902   2.937  0.00  0.00    +0.126 C 
ATOM      8  C   UNL     1     -37.809  25.181   3.329  0.00  0.00    +0.076 C 
ATOM      9  C   UNL     1     -38.329  21.394   1.627  0.00  0.00    -0.008 C 
ATOM     10  C   UNL     1     -36.020  20.988   1.968  0.00  0.00    +0.132 C 
ATOM     11  C   UNL     1     -37.243  20.539   1.509  0.00  0.00    +0.028 C 
ATOM     12  C   UNL     1     -35.382  24.693   3.662  0.00  0.00    +0.119 C 
ENDROOT
BRANCH   7  14
ATOM     13  O   UNL     1     -40.282  26.867   2.394  0.00  0.00    -0.245 OA
ATOM     14  C   UNL     1     -40.096  25.916   3.132  0.00  0.00    +0.342 C 
BRANCH  14  15
ATOM     15  O   UNL     1     -40.804  25.631   4.245  0.00  0.00    -0.477 OA
ATOM     16  H   UNL     1     -41.636  26.036   4.387  0.00  0.00    +0.295 HD
ENDBRANCH  14  15
ENDBRANCH   7  14
BRANCH  10  17
ATOM     17  C   UNL     1     -34.848  20.132   1.868  0.00  0.00    +0.035 C 
ATOM     18  C   UNL     1     -33.854  20.273   0.961  0.00  0.00    +0.040 C 
BRANCH  18  20
ATOM     19  O   UNL     1     -31.554  19.878   0.294  0.00  0.00    -0.433 OA
ATOM     20  C   UNL     1     -32.658  19.418   0.872  0.00  0.00    +0.148 C 
ATOM     21  C   UNL     1     -32.566  18.163   1.336  0.00  0.00    +0.043 C 
ATOM     22  C   UNL     1     -30.670  18.851   0.384  0.00  0.00    +0.289 C 
ATOM     23  C   UNL     1     -31.244  17.773   1.016  0.00  0.00    +0.066 C 
BRANCH  22  26
ATOM     24  O   UNL     1     -28.534  18.179  -0.152  0.00  0.00    -0.123 OA
ATOM     25  O   UNL     1     -29.153  20.225  -0.671  0.00  0.00    -0.123 OA
ATOM     26  N   UNL     1     -29.409  19.093  -0.165  0.00  0.00    +0.093 N 
ENDBRANCH  22  26
ENDBRANCH  18  20
ENDBRANCH  10  17
TORSDOF 5
ENDMDL
MODEL 9
REMARK VINA RESULT:      -6.1      6.688      8.982
REMARK  Name = 5284418
REMARK  5 active torsions:
REMARK  status: ('A' for Active; 'I' for Inactive)
REMARK    1  A    between atoms: C_7  and  C_14
REMARK    2  A    between atoms: C_10  and  C_17
REMARK    3  A    between atoms: C_14  and  O_15
REMARK    4  A    between atoms: C_18  and  C_20
REMARK    5  A    between atoms: C_22  and  N_26
REMARK                            x       y       z     vdW  Elec       q    Type
REMARK                         _______ _______ _______ _____ _____    ______ ____
ROOT
ATOM      1  O   UNL     1     -37.704  25.732   3.755  0.00  0.00    -0.290 OA
ATOM      2  N   UNL     1     -39.373  22.655   1.687  0.00  0.00    -0.262 N 
ATOM      3  N   UNL     1     -37.309  21.399   1.817  0.00  0.00    -0.390 NA
ATOM      4  C   UNL     1     -38.023  22.521   2.102  0.00  0.00    +0.175 C 
ATOM      5  C   UNL     1     -37.431  23.576   2.818  0.00  0.00    +0.151 C 
ATOM      6  C   UNL     1     -38.205  24.804   3.132  0.00  0.00    +0.192 C 
ATOM      7  C   UNL     1     -39.611  24.856   2.659  0.00  0.00    +0.126 C 
ATOM      8  C   UNL     1     -40.082  23.800   1.986  0.00  0.00    +0.076 C 
ATOM      9  C   UNL     1     -36.103  23.472   3.239  0.00  0.00    -0.008 C 
ATOM     10  C   UNL     1     -36.025  21.326   2.238  0.00  0.00    +0.132 C 
ATOM     11  C   UNL     1     -35.383  22.324   2.944  0.00  0.00    +0.028 C 
ATOM     12  C   UNL     1     -39.937  21.531   0.950  0.00  0.00    +0.119 C 
ENDROOT
BRANCH   7  14
ATOM     13  O   UNL     1     -40.828  26.800   2.035  0.00  0.00    -0.245 OA
ATOM     14  C   UNL     1     -40.501  25.994   2.888  0.00  0.00    +0.342 C 
BRANCH  14  15
ATOM     15  O   UNL     1     -40.898  26.007   4.178  0.00  0.00    -0.477 OA
ATOM     16  H   UNL     1     -40.649  26.715   4.738  0.00  0.00    +0.295 HD
ENDBRANCH  14  15
ENDBRANCH   7  14
BRANCH  10  17
ATOM     17  C   UNL     1     -35.317  20.101   1.903  0.00  0.00    +0.035 C 
ATOM     18  C   UNL     1     -34.146  20.037   1.226  0.00  0.00    +0.040 C 
BRANCH  18  20
ATOM     19  O   UNL     1     -34.072  17.757   0.399  0.00  0.00    -0.433 OA
ATOM     20  C   UNL     1     -33.419  18.797   0.903  0.00  0.00    +0.148 C 
ATOM     21  C   UNL     1     -32.103  18.602   1.076  0.00  0.00    +0.043 C 
ATOM     22  C   UNL     1     -33.117  16.806   0.226  0.00  0.00    +0.289 C 
ATOM     23  C   UNL     1     -31.888  17.277   0.628  0.00  0.00    +0.066 C 
BRANCH  22  26
ATOM     24  O   UNL     1     -32.729  14.782  -0.800  0.00  0.00    -0.123 OA
ATOM     25  O   UNL     1     -34.798  15.318  -0.282  0.00  0.00    -0.123 OA
ATOM     26  N   UNL     1     -33.563  15.594  -0.304  0.00  0.00    +0.093 N 
ENDBRANCH  22  26
ENDBRANCH  18  20
ENDBRANCH  10  17
TORSDOF 5
ENDMDL
