MODEL 1
REMARK VINA RESULT:      -6.8      0.000      0.000
REMARK  Name = 196160
REMARK  8 active torsions:
REMARK  status: ('A' for Active; 'I' for Inactive)
REMARK    1  A    between atoms: C_2  and  O_18
REMARK    2  A    between atoms: C_4  and  N_8
REMARK    3  A    between atoms: C_5  and  C_17
REMARK    4  A    between atoms: O_18  and  P_19
REMARK    5  A    between atoms: P_19  and  O_21
REMARK    6  A    between atoms: P_19  and  O_23
REMARK    7  A    between atoms: O_23  and  C_24
REMARK    8  A    between atoms: C_29  and  N_32
REMARK                            x       y       z     vdW  Elec       q    Type
REMARK                         _______ _______ _______ _____ _____    ______ ____
ROOT
ATOM      1  O   UNL     1     -36.741  24.316   3.395  0.00  0.00    -0.336 OA
ATOM      2  C   UNL     1     -35.334  22.546   2.678  0.00  0.00    +0.160 C 
ATOM      3  C   UNL     1     -34.793  23.838   2.111  0.00  0.00    +0.084 C 
ATOM      4  C   UNL     1     -35.964  24.791   2.286  0.00  0.00    +0.202 C 
ATOM      5  C   UNL     1     -36.256  23.018   3.794  0.00  0.00    +0.161 C 
ENDROOT
BRANCH   4   8
ATOM      6  O   UNL     1     -37.481  27.118   1.662  0.00  0.00    -0.252 OA
ATOM      7  O   UNL     1     -34.220  29.896   3.334  0.00  0.00    -0.270 OA
ATOM      8  N   UNL     1     -35.552  26.140   2.540  0.00  0.00    -0.219 N 
ATOM      9  N   UNL     1     -35.847  28.492   2.499  0.00  0.00    -0.236 N 
ATOM     10  C   UNL     1     -34.316  26.353   3.137  0.00  0.00    +0.071 C 
ATOM     11  C   UNL     1     -36.376  27.233   2.194  0.00  0.00    +0.315 C 
ATOM     12  C   UNL     1     -33.813  27.560   3.428  0.00  0.00    +0.047 C 
ATOM     13  C   UNL     1     -34.623  28.761   3.094  0.00  0.00    +0.250 C 
ATOM     14  C   UNL     1     -32.481  27.768   4.071  0.00  0.00    +0.037 C 
ATOM     15  H   UNL     1     -36.404  29.271   2.266  0.00  0.00    +0.159 HD
ENDBRANCH   4   8
BRANCH   5  17
ATOM     16 CL   UNL     1     -35.171  21.585   5.824  0.00  0.00    -0.111 Cl
ATOM     17  C   UNL     1     -35.538  23.176   5.128  0.00  0.00    +0.127 C 
ENDBRANCH   5  17
BRANCH   2  18
ATOM     18  O   UNL     1     -36.090  21.865   1.679  0.00  0.00    -0.264 OA
BRANCH  18  19
ATOM     19  P   UNL     1     -35.980  20.253   1.530  0.00  0.00    +0.531 P 
ATOM     20  O   UNL     1     -36.279  19.716   0.159  0.00  0.00    -0.215 OA
BRANCH  19  21
ATOM     21  O   UNL     1     -36.978  19.691   2.675  0.00  0.00    -0.293 OA
ATOM     22  H   UNL     1     -36.462  19.422   3.452  0.00  0.00    +0.223 HD
ENDBRANCH  19  21
BRANCH  19  23
ATOM     23  O   UNL     1     -34.522  19.869   2.108  0.00  0.00    -0.403 OA
BRANCH  23  24
ATOM     24  C   UNL     1     -33.429  19.564   1.342  0.00  0.00    +0.149 C 
ATOM     25  C   UNL     1     -32.840  18.308   1.450  0.00  0.00    +0.039 C 
ATOM     26  C   UNL     1     -32.919  20.511   0.460  0.00  0.00    +0.039 C 
ATOM     27  C   UNL     1     -31.728  17.998   0.669  0.00  0.00    +0.027 C 
ATOM     28  C   UNL     1     -31.806  20.199  -0.320  0.00  0.00    +0.027 C 
ATOM     29  C   UNL     1     -31.210  18.943  -0.216  0.00  0.00    +0.143 C 
BRANCH  29  32
ATOM     30  O   UNL     1     -29.177  17.899  -0.527  0.00  0.00    -0.126 OA
ATOM     31  O   UNL     1     -30.007  19.084  -2.178  0.00  0.00    -0.126 OA
ATOM     32  N   UNL     1     -30.077  18.626  -1.011  0.00  0.00    +0.058 N 
ENDBRANCH  29  32
ENDBRANCH  23  24
ENDBRANCH  19  23
ENDBRANCH  18  19
ENDBRANCH   2  18
TORSDOF 8
ENDMDL
MODEL 2
REMARK VINA RESULT:      -6.8      1.553      1.768
REMARK  Name = 196160
REMARK  8 active torsions:
REMARK  status: ('A' for Active; 'I' for Inactive)
REMARK    1  A    between atoms: C_2  and  O_18
REMARK    2  A    between atoms: C_4  and  N_8
REMARK    3  A    between atoms: C_5  and  C_17
REMARK    4  A    between atoms: O_18  and  P_19
REMARK    5  A    between atoms: P_19  and  O_21
REMARK    6  A    between atoms: P_19  and  O_23
REMARK    7  A    between atoms: O_23  and  C_24
REMARK    8  A    between atoms: C_29  and  N_32
REMARK                            x       y       z     vdW  Elec       q    Type
REMARK                         _______ _______ _______ _____ _____    ______ ____
ROOT
ATOM      1  O   UNL     1     -36.789  24.508   3.976  0.00  0.00    -0.336 OA
ATOM      2  C   UNL     1     -35.853  22.670   2.804  0.00  0.00    +0.160 C 
ATOM      3  C   UNL     1     -35.425  23.942   2.108  0.00  0.00    +0.084 C 
ATOM      4  C   UNL     1     -36.388  24.970   2.678  0.00  0.00    +0.202 C 
ATOM      5  C   UNL     1     -36.309  23.162   4.171  0.00  0.00    +0.161 C 
ENDROOT
BRANCH   4   8
ATOM      6  O   UNL     1     -37.521  27.378   1.666  0.00  0.00    -0.252 OA
ATOM      7  O   UNL     1     -34.002  29.889   3.235  0.00  0.00    -0.270 OA
ATOM      8  N   UNL     1     -35.804  26.273   2.798  0.00  0.00    -0.219 N 
ATOM      9  N   UNL     1     -35.760  28.618   2.453  0.00  0.00    -0.236 N 
ATOM     10  C   UNL     1     -34.588  26.395   3.458  0.00  0.00    +0.071 C 
ATOM     11  C   UNL     1     -36.443  27.412   2.262  0.00  0.00    +0.315 C 
ATOM     12  C   UNL     1     -33.937  27.552   3.639  0.00  0.00    +0.047 C 
ATOM     13  C   UNL     1     -34.547  28.797   3.102  0.00  0.00    +0.250 C 
ATOM     14  C   UNL     1     -32.628  27.661   4.352  0.00  0.00    +0.037 C 
ATOM     15  H   UNL     1     -36.186  29.428   2.087  0.00  0.00    +0.159 HD
ENDBRANCH   4   8
BRANCH   5  17
ATOM     16 CL   UNL     1     -35.271  21.818   6.285  0.00  0.00    -0.111 Cl
ATOM     17  C   UNL     1     -35.178  23.212   5.190  0.00  0.00    +0.127 C 
ENDBRANCH   5  17
BRANCH   2  18
ATOM     18  O   UNL     1     -36.952  22.088   2.106  0.00  0.00    -0.264 OA
BRANCH  18  19
ATOM     19  P   UNL     1     -36.791  20.640   1.393  0.00  0.00    +0.531 P 
ATOM     20  O   UNL     1     -37.826  20.323   0.352  0.00  0.00    -0.215 OA
BRANCH  19  21
ATOM     21  O   UNL     1     -36.782  19.598   2.634  0.00  0.00    -0.293 OA
ATOM     22  H   UNL     1     -36.295  19.985   3.378  0.00  0.00    +0.223 HD
ENDBRANCH  19  21
BRANCH  19  23
ATOM     23  O   UNL     1     -35.263  20.587   0.873  0.00  0.00    -0.403 OA
BRANCH  23  24
ATOM     24  C   UNL     1     -34.545  19.440   0.661  0.00  0.00    +0.149 C 
ATOM     25  C   UNL     1     -33.443  19.160   1.462  0.00  0.00    +0.039 C 
ATOM     26  C   UNL     1     -34.927  18.564  -0.350  0.00  0.00    +0.039 C 
ATOM     27  C   UNL     1     -32.712  17.991   1.247  0.00  0.00    +0.027 C 
ATOM     28  C   UNL     1     -34.196  17.396  -0.564  0.00  0.00    +0.027 C 
ATOM     29  C   UNL     1     -33.088  17.110   0.234  0.00  0.00    +0.143 C 
BRANCH  29  32
ATOM     30  O   UNL     1     -31.148  15.872   0.392  0.00  0.00    -0.126 OA
ATOM     31  O   UNL     1     -32.904  14.949  -0.550  0.00  0.00    -0.126 OA
ATOM     32  N   UNL     1     -32.344  15.920   0.015  0.00  0.00    +0.058 N 
ENDBRANCH  29  32
ENDBRANCH  23  24
ENDBRANCH  19  23
ENDBRANCH  18  19
ENDBRANCH   2  18
TORSDOF 8
ENDMDL
MODEL 3
REMARK VINA RESULT:      -6.6      4.068      9.578
REMARK  Name = 196160
REMARK  8 active torsions:
REMARK  status: ('A' for Active; 'I' for Inactive)
REMARK    1  A    between atoms: C_2  and  O_18
REMARK    2  A    between atoms: C_4  and  N_8
REMARK    3  A    between atoms: C_5  and  C_17
REMARK    4  A    between atoms: O_18  and  P_19
REMARK    5  A    between atoms: P_19  and  O_21
REMARK    6  A    between atoms: P_19  and  O_23
REMARK    7  A    between atoms: O_23  and  C_24
REMARK    8  A    between atoms: C_29  and  N_32
REMARK                            x       y       z     vdW  Elec       q    Type
REMARK                         _______ _______ _______ _____ _____    ______ ____
ROOT
ATOM      1  O   UNL     1     -35.920  25.770   4.252  0.00  0.00    -0.336 OA
ATOM      2  C   UNL     1     -33.920  26.978   3.845  0.00  0.00    +0.160 C 
ATOM      3  C   UNL     1     -33.595  25.502   3.809  0.00  0.00    +0.084 C 
ATOM      4  C   UNL     1     -34.815  24.881   4.471  0.00  0.00    +0.202 C 
ATOM      5  C   UNL     1     -35.433  27.003   3.684  0.00  0.00    +0.161 C 
ENDROOT
BRANCH   4   8
ATOM      6  O   UNL     1     -35.858  22.704   5.979  0.00  0.00    -0.252 OA
ATOM      7  O   UNL     1     -35.991  19.983   2.274  0.00  0.00    -0.270 OA
ATOM      8  N   UNL     1     -35.136  23.588   3.943  0.00  0.00    -0.219 N 
ATOM      9  N   UNL     1     -35.919  21.357   4.123  0.00  0.00    -0.236 N 
ATOM     10  C   UNL     1     -34.929  23.355   2.589  0.00  0.00    +0.071 C 
ATOM     11  C   UNL     1     -35.650  22.568   4.772  0.00  0.00    +0.315 C 
ATOM     12  C   UNL     1     -35.187  22.195   1.972  0.00  0.00    +0.047 C 
ATOM     13  C   UNL     1     -35.732  21.072   2.778  0.00  0.00    +0.250 C 
ATOM     14  C   UNL     1     -34.958  21.966   0.513  0.00  0.00    +0.037 C 
ATOM     15  H   UNL     1     -36.278  20.630   4.682  0.00  0.00    +0.159 HD
ENDBRANCH   4   8
BRANCH   5  17
ATOM     16 CL   UNL     1     -37.311  26.038   1.981  0.00  0.00    -0.111 Cl
ATOM     17  C   UNL     1     -35.873  27.051   2.226  0.00  0.00    +0.127 C 
ENDBRANCH   5  17
BRANCH   2  18
ATOM     18  O   UNL     1     -33.558  27.518   5.114  0.00  0.00    -0.264 OA
BRANCH  18  19
ATOM     19  P   UNL     1     -32.063  28.102   5.356  0.00  0.00    +0.531 P 
ATOM     20  O   UNL     1     -31.072  27.790   4.272  0.00  0.00    -0.215 OA
BRANCH  19  21
ATOM     21  O   UNL     1     -31.647  27.507   6.804  0.00  0.00    -0.293 OA
ATOM     22  H   UNL     1     -30.776  27.850   7.057  0.00  0.00    +0.223 HD
ENDBRANCH  19  21
BRANCH  19  23
ATOM     23  O   UNL     1     -32.264  29.675   5.663  0.00  0.00    -0.403 OA
BRANCH  23  24
ATOM     24  C   UNL     1     -32.186  30.673   4.728  0.00  0.00    +0.149 C 
ATOM     25  C   UNL     1     -31.104  31.547   4.742  0.00  0.00    +0.039 C 
ATOM     26  C   UNL     1     -33.188  30.803   3.772  0.00  0.00    +0.039 C 
ATOM     27  C   UNL     1     -31.024  32.562   3.790  0.00  0.00    +0.027 C 
ATOM     28  C   UNL     1     -33.107  31.819   2.821  0.00  0.00    +0.027 C 
ATOM     29  C   UNL     1     -32.025  32.699   2.829  0.00  0.00    +0.143 C 
BRANCH  29  32
ATOM     30  O   UNL     1     -31.193  34.715   2.078  0.00  0.00    -0.126 OA
ATOM     31  O   UNL     1     -32.626  33.638   0.811  0.00  0.00    -0.126 OA
ATOM     32  N   UNL     1     -31.944  33.733   1.860  0.00  0.00    +0.058 N 
ENDBRANCH  29  32
ENDBRANCH  23  24
ENDBRANCH  19  23
ENDBRANCH  18  19
ENDBRANCH   2  18
TORSDOF 8
ENDMDL
MODEL 4
REMARK VINA RESULT:      -6.5      2.792      8.473
REMARK  Name = 196160
REMARK  8 active torsions:
REMARK  status: ('A' for Active; 'I' for Inactive)
REMARK    1  A    between atoms: C_2  and  O_18
REMARK    2  A    between atoms: C_4  and  N_8
REMARK    3  A    between atoms: C_5  and  C_17
REMARK    4  A    between atoms: O_18  and  P_19
REMARK    5  A    between atoms: P_19  and  O_21
REMARK    6  A    between atoms: P_19  and  O_23
REMARK    7  A    between atoms: O_23  and  C_24
REMARK    8  A    between atoms: C_29  and  N_32
REMARK                            x       y       z     vdW  Elec       q    Type
REMARK                         _______ _______ _______ _____ _____    ______ ____
ROOT
ATOM      1  O   UNL     1     -35.456  20.075  -0.532  0.00  0.00    -0.336 OA
ATOM      2  C   UNL     1     -35.642  21.502   1.354  0.00  0.00    +0.160 C 
ATOM      3  C   UNL     1     -35.072  20.181   1.816  0.00  0.00    +0.084 C 
ATOM      4  C   UNL     1     -35.384  19.261   0.648  0.00  0.00    +0.202 C 
ATOM      5  C   UNL     1     -35.420  21.466  -0.152  0.00  0.00    +0.161 C 
ENDROOT
BRANCH   4   8
ATOM      6  O   UNL     1     -35.862  16.684  -0.465  0.00  0.00    -0.252 OA
ATOM      7  O   UNL     1     -31.449  15.478   0.003  0.00  0.00    -0.270 OA
ATOM      8  N   UNL     1     -34.391  18.243   0.460  0.00  0.00    -0.219 N 
ATOM      9  N   UNL     1     -33.659  16.096  -0.225  0.00  0.00    -0.236 N 
ATOM     10  C   UNL     1     -33.085  18.514   0.845  0.00  0.00    +0.071 C 
ATOM     11  C   UNL     1     -34.726  16.992  -0.101  0.00  0.00    +0.315 C 
ATOM     12  C   UNL     1     -32.066  17.653   0.725  0.00  0.00    +0.047 C 
ATOM     13  C   UNL     1     -32.338  16.314   0.141  0.00  0.00    +0.250 C 
ATOM     14  C   UNL     1     -30.666  17.965   1.145  0.00  0.00    +0.037 C 
ATOM     15  H   UNL     1     -33.867  15.215  -0.614  0.00  0.00    +0.159 HD
ENDBRANCH   4   8
BRANCH   5  17
ATOM     16 CL   UNL     1     -33.645  23.428   0.443  0.00  0.00    -0.111 Cl
ATOM     17  C   UNL     1     -34.066  22.029  -0.565  0.00  0.00    +0.127 C 
ENDBRANCH   5  17
BRANCH   2  18
ATOM     18  O   UNL     1     -37.039  21.547   1.637  0.00  0.00    -0.264 OA
BRANCH  18  19
ATOM     19  P   UNL     1     -37.686  22.854   2.349  0.00  0.00    +0.531 P 
ATOM     20  O   UNL     1     -39.186  22.915   2.328  0.00  0.00    -0.215 OA
BRANCH  19  21
ATOM     21  O   UNL     1     -36.977  24.097   1.591  0.00  0.00    -0.293 OA
ATOM     22  H   UNL     1     -37.645  24.763   1.366  0.00  0.00    +0.223 HD
ENDBRANCH  19  21
BRANCH  19  23
ATOM     23  O   UNL     1     -37.023  22.910   3.821  0.00  0.00    -0.403 OA
BRANCH  23  24
ATOM     24  C   UNL     1     -36.156  23.878   4.255  0.00  0.00    +0.149 C 
ATOM     25  C   UNL     1     -34.785  23.677   4.135  0.00  0.00    +0.039 C 
ATOM     26  C   UNL     1     -36.654  25.053   4.809  0.00  0.00    +0.039 C 
ATOM     27  C   UNL     1     -33.902  24.663   4.576  0.00  0.00    +0.027 C 
ATOM     28  C   UNL     1     -35.770  26.037   5.249  0.00  0.00    +0.027 C 
ATOM     29  C   UNL     1     -34.394  25.842   5.133  0.00  0.00    +0.143 C 
BRANCH  29  32
ATOM     30  O   UNL     1     -32.924  26.700   6.690  0.00  0.00    -0.126 OA
ATOM     31  O   UNL     1     -33.296  27.851   4.857  0.00  0.00    -0.126 OA
ATOM     32  N   UNL     1     -33.495  26.846   5.582  0.00  0.00    +0.058 N 
ENDBRANCH  29  32
ENDBRANCH  23  24
ENDBRANCH  19  23
ENDBRANCH  18  19
ENDBRANCH   2  18
TORSDOF 8
ENDMDL
MODEL 5
REMARK VINA RESULT:      -6.3      2.723      8.053
REMARK  Name = 196160
REMARK  8 active torsions:
REMARK  status: ('A' for Active; 'I' for Inactive)
REMARK    1  A    between atoms: C_2  and  O_18
REMARK    2  A    between atoms: C_4  and  N_8
REMARK    3  A    between atoms: C_5  and  C_17
REMARK    4  A    between atoms: O_18  and  P_19
REMARK    5  A    between atoms: P_19  and  O_21
REMARK    6  A    between atoms: P_19  and  O_23
REMARK    7  A    between atoms: O_23  and  C_24
REMARK    8  A    between atoms: C_29  and  N_32
REMARK                            x       y       z     vdW  Elec       q    Type
REMARK                         _______ _______ _______ _____ _____    ______ ____
ROOT
ATOM      1  O   UNL     1     -34.674  19.134   0.629  0.00  0.00    -0.336 OA
ATOM      2  C   UNL     1     -35.718  21.260   0.742  0.00  0.00    +0.160 C 
ATOM      3  C   UNL     1     -34.225  21.460   0.873  0.00  0.00    +0.084 C 
ATOM      4  C   UNL     1     -33.733  20.058   1.194  0.00  0.00    +0.202 C 
ATOM      5  C   UNL     1     -35.829  19.858   0.160  0.00  0.00    +0.161 C 
ENDROOT
BRANCH   4   8
ATOM      6  O   UNL     1     -32.184  17.731   1.733  0.00  0.00    -0.252 OA
ATOM      7  O   UNL     1     -28.741  19.201  -0.939  0.00  0.00    -0.270 OA
ATOM      8  N   UNL     1     -32.429  19.791   0.662  0.00  0.00    -0.219 N 
ATOM      9  N   UNL     1     -30.474  18.476   0.398  0.00  0.00    -0.236 N 
ATOM     10  C   UNL     1     -31.855  20.729  -0.187  0.00  0.00    +0.071 C 
ATOM     11  C   UNL     1     -31.736  18.605   0.988  0.00  0.00    +0.315 C 
ATOM     12  C   UNL     1     -30.647  20.602  -0.750  0.00  0.00    +0.047 C 
ATOM     13  C   UNL     1     -29.855  19.379  -0.455  0.00  0.00    +0.250 C 
ATOM     14  C   UNL     1     -30.048  21.624  -1.661  0.00  0.00    +0.037 C 
ATOM     15  H   UNL     1     -29.971  17.657   0.611  0.00  0.00    +0.159 HD
ENDBRANCH   4   8
BRANCH   5  17
ATOM     16 CL   UNL     1     -34.628  18.651  -1.951  0.00  0.00    -0.111 Cl
ATOM     17  C   UNL     1     -35.802  19.845  -1.363  0.00  0.00    +0.127 C 
ENDBRANCH   5  17
BRANCH   2  18
ATOM     18  O   UNL     1     -36.322  21.299   2.033  0.00  0.00    -0.264 OA
BRANCH  18  19
ATOM     19  P   UNL     1     -37.424  22.437   2.386  0.00  0.00    +0.531 P 
ATOM     20  O   UNL     1     -38.850  22.049   2.120  0.00  0.00    -0.215 OA
BRANCH  19  21
ATOM     21  O   UNL     1     -36.934  23.724   1.533  0.00  0.00    -0.293 OA
ATOM     22  H   UNL     1     -37.699  24.139   1.103  0.00  0.00    +0.223 HD
ENDBRANCH  19  21
BRANCH  19  23
ATOM     23  O   UNL     1     -37.110  22.878   3.907  0.00  0.00    -0.403 OA
BRANCH  23  24
ATOM     24  C   UNL     1     -36.219  23.851   4.275  0.00  0.00    +0.149 C 
ATOM     25  C   UNL     1     -36.685  25.037   4.831  0.00  0.00    +0.039 C 
ATOM     26  C   UNL     1     -34.856  23.643   4.091  0.00  0.00    +0.039 C 
ATOM     27  C   UNL     1     -35.778  26.027   5.207  0.00  0.00    +0.027 C 
ATOM     28  C   UNL     1     -33.950  24.634   4.466  0.00  0.00    +0.027 C 
ATOM     29  C   UNL     1     -34.411  25.827   5.024  0.00  0.00    +0.143 C 
BRANCH  29  32
ATOM     30  O   UNL     1     -33.250  27.777   4.611  0.00  0.00    -0.126 OA
ATOM     31  O   UNL     1     -32.931  26.756   6.528  0.00  0.00    -0.126 OA
ATOM     32  N   UNL     1     -33.487  26.835   5.406  0.00  0.00    +0.058 N 
ENDBRANCH  29  32
ENDBRANCH  23  24
ENDBRANCH  19  23
ENDBRANCH  18  19
ENDBRANCH   2  18
TORSDOF 8
ENDMDL
MODEL 6
REMARK VINA RESULT:      -6.2      1.776      2.035
REMARK  Name = 196160
REMARK  8 active torsions:
REMARK  status: ('A' for Active; 'I' for Inactive)
REMARK    1  A    between atoms: C_2  and  O_18
REMARK    2  A    between atoms: C_4  and  N_8
REMARK    3  A    between atoms: C_5  and  C_17
REMARK    4  A    between atoms: O_18  and  P_19
REMARK    5  A    between atoms: P_19  and  O_21
REMARK    6  A    between atoms: P_19  and  O_23
REMARK    7  A    between atoms: O_23  and  C_24
REMARK    8  A    between atoms: C_29  and  N_32
REMARK                            x       y       z     vdW  Elec       q    Type
REMARK                         _______ _______ _______ _____ _____    ______ ____
ROOT
ATOM      1  O   UNL     1     -36.330  24.597   1.437  0.00  0.00    -0.336 OA
ATOM      2  C   UNL     1     -36.359  22.356   2.213  0.00  0.00    +0.160 C 
ATOM      3  C   UNL     1     -35.105  23.020   2.735  0.00  0.00    +0.084 C 
ATOM      4  C   UNL     1     -35.002  24.259   1.861  0.00  0.00    +0.202 C 
ATOM      5  C   UNL     1     -37.232  23.536   1.810  0.00  0.00    +0.161 C 
ENDROOT
BRANCH   4   8
ATOM      6  O   UNL     1     -33.925  26.580   0.612  0.00  0.00    -0.252 OA
ATOM      7  O   UNL     1     -32.829  28.460   4.663  0.00  0.00    -0.270 OA
ATOM      8  N   UNL     1     -34.426  25.378   2.549  0.00  0.00    -0.219 N 
ATOM      9  N   UNL     1     -33.383  27.505   2.639  0.00  0.00    -0.236 N 
ATOM     10  C   UNL     1     -34.378  25.349   3.937  0.00  0.00    +0.071 C 
ATOM     11  C   UNL     1     -33.916  26.487   1.840  0.00  0.00    +0.315 C 
ATOM     12  C   UNL     1     -33.868  26.326   4.698  0.00  0.00    +0.047 C 
ATOM     13  C   UNL     1     -33.311  27.528   4.024  0.00  0.00    +0.250 C 
ATOM     14  C   UNL     1     -33.827  26.275   6.191  0.00  0.00    +0.037 C 
ATOM     15  H   UNL     1     -33.021  28.290   2.167  0.00  0.00    +0.159 HD
ENDBRANCH   4   8
BRANCH   5  17
ATOM     16 CL   UNL     1     -38.044  25.815   3.035  0.00  0.00    -0.111 Cl
ATOM     17  C   UNL     1     -38.105  24.043   2.951  0.00  0.00    +0.127 C 
ENDBRANCH   5  17
BRANCH   2  18
ATOM     18  O   UNL     1     -36.043  21.571   1.065  0.00  0.00    -0.264 OA
BRANCH  18  19
ATOM     19  P   UNL     1     -35.866  19.964   1.198  0.00  0.00    +0.531 P 
ATOM     20  O   UNL     1     -36.051  19.194  -0.078  0.00  0.00    -0.215 OA
BRANCH  19  21
ATOM     21  O   UNL     1     -36.919  19.555   2.358  0.00  0.00    -0.293 OA
ATOM     22  H   UNL     1     -37.210  18.639   2.224  0.00  0.00    +0.223 HD
ENDBRANCH  19  21
BRANCH  19  23
ATOM     23  O   UNL     1     -34.438  19.750   1.921  0.00  0.00    -0.403 OA
BRANCH  23  24
ATOM     24  C   UNL     1     -33.264  19.471   1.274  0.00  0.00    +0.149 C 
ATOM     25  C   UNL     1     -32.644  18.242   1.471  0.00  0.00    +0.039 C 
ATOM     26  C   UNL     1     -32.703  20.419   0.424  0.00  0.00    +0.039 C 
ATOM     27  C   UNL     1     -31.449  17.957   0.811  0.00  0.00    +0.027 C 
ATOM     28  C   UNL     1     -31.508  20.133  -0.235  0.00  0.00    +0.027 C 
ATOM     29  C   UNL     1     -30.880  18.903  -0.042  0.00  0.00    +0.143 C 
BRANCH  29  32
ATOM     30  O   UNL     1     -29.536  18.954  -1.915  0.00  0.00    -0.126 OA
ATOM     31  O   UNL     1     -28.749  18.024  -0.088  0.00  0.00    -0.126 OA
ATOM     32  N   UNL     1     -29.663  18.613  -0.714  0.00  0.00    +0.058 N 
ENDBRANCH  29  32
ENDBRANCH  23  24
ENDBRANCH  19  23
ENDBRANCH  18  19
ENDBRANCH   2  18
TORSDOF 8
ENDMDL
MODEL 7
REMARK VINA RESULT:      -6.2      2.921      4.031
REMARK  Name = 196160
REMARK  8 active torsions:
REMARK  status: ('A' for Active; 'I' for Inactive)
REMARK    1  A    between atoms: C_2  and  O_18
REMARK    2  A    between atoms: C_4  and  N_8
REMARK    3  A    between atoms: C_5  and  C_17
REMARK    4  A    between atoms: O_18  and  P_19
REMARK    5  A    between atoms: P_19  and  O_21
REMARK    6  A    between atoms: P_19  and  O_23
REMARK    7  A    between atoms: O_23  and  C_24
REMARK    8  A    between atoms: C_29  and  N_32
REMARK                            x       y       z     vdW  Elec       q    Type
REMARK                         _______ _______ _______ _____ _____    ______ ____
ROOT
ATOM      1  O   UNL     1     -32.658  25.848   3.159  0.00  0.00    -0.336 OA
ATOM      2  C   UNL     1     -34.928  25.230   2.862  0.00  0.00    +0.160 C 
ATOM      3  C   UNL     1     -34.867  26.307   3.920  0.00  0.00    +0.084 C 
ATOM      4  C   UNL     1     -33.395  26.313   4.299  0.00  0.00    +0.202 C 
ATOM      5  C   UNL     1     -33.579  25.351   2.167  0.00  0.00    +0.161 C 
ENDROOT
BRANCH   4   8
ATOM      6  O   UNL     1     -32.314  27.006   6.840  0.00  0.00    -0.252 OA
ATOM      7  O   UNL     1     -31.623  31.365   5.546  0.00  0.00    -0.270 OA
ATOM      8  N   UNL     1     -32.921  27.615   4.670  0.00  0.00    -0.219 N 
ATOM      9  N   UNL     1     -31.976  29.176   6.182  0.00  0.00    -0.236 N 
ATOM     10  C   UNL     1     -32.985  28.636   3.730  0.00  0.00    +0.071 C 
ATOM     11  C   UNL     1     -32.401  27.862   5.958  0.00  0.00    +0.315 C 
ATOM     12  C   UNL     1     -32.577  29.892   3.948  0.00  0.00    +0.047 C 
ATOM     13  C   UNL     1     -32.016  30.232   5.282  0.00  0.00    +0.250 C 
ATOM     14  C   UNL     1     -32.654  30.976   2.922  0.00  0.00    +0.037 C 
ATOM     15  H   UNL     1     -31.609  29.374   7.075  0.00  0.00    +0.159 HD
ENDBRANCH   4   8
BRANCH   5  17
ATOM     16 CL   UNL     1     -34.893  25.932  -0.132  0.00  0.00    -0.111 Cl
ATOM     17  C   UNL     1     -33.596  26.340   1.009  0.00  0.00    +0.127 C 
ENDBRANCH   5  17
BRANCH   2  18
ATOM     18  O   UNL     1     -35.040  23.952   3.485  0.00  0.00    -0.264 OA
BRANCH  18  19
ATOM     19  P   UNL     1     -36.499  23.280   3.713  0.00  0.00    +0.531 P 
ATOM     20  O   UNL     1     -37.634  24.253   3.863  0.00  0.00    -0.215 OA
BRANCH  19  21
ATOM     21  O   UNL     1     -36.288  22.329   5.007  0.00  0.00    -0.293 OA
ATOM     22  H   UNL     1     -36.075  22.876   5.779  0.00  0.00    +0.223 HD
ENDBRANCH  19  21
BRANCH  19  23
ATOM     23  O   UNL     1     -36.671  22.214   2.512  0.00  0.00    -0.403 OA
BRANCH  23  24
ATOM     24  C   UNL     1     -35.639  21.580   1.872  0.00  0.00    +0.149 C 
ATOM     25  C   UNL     1     -35.215  20.332   2.319  0.00  0.00    +0.039 C 
ATOM     26  C   UNL     1     -35.027  22.187   0.781  0.00  0.00    +0.039 C 
ATOM     27  C   UNL     1     -34.165  19.686   1.667  0.00  0.00    +0.027 C 
ATOM     28  C   UNL     1     -33.977  21.539   0.130  0.00  0.00    +0.027 C 
ATOM     29  C   UNL     1     -33.546  20.289   0.573  0.00  0.00    +0.143 C 
BRANCH  29  32
ATOM     30  O   UNL     1     -31.369  19.532   0.490  0.00  0.00    -0.126 OA
ATOM     31  O   UNL     1     -32.669  19.166  -1.240  0.00  0.00    -0.126 OA
ATOM     32  N   UNL     1     -32.477  19.631  -0.090  0.00  0.00    +0.058 N 
ENDBRANCH  29  32
ENDBRANCH  23  24
ENDBRANCH  19  23
ENDBRANCH  18  19
ENDBRANCH   2  18
TORSDOF 8
ENDMDL
MODEL 8
REMARK VINA RESULT:      -6.2      4.124      8.793
REMARK  Name = 196160
REMARK  8 active torsions:
REMARK  status: ('A' for Active; 'I' for Inactive)
REMARK    1  A    between atoms: C_2  and  O_18
REMARK    2  A    between atoms: C_4  and  N_8
REMARK    3  A    between atoms: C_5  and  C_17
REMARK    4  A    between atoms: O_18  and  P_19
REMARK    5  A    between atoms: P_19  and  O_21
REMARK    6  A    between atoms: P_19  and  O_23
REMARK    7  A    between atoms: O_23  and  C_24
REMARK    8  A    between atoms: C_29  and  N_32
REMARK                            x       y       z     vdW  Elec       q    Type
REMARK                         _______ _______ _______ _____ _____    ______ ____
ROOT
ATOM      1  O   UNL     1     -36.033  26.537   2.963  0.00  0.00    -0.336 OA
ATOM      2  C   UNL     1     -33.961  27.621   2.567  0.00  0.00    +0.160 C 
ATOM      3  C   UNL     1     -33.675  26.234   3.097  0.00  0.00    +0.084 C 
ATOM      4  C   UNL     1     -35.017  25.821   3.680  0.00  0.00    +0.202 C 
ATOM      5  C   UNL     1     -35.412  27.525   2.116  0.00  0.00    +0.161 C 
ENDROOT
BRANCH   4   8
ATOM      6  O   UNL     1     -36.261  24.209   5.669  0.00  0.00    -0.252 OA
ATOM      7  O   UNL     1     -35.877  20.426   3.082  0.00  0.00    -0.270 OA
ATOM      8  N   UNL     1     -35.262  24.413   3.569  0.00  0.00    -0.219 N 
ATOM      9  N   UNL     1     -36.063  22.330   4.369  0.00  0.00    -0.236 N 
ATOM     10  C   UNL     1     -34.868  23.762   2.407  0.00  0.00    +0.071 C 
ATOM     11  C   UNL     1     -35.887  23.697   4.612  0.00  0.00    +0.315 C 
ATOM     12  C   UNL     1     -35.038  22.453   2.178  0.00  0.00    +0.047 C 
ATOM     13  C   UNL     1     -35.691  21.631   3.230  0.00  0.00    +0.250 C 
ATOM     14  C   UNL     1     -34.608  21.772   0.919  0.00  0.00    +0.037 C 
ATOM     15  H   UNL     1     -36.497  21.808   5.083  0.00  0.00    +0.159 HD
ENDBRANCH   4   8
BRANCH   5  17
ATOM     16 CL   UNL     1     -36.959  25.988   0.505  0.00  0.00    -0.111 Cl
ATOM     17  C   UNL     1     -35.554  27.060   0.673  0.00  0.00    +0.127 C 
ENDBRANCH   5  17
BRANCH   2  18
ATOM     18  O   UNL     1     -33.842  28.571   3.623  0.00  0.00    -0.264 OA
BRANCH  18  19
ATOM     19  P   UNL     1     -33.916  30.160   3.303  0.00  0.00    +0.531 P 
ATOM     20  O   UNL     1     -35.290  30.763   3.378  0.00  0.00    -0.215 OA
BRANCH  19  21
ATOM     21  O   UNL     1     -33.232  30.291   1.841  0.00  0.00    -0.293 OA
ATOM     22  H   UNL     1     -32.324  29.950   1.876  0.00  0.00    +0.223 HD
ENDBRANCH  19  21
BRANCH  19  23
ATOM     23  O   UNL     1     -32.819  30.843   4.272  0.00  0.00    -0.403 OA
BRANCH  23  24
ATOM     24  C   UNL     1     -31.815  30.170   4.917  0.00  0.00    +0.149 C 
ATOM     25  C   UNL     1     -30.792  29.587   4.178  0.00  0.00    +0.039 C 
ATOM     26  C   UNL     1     -31.827  30.078   6.305  0.00  0.00    +0.039 C 
ATOM     27  C   UNL     1     -29.769  28.903   4.834  0.00  0.00    +0.027 C 
ATOM     28  C   UNL     1     -30.804  29.394   6.960  0.00  0.00    +0.027 C 
ATOM     29  C   UNL     1     -29.775  28.806   6.225  0.00  0.00    +0.143 C 
BRANCH  29  32
ATOM     30  O   UNL     1     -28.545  26.897   6.630  0.00  0.00    -0.126 OA
ATOM     31  O   UNL     1     -28.031  28.726   7.731  0.00  0.00    -0.126 OA
ATOM     32  N   UNL     1     -28.734  28.110   6.894  0.00  0.00    +0.058 N 
ENDBRANCH  29  32
ENDBRANCH  23  24
ENDBRANCH  19  23
ENDBRANCH  18  19
ENDBRANCH   2  18
TORSDOF 8
ENDMDL
MODEL 9
REMARK VINA RESULT:      -6.2      2.784      3.618
REMARK  Name = 196160
REMARK  8 active torsions:
REMARK  status: ('A' for Active; 'I' for Inactive)
REMARK    1  A    between atoms: C_2  and  O_18
REMARK    2  A    between atoms: C_4  and  N_8
REMARK    3  A    between atoms: C_5  and  C_17
REMARK    4  A    between atoms: O_18  and  P_19
REMARK    5  A    between atoms: P_19  and  O_21
REMARK    6  A    between atoms: P_19  and  O_23
REMARK    7  A    between atoms: O_23  and  C_24
REMARK    8  A    between atoms: C_29  and  N_32
REMARK                            x       y       z     vdW  Elec       q    Type
REMARK                         _______ _______ _______ _____ _____    ______ ____
ROOT
ATOM      1  O   UNL     1     -36.822  22.279   0.942  0.00  0.00    -0.336 OA
ATOM      2  C   UNL     1     -36.922  19.911   1.025  0.00  0.00    +0.160 C 
ATOM      3  C   UNL     1     -35.855  20.372   1.991  0.00  0.00    +0.084 C 
ATOM      4  C   UNL     1     -35.612  21.806   1.552  0.00  0.00    +0.202 C 
ATOM      5  C   UNL     1     -37.734  21.175   0.779  0.00  0.00    +0.161 C 
ENDROOT
BRANCH   4   8
ATOM      6  O   UNL     1     -34.523  24.424   1.290  0.00  0.00    -0.252 OA
ATOM      7  O   UNL     1     -34.330  24.982   5.851  0.00  0.00    -0.270 OA
ATOM      8  N   UNL     1     -35.262  22.670   2.642  0.00  0.00    -0.219 N 
ATOM      9  N   UNL     1     -34.432  24.689   3.566  0.00  0.00    -0.236 N 
ATOM     10  C   UNL     1     -35.462  22.214   3.938  0.00  0.00    +0.071 C 
ATOM     11  C   UNL     1     -34.727  23.956   2.411  0.00  0.00    +0.315 C 
ATOM     12  C   UNL     1     -35.179  22.919   5.041  0.00  0.00    +0.047 C 
ATOM     13  C   UNL     1     -34.611  24.284   4.881  0.00  0.00    +0.250 C 
ATOM     14  C   UNL     1     -35.402  22.410   6.428  0.00  0.00    +0.037 C 
ATOM     15  H   UNL     1     -34.056  25.590   3.431  0.00  0.00    +0.159 HD
ENDBRANCH   4   8
BRANCH   5  17
ATOM     16 CL   UNL     1     -38.884  23.015   2.405  0.00  0.00    -0.111 Cl
ATOM     17  C   UNL     1     -38.869  21.354   1.779  0.00  0.00    +0.127 C 
ENDBRANCH   5  17
BRANCH   2  18
ATOM     18  O   UNL     1     -36.315  19.480  -0.191  0.00  0.00    -0.264 OA
BRANCH  18  19
ATOM     19  P   UNL     1     -36.405  17.923  -0.642  0.00  0.00    +0.531 P 
ATOM     20  O   UNL     1     -36.703  17.697  -2.096  0.00  0.00    -0.215 OA
BRANCH  19  21
ATOM     21  O   UNL     1     -37.522  17.299   0.352  0.00  0.00    -0.293 OA
ATOM     22  H   UNL     1     -37.314  17.544   1.268  0.00  0.00    +0.223 HD
ENDBRANCH  19  21
BRANCH  19  23
ATOM     23  O   UNL     1     -35.038  17.245  -0.113  0.00  0.00    -0.403 OA
BRANCH  23  24
ATOM     24  C   UNL     1     -33.803  17.835  -0.154  0.00  0.00    +0.149 C 
ATOM     25  C   UNL     1     -33.094  18.031   1.027  0.00  0.00    +0.039 C 
ATOM     26  C   UNL     1     -33.267  18.230  -1.375  0.00  0.00    +0.039 C 
ATOM     27  C   UNL     1     -31.836  18.631   0.985  0.00  0.00    +0.027 C 
ATOM     28  C   UNL     1     -32.009  18.829  -1.416  0.00  0.00    +0.027 C 
ATOM     29  C   UNL     1     -31.293  19.030  -0.235  0.00  0.00    +0.143 C 
BRANCH  29  32
ATOM     30  O   UNL     1     -29.017  18.997   0.136  0.00  0.00    -0.126 OA
ATOM     31  O   UNL     1     -29.909  20.807  -0.728  0.00  0.00    -0.126 OA
ATOM     32  N   UNL     1     -30.012  19.640  -0.278  0.00  0.00    +0.058 N 
ENDBRANCH  29  32
ENDBRANCH  23  24
ENDBRANCH  19  23
ENDBRANCH  18  19
ENDBRANCH   2  18
TORSDOF 8
ENDMDL
