MODEL 1
REMARK VINA RESULT:      -6.3      0.000      0.000
REMARK  Name = 5735538
REMARK  6 active torsions:
REMARK  status: ('A' for Active; 'I' for Inactive)
REMARK    1  A    between atoms: S_1  and  N_2
REMARK    2  A    between atoms: S_1  and  C_3
REMARK    3  A    between atoms: S_1  and  O_22
REMARK    4  A    between atoms: N_2  and  S_12
REMARK    5  A    between atoms: C_6  and  N_11
REMARK    6  A    between atoms: S_12  and  C_16
REMARK                            x       y       z     vdW  Elec       q    Type
REMARK                         _______ _______ _______ _____ _____    ______ ____
ROOT
ATOM      1  S   UNL     1     -37.073  23.071   2.863  0.00  0.00    +0.063 S 
ENDROOT
BRANCH   1   2
ATOM      2  C   UNL     1     -35.961  24.218   3.678  0.00  0.00    +0.058 C 
ATOM      3  C   UNL     1     -34.713  24.494   3.119  0.00  0.00    +0.011 C 
ATOM      4  C   UNL     1     -36.343  24.832   4.870  0.00  0.00    +0.011 C 
ATOM      5  C   UNL     1     -34.230  25.999   4.946  0.00  0.00    +0.143 C 
ATOM      6  C   UNL     1     -33.847  25.385   3.754  0.00  0.00    +0.025 C 
ATOM      7  C   UNL     1     -35.477  25.722   5.504  0.00  0.00    +0.025 C 
BRANCH   5  10
ATOM      8  O   UNL     1     -32.945  26.641   6.750  0.00  0.00    -0.126 OA
ATOM      9  O   UNL     1     -32.997  27.947   4.987  0.00  0.00    -0.126 OA
ATOM     10  N   UNL     1     -33.348  26.906   5.592  0.00  0.00    +0.058 N 
ENDBRANCH   5  10
ENDBRANCH   1   2
BRANCH   1  11
ATOM     11  O   UNL     1     -37.605  24.141   1.778  0.00  0.00    -0.288 OA
ATOM     12  C   UNL     1     -38.844  24.758   2.097  0.00  0.00    +0.192 C 
ENDBRANCH   1  11
BRANCH   1  13
ATOM     13  N   UNL     1     -35.898  22.372   2.022  0.00  0.00    +0.001 NA
BRANCH  13  14
ATOM     14  S   UNL     1     -35.672  20.711   2.377  0.00  0.00    +0.088 S 
ATOM     15  O   UNL     1     -36.728  19.918   1.778  0.00  0.00    -0.151 OA
ATOM     16  O   UNL     1     -35.337  20.560   3.781  0.00  0.00    -0.151 OA
BRANCH  14  18
ATOM     17 CL   UNL     1     -30.490  19.609  -0.952  0.00  0.00    -0.082 Cl
ATOM     18  C   UNL     1     -34.207  20.401   1.437  0.00  0.00    +0.125 C 
ATOM     19  C   UNL     1     -33.714  21.392   0.607  0.00  0.00    +0.021 C 
ATOM     20  C   UNL     1     -33.582  19.171   1.548  0.00  0.00    +0.021 C 
ATOM     21  C   UNL     1     -32.559  21.146  -0.135  0.00  0.00    +0.013 C 
ATOM     22  C   UNL     1     -32.428  18.924   0.805  0.00  0.00    +0.013 C 
ATOM     23  C   UNL     1     -31.916  19.912  -0.036  0.00  0.00    +0.058 C 
ENDBRANCH  14  18
ENDBRANCH  13  14
ENDBRANCH   1  13
TORSDOF 6
ENDMDL
MODEL 2
REMARK VINA RESULT:      -6.2      0.770      1.628
REMARK  Name = 5735538
REMARK  6 active torsions:
REMARK  status: ('A' for Active; 'I' for Inactive)
REMARK    1  A    between atoms: S_1  and  N_2
REMARK    2  A    between atoms: S_1  and  C_3
REMARK    3  A    between atoms: S_1  and  O_22
REMARK    4  A    between atoms: N_2  and  S_12
REMARK    5  A    between atoms: C_6  and  N_11
REMARK    6  A    between atoms: S_12  and  C_16
REMARK                            x       y       z     vdW  Elec       q    Type
REMARK                         _______ _______ _______ _____ _____    ______ ____
ROOT
ATOM      1  S   UNL     1     -36.500  22.873   3.350  0.00  0.00    +0.063 S 
ENDROOT
BRANCH   1   2
ATOM      2  C   UNL     1     -35.459  24.175   4.009  0.00  0.00    +0.058 C 
ATOM      3  C   UNL     1     -35.637  24.614   5.322  0.00  0.00    +0.011 C 
ATOM      4  C   UNL     1     -34.473  24.752   3.210  0.00  0.00    +0.011 C 
ATOM      5  C   UNL     1     -33.842  26.204   5.034  0.00  0.00    +0.143 C 
ATOM      6  C   UNL     1     -34.829  25.628   5.834  0.00  0.00    +0.025 C 
ATOM      7  C   UNL     1     -33.665  25.766   3.722  0.00  0.00    +0.025 C 
BRANCH   5  10
ATOM      8  O   UNL     1     -32.397  27.036   6.627  0.00  0.00    -0.126 OA
ATOM      9  O   UNL     1     -32.935  28.321   4.931  0.00  0.00    -0.126 OA
ATOM     10  N   UNL     1     -33.019  27.237   5.555  0.00  0.00    +0.058 N 
ENDBRANCH   5  10
ENDBRANCH   1   2
BRANCH   1  11
ATOM     11  O   UNL     1     -37.358  23.851   2.395  0.00  0.00    -0.288 OA
ATOM     12  C   UNL     1     -38.514  24.417   2.996  0.00  0.00    +0.192 C 
ENDBRANCH   1  11
BRANCH   1  13
ATOM     13  N   UNL     1     -35.384  22.368   2.312  0.00  0.00    +0.001 NA
BRANCH  13  14
ATOM     14  S   UNL     1     -35.788  20.917   1.496  0.00  0.00    +0.088 S 
ATOM     15  O   UNL     1     -36.492  21.210   0.262  0.00  0.00    -0.151 OA
ATOM     16  O   UNL     1     -36.327  19.964   2.447  0.00  0.00    -0.151 OA
BRANCH  14  18
ATOM     17 CL   UNL     1     -30.059  18.980  -0.109  0.00  0.00    -0.082 Cl
ATOM     18  C   UNL     1     -34.170  20.368   1.041  0.00  0.00    +0.125 C 
ATOM     19  C   UNL     1     -33.716  19.147   1.505  0.00  0.00    +0.021 C 
ATOM     20  C   UNL     1     -33.387  21.173   0.232  0.00  0.00    +0.021 C 
ATOM     21  C   UNL     1     -32.438  18.715   1.148  0.00  0.00    +0.013 C 
ATOM     22  C   UNL     1     -32.110  20.742  -0.125  0.00  0.00    +0.013 C 
ATOM     23  C   UNL     1     -31.635  19.513   0.332  0.00  0.00    +0.058 C 
ENDBRANCH  14  18
ENDBRANCH  13  14
ENDBRANCH   1  13
TORSDOF 6
ENDMDL
MODEL 3
REMARK VINA RESULT:      -6.0      4.448      6.141
REMARK  Name = 5735538
REMARK  6 active torsions:
REMARK  status: ('A' for Active; 'I' for Inactive)
REMARK    1  A    between atoms: S_1  and  N_2
REMARK    2  A    between atoms: S_1  and  C_3
REMARK    3  A    between atoms: S_1  and  O_22
REMARK    4  A    between atoms: N_2  and  S_12
REMARK    5  A    between atoms: C_6  and  N_11
REMARK    6  A    between atoms: S_12  and  C_16
REMARK                            x       y       z     vdW  Elec       q    Type
REMARK                         _______ _______ _______ _____ _____    ______ ____
ROOT
ATOM      1  S   UNL     1     -35.941  22.855   4.103  0.00  0.00    +0.063 S 
ENDROOT
BRANCH   1   2
ATOM      2  C   UNL     1     -34.977  24.359   4.247  0.00  0.00    +0.058 C 
ATOM      3  C   UNL     1     -34.328  24.882   3.128  0.00  0.00    +0.011 C 
ATOM      4  C   UNL     1     -34.873  25.005   5.479  0.00  0.00    +0.011 C 
ATOM      5  C   UNL     1     -33.473  26.698   4.473  0.00  0.00    +0.143 C 
ATOM      6  C   UNL     1     -33.576  26.051   3.241  0.00  0.00    +0.025 C 
ATOM      7  C   UNL     1     -34.121  26.174   5.591  0.00  0.00    +0.025 C 
BRANCH   5  10
ATOM      8  O   UNL     1     -33.224  28.978   4.239  0.00  0.00    -0.126 OA
ATOM      9  O   UNL     1     -31.538  27.818   5.034  0.00  0.00    -0.126 OA
ATOM     10  N   UNL     1     -32.708  27.888   4.587  0.00  0.00    +0.058 N 
ENDBRANCH   5  10
ENDBRANCH   1   2
BRANCH   1  11
ATOM     11  O   UNL     1     -36.161  22.678   5.692  0.00  0.00    -0.288 OA
ATOM     12  C   UNL     1     -35.353  21.683   6.305  0.00  0.00    +0.192 C 
ENDBRANCH   1  11
BRANCH   1  13
ATOM     13  N   UNL     1     -37.289  23.637   3.715  0.00  0.00    +0.001 NA
BRANCH  13  14
ATOM     14  S   UNL     1     -37.983  23.145   2.227  0.00  0.00    +0.088 S 
ATOM     15  O   UNL     1     -38.458  21.778   2.319  0.00  0.00    -0.151 OA
ATOM     16  O   UNL     1     -37.122  23.558   1.135  0.00  0.00    -0.151 OA
BRANCH  14  18
ATOM     17 CL   UNL     1     -43.053  26.811   2.160  0.00  0.00    -0.082 Cl
ATOM     18  C   UNL     1     -39.415  24.182   2.207  0.00  0.00    +0.125 C 
ATOM     19  C   UNL     1     -39.532  25.189   3.149  0.00  0.00    +0.021 C 
ATOM     20  C   UNL     1     -40.392  23.965   1.252  0.00  0.00    +0.021 C 
ATOM     21  C   UNL     1     -40.663  26.006   3.134  0.00  0.00    +0.013 C 
ATOM     22  C   UNL     1     -41.523  24.781   1.237  0.00  0.00    +0.013 C 
ATOM     23  C   UNL     1     -41.658  25.802   2.178  0.00  0.00    +0.058 C 
ENDBRANCH  14  18
ENDBRANCH  13  14
ENDBRANCH   1  13
TORSDOF 6
ENDMDL
MODEL 4
REMARK VINA RESULT:      -5.9      3.497      6.892
REMARK  Name = 5735538
REMARK  6 active torsions:
REMARK  status: ('A' for Active; 'I' for Inactive)
REMARK    1  A    between atoms: S_1  and  N_2
REMARK    2  A    between atoms: S_1  and  C_3
REMARK    3  A    between atoms: S_1  and  O_22
REMARK    4  A    between atoms: N_2  and  S_12
REMARK    5  A    between atoms: C_6  and  N_11
REMARK    6  A    between atoms: S_12  and  C_16
REMARK                            x       y       z     vdW  Elec       q    Type
REMARK                         _______ _______ _______ _____ _____    ______ ____
ROOT
ATOM      1  S   UNL     1     -36.047  21.851   0.587  0.00  0.00    +0.063 S 
ENDROOT
BRANCH   1   2
ATOM      2  C   UNL     1     -34.554  20.861   0.647  0.00  0.00    +0.058 C 
ATOM      3  C   UNL     1     -33.406  21.289  -0.020  0.00  0.00    +0.011 C 
ATOM      4  C   UNL     1     -34.540  19.662   1.359  0.00  0.00    +0.011 C 
ATOM      5  C   UNL     1     -32.230  19.320   0.738  0.00  0.00    +0.143 C 
ATOM      6  C   UNL     1     -32.245  20.519   0.025  0.00  0.00    +0.025 C 
ATOM      7  C   UNL     1     -33.378  18.891   1.404  0.00  0.00    +0.025 C 
BRANCH   5  10
ATOM      8  O   UNL     1     -30.025  18.942   0.181  0.00  0.00    -0.126 OA
ATOM      9  O   UNL     1     -31.058  17.458   1.425  0.00  0.00    -0.126 OA
ATOM     10  N   UNL     1     -31.048  18.535   0.784  0.00  0.00    +0.058 N 
ENDBRANCH   5  10
ENDBRANCH   1   2
BRANCH   1  11
ATOM     11  O   UNL     1     -37.050  20.600   0.777  0.00  0.00    -0.288 OA
ATOM     12  C   UNL     1     -38.083  20.504  -0.192  0.00  0.00    +0.192 C 
ENDBRANCH   1  11
BRANCH   1  13
ATOM     13  N   UNL     1     -35.907  22.336   2.111  0.00  0.00    +0.001 NA
BRANCH  13  14
ATOM     14  S   UNL     1     -36.959  23.619   2.540  0.00  0.00    +0.088 S 
ATOM     15  O   UNL     1     -38.087  23.116   3.299  0.00  0.00    -0.151 OA
ATOM     16  O   UNL     1     -37.165  24.478   1.388  0.00  0.00    -0.151 OA
BRANCH  14  18
ATOM     17 CL   UNL     1     -33.295  26.695   6.572  0.00  0.00    -0.082 Cl
ATOM     18  C   UNL     1     -35.923  24.487   3.680  0.00  0.00    +0.125 C 
ATOM     19  C   UNL     1     -36.503  25.154   4.745  0.00  0.00    +0.021 C 
ATOM     20  C   UNL     1     -34.554  24.485   3.484  0.00  0.00    +0.021 C 
ATOM     21  C   UNL     1     -35.685  25.840   5.644  0.00  0.00    +0.013 C 
ATOM     22  C   UNL     1     -33.737  25.172   4.382  0.00  0.00    +0.013 C 
ATOM     23  C   UNL     1     -34.302  25.849   5.462  0.00  0.00    +0.058 C 
ENDBRANCH  14  18
ENDBRANCH  13  14
ENDBRANCH   1  13
TORSDOF 6
ENDMDL
MODEL 5
REMARK VINA RESULT:      -5.9      3.856      4.967
REMARK  Name = 5735538
REMARK  6 active torsions:
REMARK  status: ('A' for Active; 'I' for Inactive)
REMARK    1  A    between atoms: S_1  and  N_2
REMARK    2  A    between atoms: S_1  and  C_3
REMARK    3  A    between atoms: S_1  and  O_22
REMARK    4  A    between atoms: N_2  and  S_12
REMARK    5  A    between atoms: C_6  and  N_11
REMARK    6  A    between atoms: S_12  and  C_16
REMARK                            x       y       z     vdW  Elec       q    Type
REMARK                         _______ _______ _______ _____ _____    ______ ____
ROOT
ATOM      1  S   UNL     1     -35.978  23.058   4.148  0.00  0.00    +0.063 S 
ENDROOT
BRANCH   1   2
ATOM      2  C   UNL     1     -34.954  24.513   4.363  0.00  0.00    +0.058 C 
ATOM      3  C   UNL     1     -34.214  25.010   3.289  0.00  0.00    +0.011 C 
ATOM      4  C   UNL     1     -34.894  25.147   5.603  0.00  0.00    +0.011 C 
ATOM      5  C   UNL     1     -33.357  26.775   4.698  0.00  0.00    +0.143 C 
ATOM      6  C   UNL     1     -33.416  26.141   3.457  0.00  0.00    +0.025 C 
ATOM      7  C   UNL     1     -34.096  26.277   5.771  0.00  0.00    +0.025 C 
BRANCH   5  10
ATOM      8  O   UNL     1     -31.413  27.800   5.398  0.00  0.00    -0.126 OA
ATOM      9  O   UNL     1     -32.978  29.040   4.486  0.00  0.00    -0.126 OA
ATOM     10  N   UNL     1     -32.544  27.927   4.869  0.00  0.00    +0.058 N 
ENDBRANCH   5  10
ENDBRANCH   1   2
BRANCH   1  11
ATOM     11  O   UNL     1     -35.939  22.630   5.703  0.00  0.00    -0.288 OA
ATOM     12  C   UNL     1     -35.112  21.514   6.001  0.00  0.00    +0.192 C 
ENDBRANCH   1  11
BRANCH   1  13
ATOM     13  N   UNL     1     -37.345  23.900   4.119  0.00  0.00    +0.001 NA
BRANCH  13  14
ATOM     14  S   UNL     1     -38.219  23.772   2.650  0.00  0.00    +0.088 S 
ATOM     15  O   UNL     1     -39.601  24.163   2.849  0.00  0.00    -0.151 OA
ATOM     16  O   UNL     1     -37.889  22.517   2.002  0.00  0.00    -0.151 OA
BRANCH  14  18
ATOM     17 CL   UNL     1     -35.492  28.369  -0.603  0.00  0.00    -0.082 Cl
ATOM     18  C   UNL     1     -37.450  25.071   1.730  0.00  0.00    +0.125 C 
ATOM     19  C   UNL     1     -36.833  24.774   0.527  0.00  0.00    +0.021 C 
ATOM     20  C   UNL     1     -37.476  26.361   2.231  0.00  0.00    +0.021 C 
ATOM     21  C   UNL     1     -36.225  25.799  -0.198  0.00  0.00    +0.013 C 
ATOM     22  C   UNL     1     -36.867  27.385   1.507  0.00  0.00    +0.013 C 
ATOM     23  C   UNL     1     -36.242  27.105   0.292  0.00  0.00    +0.058 C 
ENDBRANCH  14  18
ENDBRANCH  13  14
ENDBRANCH   1  13
TORSDOF 6
ENDMDL
MODEL 6
REMARK VINA RESULT:      -5.9      4.632      7.853
REMARK  Name = 5735538
REMARK  6 active torsions:
REMARK  status: ('A' for Active; 'I' for Inactive)
REMARK    1  A    between atoms: S_1  and  N_2
REMARK    2  A    between atoms: S_1  and  C_3
REMARK    3  A    between atoms: S_1  and  O_22
REMARK    4  A    between atoms: N_2  and  S_12
REMARK    5  A    between atoms: C_6  and  N_11
REMARK    6  A    between atoms: S_12  and  C_16
REMARK                            x       y       z     vdW  Elec       q    Type
REMARK                         _______ _______ _______ _____ _____    ______ ____
ROOT
ATOM      1  S   UNL     1     -34.168  27.177   2.617  0.00  0.00    +0.063 S 
ENDROOT
BRANCH   1   2
ATOM      2  C   UNL     1     -34.551  25.651   3.476  0.00  0.00    +0.058 C 
ATOM      3  C   UNL     1     -34.626  25.635   4.869  0.00  0.00    +0.011 C 
ATOM      4  C   UNL     1     -34.772  24.480   2.753  0.00  0.00    +0.011 C 
ATOM      5  C   UNL     1     -35.144  23.276   4.814  0.00  0.00    +0.143 C 
ATOM      6  C   UNL     1     -34.922  24.448   5.538  0.00  0.00    +0.025 C 
ATOM      7  C   UNL     1     -35.068  23.292   3.422  0.00  0.00    +0.025 C 
BRANCH   5  10
ATOM      8  O   UNL     1     -35.174  20.974   4.942  0.00  0.00    -0.126 OA
ATOM      9  O   UNL     1     -35.975  22.125   6.631  0.00  0.00    -0.126 OA
ATOM     10  N   UNL     1     -35.445  22.067   5.495  0.00  0.00    +0.058 N 
ENDBRANCH   5  10
ENDBRANCH   1   2
BRANCH   1  11
ATOM     11  O   UNL     1     -35.703  27.667   2.516  0.00  0.00    -0.288 OA
ATOM     12  C   UNL     1     -35.942  28.709   1.580  0.00  0.00    +0.192 C 
ENDBRANCH   1  11
BRANCH   1  13
ATOM     13  N   UNL     1     -33.714  27.936   3.956  0.00  0.00    +0.001 NA
BRANCH  13  14
ATOM     14  S   UNL     1     -32.916  29.427   3.683  0.00  0.00    +0.088 S 
ATOM     15  O   UNL     1     -33.732  30.531   4.153  0.00  0.00    -0.151 OA
ATOM     16  O   UNL     1     -32.358  29.436   2.344  0.00  0.00    -0.151 OA
BRANCH  14  18
ATOM     17 CL   UNL     1     -28.170  28.852   7.719  0.00  0.00    -0.082 Cl
ATOM     18  C   UNL     1     -31.576  29.263   4.824  0.00  0.00    +0.125 C 
ATOM     19  C   UNL     1     -31.748  29.680   6.133  0.00  0.00    +0.021 C 
ATOM     20  C   UNL     1     -30.379  28.724   4.386  0.00  0.00    +0.021 C 
ATOM     21  C   UNL     1     -30.689  29.552   7.032  0.00  0.00    +0.013 C 
ATOM     22  C   UNL     1     -29.320  28.596   5.285  0.00  0.00    +0.013 C 
ATOM     23  C   UNL     1     -29.475  29.010   6.608  0.00  0.00    +0.058 C 
ENDBRANCH  14  18
ENDBRANCH  13  14
ENDBRANCH   1  13
TORSDOF 6
ENDMDL
MODEL 7
REMARK VINA RESULT:      -5.9      2.405      3.079
REMARK  Name = 5735538
REMARK  6 active torsions:
REMARK  status: ('A' for Active; 'I' for Inactive)
REMARK    1  A    between atoms: S_1  and  N_2
REMARK    2  A    between atoms: S_1  and  C_3
REMARK    3  A    between atoms: S_1  and  O_22
REMARK    4  A    between atoms: N_2  and  S_12
REMARK    5  A    between atoms: C_6  and  N_11
REMARK    6  A    between atoms: S_12  and  C_16
REMARK                            x       y       z     vdW  Elec       q    Type
REMARK                         _______ _______ _______ _____ _____    ______ ____
ROOT
ATOM      1  S   UNL     1     -35.825  25.702   4.247  0.00  0.00    +0.063 S 
ENDROOT
BRANCH   1   2
ATOM      2  C   UNL     1     -34.369  26.541   4.872  0.00  0.00    +0.058 C 
ATOM      3  C   UNL     1     -33.639  27.387   4.038  0.00  0.00    +0.011 C 
ATOM      4  C   UNL     1     -33.966  26.345   6.193  0.00  0.00    +0.011 C 
ATOM      5  C   UNL     1     -32.102  27.843   5.845  0.00  0.00    +0.143 C 
ATOM      6  C   UNL     1     -32.506  28.037   4.524  0.00  0.00    +0.025 C 
ATOM      7  C   UNL     1     -32.832  26.996   6.679  0.00  0.00    +0.025 C 
BRANCH   5  10
ATOM      8  O   UNL     1     -29.841  27.916   6.293  0.00  0.00    -0.126 OA
ATOM      9  O   UNL     1     -31.067  29.662   6.810  0.00  0.00    -0.126 OA
ATOM     10  N   UNL     1     -30.948  28.506   6.340  0.00  0.00    +0.058 N 
ENDBRANCH   5  10
ENDBRANCH   1   2
BRANCH   1  11
ATOM     11  O   UNL     1     -35.664  26.252   2.738  0.00  0.00    -0.288 OA
ATOM     12  C   UNL     1     -36.877  26.617   2.096  0.00  0.00    +0.192 C 
ENDBRANCH   1  11
BRANCH   1  13
ATOM     13  N   UNL     1     -35.078  24.287   4.115  0.00  0.00    +0.001 NA
BRANCH  13  14
ATOM     14  S   UNL     1     -36.133  22.939   4.045  0.00  0.00    +0.088 S 
ATOM     15  O   UNL     1     -37.446  23.348   3.584  0.00  0.00    -0.151 OA
ATOM     16  O   UNL     1     -35.985  22.148   5.252  0.00  0.00    -0.151 OA
BRANCH  14  18
ATOM     17 CL   UNL     1     -33.476  19.766  -0.647  0.00  0.00    -0.082 Cl
ATOM     18  C   UNL     1     -35.383  22.042   2.718  0.00  0.00    +0.125 C 
ATOM     19  C   UNL     1     -35.329  20.661   2.783  0.00  0.00    +0.021 C 
ATOM     20  C   UNL     1     -34.863  22.738   1.642  0.00  0.00    +0.021 C 
ATOM     21  C   UNL     1     -34.736  19.954   1.737  0.00  0.00    +0.013 C 
ATOM     22  C   UNL     1     -34.270  22.032   0.596  0.00  0.00    +0.013 C 
ATOM     23  C   UNL     1     -34.206  20.639   0.643  0.00  0.00    +0.058 C 
ENDBRANCH  14  18
ENDBRANCH  13  14
ENDBRANCH   1  13
TORSDOF 6
ENDMDL
MODEL 8
REMARK VINA RESULT:      -5.8      3.489      7.029
REMARK  Name = 5735538
REMARK  6 active torsions:
REMARK  status: ('A' for Active; 'I' for Inactive)
REMARK    1  A    between atoms: S_1  and  N_2
REMARK    2  A    between atoms: S_1  and  C_3
REMARK    3  A    between atoms: S_1  and  O_22
REMARK    4  A    between atoms: N_2  and  S_12
REMARK    5  A    between atoms: C_6  and  N_11
REMARK    6  A    between atoms: S_12  and  C_16
REMARK                            x       y       z     vdW  Elec       q    Type
REMARK                         _______ _______ _______ _____ _____    ______ ____
ROOT
ATOM      1  S   UNL     1     -35.572  21.888   0.754  0.00  0.00    +0.063 S 
ENDROOT
BRANCH   1   2
ATOM      2  C   UNL     1     -34.166  20.776   0.747  0.00  0.00    +0.058 C 
ATOM      3  C   UNL     1     -34.226  19.571   1.447  0.00  0.00    +0.011 C 
ATOM      4  C   UNL     1     -33.011  21.116   0.043  0.00  0.00    +0.011 C 
ATOM      5  C   UNL     1     -31.977  19.047   0.739  0.00  0.00    +0.143 C 
ATOM      6  C   UNL     1     -33.132  18.707   1.444  0.00  0.00    +0.025 C 
ATOM      7  C   UNL     1     -31.917  20.252   0.040  0.00  0.00    +0.025 C 
BRANCH   5  10
ATOM      8  O   UNL     1     -31.039  16.962   1.038  0.00  0.00    -0.126 OA
ATOM      9  O   UNL     1     -29.733  18.618   0.427  0.00  0.00    -0.126 OA
ATOM     10  N   UNL     1     -30.863  18.167   0.735  0.00  0.00    +0.058 N 
ENDBRANCH   5  10
ENDBRANCH   1   2
BRANCH   1  11
ATOM     11  O   UNL     1     -36.621  20.782   1.284  0.00  0.00    -0.288 OA
ATOM     12  C   UNL     1     -37.889  20.800   0.646  0.00  0.00    +0.192 C 
ENDBRANCH   1  11
BRANCH   1  13
ATOM     13  N   UNL     1     -35.152  22.572   2.145  0.00  0.00    +0.001 NA
BRANCH  13  14
ATOM     14  S   UNL     1     -36.354  23.592   2.817  0.00  0.00    +0.088 S 
ATOM     15  O   UNL     1     -37.181  22.852   3.750  0.00  0.00    -0.151 OA
ATOM     16  O   UNL     1     -36.955  24.387   1.763  0.00  0.00    -0.151 OA
BRANCH  14  18
ATOM     17 CL   UNL     1     -32.731  27.377   6.237  0.00  0.00    -0.082 Cl
ATOM     18  C   UNL     1     -35.331  24.664   3.783  0.00  0.00    +0.125 C 
ATOM     19  C   UNL     1     -34.275  25.319   3.174  0.00  0.00    +0.021 C 
ATOM     20  C   UNL     1     -35.604  24.823   5.130  0.00  0.00    +0.021 C 
ATOM     21  C   UNL     1     -33.468  26.163   3.937  0.00  0.00    +0.013 C 
ATOM     22  C   UNL     1     -34.796  25.665   5.893  0.00  0.00    +0.013 C 
ATOM     23  C   UNL     1     -33.728  26.336   5.297  0.00  0.00    +0.058 C 
ENDBRANCH  14  18
ENDBRANCH  13  14
ENDBRANCH   1  13
TORSDOF 6
ENDMDL
MODEL 9
REMARK VINA RESULT:      -5.7      4.510      6.623
REMARK  Name = 5735538
REMARK  6 active torsions:
REMARK  status: ('A' for Active; 'I' for Inactive)
REMARK    1  A    between atoms: S_1  and  N_2
REMARK    2  A    between atoms: S_1  and  C_3
REMARK    3  A    between atoms: S_1  and  O_22
REMARK    4  A    between atoms: N_2  and  S_12
REMARK    5  A    between atoms: C_6  and  N_11
REMARK    6  A    between atoms: S_12  and  C_16
REMARK                            x       y       z     vdW  Elec       q    Type
REMARK                         _______ _______ _______ _____ _____    ______ ____
ROOT
ATOM      1  S   UNL     1     -31.918  28.277   3.505  0.00  0.00    +0.063 S 
ENDROOT
BRANCH   1   2
ATOM      2  C   UNL     1     -30.725  28.511   4.823  0.00  0.00    +0.058 C 
ATOM      3  C   UNL     1     -31.115  29.116   6.018  0.00  0.00    +0.011 C 
ATOM      4  C   UNL     1     -29.407  28.089   4.653  0.00  0.00    +0.011 C 
ATOM      5  C   UNL     1     -28.868  28.876   6.872  0.00  0.00    +0.143 C 
ATOM      6  C   UNL     1     -30.186  29.299   7.042  0.00  0.00    +0.025 C 
ATOM      7  C   UNL     1     -28.478  28.272   5.676  0.00  0.00    +0.025 C 
BRANCH   5  10
ATOM      8  O   UNL     1     -27.911  30.152   8.538  0.00  0.00    -0.126 OA
ATOM      9  O   UNL     1     -27.125  28.132   8.185  0.00  0.00    -0.126 OA
ATOM     10  N   UNL     1     -27.922  29.062   7.915  0.00  0.00    +0.058 N 
ENDBRANCH   5  10
ENDBRANCH   1   2
BRANCH   1  11
ATOM     11  O   UNL     1     -30.818  27.890   2.390  0.00  0.00    -0.288 OA
ATOM     12  C   UNL     1     -31.080  26.689   1.677  0.00  0.00    +0.192 C 
ENDBRANCH   1  11
BRANCH   1  13
ATOM     13  N   UNL     1     -32.340  26.813   4.010  0.00  0.00    +0.001 NA
BRANCH  13  14
ATOM     14  S   UNL     1     -33.868  26.748   4.783  0.00  0.00    +0.088 S 
ATOM     15  O   UNL     1     -34.775  27.713   4.191  0.00  0.00    -0.151 OA
ATOM     16  O   UNL     1     -33.678  26.695   6.220  0.00  0.00    -0.151 OA
BRANCH  14  18
ATOM     17 CL   UNL     1     -35.778  21.096   2.900  0.00  0.00    -0.082 Cl
ATOM     18  C   UNL     1     -34.406  25.150   4.250  0.00  0.00    +0.125 C 
ATOM     19  C   UNL     1     -34.438  24.865   2.897  0.00  0.00    +0.021 C 
ATOM     20  C   UNL     1     -34.787  24.217   5.198  0.00  0.00    +0.021 C 
ATOM     21  C   UNL     1     -34.864  23.605   2.478  0.00  0.00    +0.013 C 
ATOM     22  C   UNL     1     -35.214  22.957   4.779  0.00  0.00    +0.013 C 
ATOM     23  C   UNL     1     -35.252  22.651   3.418  0.00  0.00    +0.058 C 
ENDBRANCH  14  18
ENDBRANCH  13  14
ENDBRANCH   1  13
TORSDOF 6
ENDMDL
