MODEL 1
REMARK VINA RESULT:      -5.6      0.000      0.000
REMARK  Name = 20838866
REMARK  14 active torsions:
REMARK  status: ('A' for Active; 'I' for Inactive)
REMARK    1  A    between atoms: CA_1  and  N_3
REMARK    2  A    between atoms: CA_1  and  C_19
REMARK    3  A    between atoms: CA_1  and  CB_26
REMARK    4  A    between atoms: C_4  and  C_6
REMARK    5  A    between atoms: C_6  and  C_7
REMARK    6  A    between atoms: C_7  and  CA_8
REMARK    7  A    between atoms: CA_8  and  N_9
REMARK    8  A    between atoms: CA_8  and  C_14
REMARK    9  A    between atoms: C_14  and  O_15
REMARK   10  A    between atoms: N_18  and  CA_21
REMARK   11  A    between atoms: CA_21  and  C_23
REMARK   12  A    between atoms: C_23  and  O_24
REMARK   13  A    between atoms: CB_26  and  SG_27
REMARK   14  A    between atoms: SG_27  and  C_30
REMARK                            x       y       z     vdW  Elec       q    Type
REMARK                         _______ _______ _______ _____ _____    ______ ____
ROOT
ATOM      1  CA  UNL     1     -35.070  27.426   3.203  0.00  0.00    +0.160 C 
ENDROOT
BRANCH   1   3
ATOM      2  O   UNL     1     -36.271  26.147   5.494  0.00  0.00    -0.275 OA
ATOM      3  N   UNL     1     -34.570  26.274   3.918  0.00  0.00    -0.298 N 
ATOM      4  C   UNL     1     -35.222  25.728   5.015  0.00  0.00    +0.223 C 
ATOM      5  H   UNL     1     -33.731  25.858   3.614  0.00  0.00    +0.150 HD
BRANCH   4   6
ATOM      6  C   UNL     1     -34.470  24.533   5.573  0.00  0.00    +0.083 C 
BRANCH   6   7
ATOM      7  C   UNL     1     -35.336  23.273   5.632  0.00  0.00    -0.001 C 
BRANCH   7   8
ATOM      8  CA  UNL     1     -35.576  22.649   4.253  0.00  0.00    +0.036 C 
BRANCH   8   9
ATOM      9  N   UNL     1     -36.982  22.813   3.879  0.00  0.00    +0.389 N 
ATOM     10  H1  UNL     1     -37.569  22.703   4.707  0.00  0.00    -0.088 HD
ATOM     11  H2  UNL     1     -37.235  22.107   3.188  0.00  0.00    -0.088 HD
ATOM     12  H3  UNL     1     -37.123  23.743   3.483  0.00  0.00    -0.088 HD
ENDBRANCH   8   9
BRANCH   8  14
ATOM     13  OXT UNL     1     -35.226  20.446   3.271  0.00  0.00    -0.253 OA
ATOM     14  C   UNL     1     -35.300  21.157   4.266  0.00  0.00    +0.293 C 
BRANCH  14  15
ATOM     15  O   UNL     1     -35.167  20.668   5.526  0.00  0.00    -0.482 OA
ATOM     16  H   UNL     1     -35.424  19.787   5.717  0.00  0.00    +0.295 HD
ENDBRANCH  14  15
ENDBRANCH   8  14
ENDBRANCH   7   8
ENDBRANCH   6   7
ENDBRANCH   4   6
ENDBRANCH   1   3
BRANCH   1  19
ATOM     17  O   UNL     1     -35.883  26.886   0.981  0.00  0.00    -0.273 OA
ATOM     18  N   UNL     1     -37.330  26.669   2.781  0.00  0.00    -0.294 N 
ATOM     19  C   ACE A   1     -36.111  26.963   2.186  0.00  0.00    +0.242 C 
ATOM     20  H   UNL     1     -37.414  26.761   3.757  0.00  0.00    +0.150 HD
BRANCH  18  21
ATOM     21  CA  UNL     1     -38.481  26.233   2.025  0.00  0.00    +0.200 C 
BRANCH  21  23
ATOM     22  OXT UNL     1     -40.413  24.835   2.350  0.00  0.00    -0.248 OA
ATOM     23  C   UNL     1     -39.370  25.293   2.797  0.00  0.00    +0.334 C 
BRANCH  23  24
ATOM     24  O   UNL     1     -38.904  25.003   4.035  0.00  0.00    -0.479 OA
ATOM     25  H   UNL     1     -39.373  25.293   4.792  0.00  0.00    +0.295 HD
ENDBRANCH  23  24
ENDBRANCH  21  23
ENDBRANCH  18  21
ENDBRANCH   1  19
BRANCH   1  26
ATOM     26  CB  UNL     1     -33.945  28.260   2.585  0.00  0.00    +0.092 C 
BRANCH  26  27
ATOM     27  SG  UNL     1     -32.289  27.854   3.232  0.00  0.00    -0.099 S 
BRANCH  27  30
ATOM     28 CL   UNL     1     -32.777  30.598   4.217  0.00  0.00    -0.075 Cl
ATOM     29 CL   UNL     1     -31.679  29.613   7.134  0.00  0.00    -0.080 Cl
ATOM     30  C   UNL     1     -32.216  28.991   4.539  0.00  0.00    +0.094 C 
ATOM     31  C   UNL     1     -31.779  28.610   5.745  0.00  0.00    +0.086 C 
ENDBRANCH  27  30
ENDBRANCH  26  27
ENDBRANCH   1  26
TORSDOF 14
ENDMDL
MODEL 2
REMARK VINA RESULT:      -5.3      4.738      6.639
REMARK  Name = 20838866
REMARK  14 active torsions:
REMARK  status: ('A' for Active; 'I' for Inactive)
REMARK    1  A    between atoms: CA_1  and  N_3
REMARK    2  A    between atoms: CA_1  and  C_19
REMARK    3  A    between atoms: CA_1  and  CB_26
REMARK    4  A    between atoms: C_4  and  C_6
REMARK    5  A    between atoms: C_6  and  C_7
REMARK    6  A    between atoms: C_7  and  CA_8
REMARK    7  A    between atoms: CA_8  and  N_9
REMARK    8  A    between atoms: CA_8  and  C_14
REMARK    9  A    between atoms: C_14  and  O_15
REMARK   10  A    between atoms: N_18  and  CA_21
REMARK   11  A    between atoms: CA_21  and  C_23
REMARK   12  A    between atoms: C_23  and  O_24
REMARK   13  A    between atoms: CB_26  and  SG_27
REMARK   14  A    between atoms: SG_27  and  C_30
REMARK                            x       y       z     vdW  Elec       q    Type
REMARK                         _______ _______ _______ _____ _____    ______ ____
ROOT
ATOM      1  CA  UNL     1     -37.606  22.100   2.135  0.00  0.00    +0.160 C 
ENDROOT
BRANCH   1   3
ATOM      2  O   UNL     1     -34.816  22.585   2.693  0.00  0.00    -0.275 OA
ATOM      3  N   UNL     1     -36.999  22.294   3.432  0.00  0.00    -0.298 N 
ATOM      4  C   UNL     1     -35.640  22.523   3.600  0.00  0.00    +0.223 C 
ATOM      5  H   UNL     1     -37.574  22.263   4.231  0.00  0.00    +0.150 HD
BRANCH   4   6
ATOM      6  C   UNL     1     -35.278  22.681   5.067  0.00  0.00    +0.083 C 
BRANCH   6   7
ATOM      7  C   UNL     1     -35.643  24.063   5.612  0.00  0.00    -0.001 C 
BRANCH   7   8
ATOM      8  CA  UNL     1     -34.924  25.202   4.880  0.00  0.00    +0.036 C 
BRANCH   8   9
ATOM      9  N   UNL     1     -34.326  26.113   5.858  0.00  0.00    +0.389 N 
ATOM     10  H1  UNL     1     -33.372  25.814   6.061  0.00  0.00    -0.088 HD
ATOM     11  H2  UNL     1     -34.876  26.099   6.716  0.00  0.00    -0.088 HD
ATOM     12  H3  UNL     1     -34.313  27.060   5.477  0.00  0.00    -0.088 HD
ENDBRANCH   8   9
BRANCH   8  14
ATOM     13  OXT UNL     1     -36.765  25.566   3.325  0.00  0.00    -0.253 OA
ATOM     14  C   UNL     1     -35.895  26.026   4.053  0.00  0.00    +0.293 C 
BRANCH  14  15
ATOM     15  O   UNL     1     -35.678  27.361   4.183  0.00  0.00    -0.482 OA
ATOM     16  H   UNL     1     -34.993  27.774   3.696  0.00  0.00    +0.295 HD
ENDBRANCH  14  15
ENDBRANCH   8  14
ENDBRANCH   7   8
ENDBRANCH   6   7
ENDBRANCH   4   6
ENDBRANCH   1   3
BRANCH   1  19
ATOM     17  O   UNL     1     -40.018  21.832   2.139  0.00  0.00    -0.273 OA
ATOM     18  N   UNL     1     -39.134  23.973   2.271  0.00  0.00    -0.294 N 
ATOM     19  C   ACE A   1     -39.051  22.589   2.188  0.00  0.00    +0.242 C 
ATOM     20  H   UNL     1     -38.300  24.495   2.305  0.00  0.00    +0.150 HD
BRANCH  18  21
ATOM     21  CA  UNL     1     -40.394  24.677   2.309  0.00  0.00    +0.200 C 
BRANCH  21  23
ATOM     22  OXT UNL     1     -40.770  26.990   1.762  0.00  0.00    -0.248 OA
ATOM     23  C   UNL     1     -40.230  26.164   2.486  0.00  0.00    +0.334 C 
BRANCH  23  24
ATOM     24  O   UNL     1     -39.428  26.500   3.523  0.00  0.00    -0.479 OA
ATOM     25  H   UNL     1     -39.542  27.322   3.958  0.00  0.00    +0.295 HD
ENDBRANCH  23  24
ENDBRANCH  21  23
ENDBRANCH  18  21
ENDBRANCH   1  19
BRANCH   1  26
ATOM     26  CB  UNL     1     -37.470  20.658   1.639  0.00  0.00    +0.092 C 
BRANCH  26  27
ATOM     27  SG  UNL     1     -36.727  20.520  -0.020  0.00  0.00    -0.099 S 
BRANCH  27  30
ATOM     28 CL   UNL     1     -35.587  17.836  -0.510  0.00  0.00    -0.075 Cl
ATOM     29 CL   UNL     1     -33.200  18.603   1.587  0.00  0.00    -0.080 Cl
ATOM     30  C   UNL     1     -35.493  19.352   0.325  0.00  0.00    +0.094 C 
ATOM     31  C   UNL     1     -34.500  19.644   1.173  0.00  0.00    +0.086 C 
ENDBRANCH  27  30
ENDBRANCH  26  27
ENDBRANCH   1  26
TORSDOF 14
ENDMDL
MODEL 3
REMARK VINA RESULT:      -5.2      2.364      4.802
REMARK  Name = 20838866
REMARK  14 active torsions:
REMARK  status: ('A' for Active; 'I' for Inactive)
REMARK    1  A    between atoms: CA_1  and  N_3
REMARK    2  A    between atoms: CA_1  and  C_19
REMARK    3  A    between atoms: CA_1  and  CB_26
REMARK    4  A    between atoms: C_4  and  C_6
REMARK    5  A    between atoms: C_6  and  C_7
REMARK    6  A    between atoms: C_7  and  CA_8
REMARK    7  A    between atoms: CA_8  and  N_9
REMARK    8  A    between atoms: CA_8  and  C_14
REMARK    9  A    between atoms: C_14  and  O_15
REMARK   10  A    between atoms: N_18  and  CA_21
REMARK   11  A    between atoms: CA_21  and  C_23
REMARK   12  A    between atoms: C_23  and  O_24
REMARK   13  A    between atoms: CB_26  and  SG_27
REMARK   14  A    between atoms: SG_27  and  C_30
REMARK                            x       y       z     vdW  Elec       q    Type
REMARK                         _______ _______ _______ _____ _____    ______ ____
ROOT
ATOM      1  CA  UNL     1     -36.301  24.870   4.345  0.00  0.00    +0.160 C 
ENDROOT
BRANCH   1   3
ATOM      2  O   UNL     1     -37.520  26.470   2.276  0.00  0.00    -0.275 OA
ATOM      3  N   UNL     1     -37.710  24.980   4.048  0.00  0.00    -0.298 N 
ATOM      4  C   UNL     1     -38.204  25.780   3.027  0.00  0.00    +0.223 C 
ATOM      5  H   UNL     1     -38.348  24.464   4.593  0.00  0.00    +0.150 HD
BRANCH   4   6
ATOM      6  C   UNL     1     -39.719  25.711   2.947  0.00  0.00    +0.083 C 
BRANCH   6   7
ATOM      7  C   UNL     1     -40.233  24.275   2.838  0.00  0.00    -0.001 C 
BRANCH   7   8
ATOM      8  CA  UNL     1     -39.859  23.607   1.510  0.00  0.00    +0.036 C 
BRANCH   8   9
ATOM      9  N   UNL     1     -41.077  23.278   0.766  0.00  0.00    +0.389 N 
ATOM     10  H1  UNL     1     -41.838  23.885   1.076  0.00  0.00    -0.088 HD
ATOM     11  H2  UNL     1     -41.328  22.305   0.937  0.00  0.00    -0.088 HD
ATOM     12  H3  UNL     1     -40.915  23.419  -0.232  0.00  0.00    -0.088 HD
ENDBRANCH   8   9
BRANCH   8  14
ATOM     13  OXT UNL     1     -39.097  21.361   0.952  0.00  0.00    -0.253 OA
ATOM     14  C   UNL     1     -39.123  22.299   1.738  0.00  0.00    +0.293 C 
BRANCH  14  15
ATOM     15  O   UNL     1     -38.502  22.261   2.945  0.00  0.00    -0.482 OA
ATOM     16  H   UNL     1     -38.937  21.881   3.683  0.00  0.00    +0.295 HD
ENDBRANCH  14  15
ENDBRANCH   8  14
ENDBRANCH   7   8
ENDBRANCH   6   7
ENDBRANCH   4   6
ENDBRANCH   1   3
BRANCH   1  19
ATOM     17  O   UNL     1     -36.024  23.027   5.899  0.00  0.00    -0.273 OA
ATOM     18  N   UNL     1     -35.645  22.648   3.642  0.00  0.00    -0.294 N 
ATOM     19  C   ACE A   1     -35.990  23.428   4.738  0.00  0.00    +0.242 C 
ATOM     20  H   UNL     1     -35.647  23.061   2.749  0.00  0.00    +0.150 HD
BRANCH  18  21
ATOM     21  CA  UNL     1     -35.285  21.255   3.760  0.00  0.00    +0.200 C 
BRANCH  21  23
ATOM     22  OXT UNL     1     -34.822  20.398   1.558  0.00  0.00    -0.248 OA
ATOM     23  C   UNL     1     -35.586  20.463   2.513  0.00  0.00    +0.334 C 
BRANCH  23  24
ATOM     24  O   UNL     1     -36.782  19.831   2.550  0.00  0.00    -0.479 OA
ATOM     25  H   UNL     1     -37.508  20.226   2.991  0.00  0.00    +0.295 HD
ENDBRANCH  23  24
ENDBRANCH  21  23
ENDBRANCH  18  21
ENDBRANCH   1  19
BRANCH   1  26
ATOM     26  CB  UNL     1     -35.844  25.896   5.385  0.00  0.00    +0.092 C 
BRANCH  26  27
ATOM     27  SG  UNL     1     -34.046  25.883   5.688  0.00  0.00    -0.099 S 
BRANCH  27  30
ATOM     28 CL   UNL     1     -32.292  28.214   5.210  0.00  0.00    -0.075 Cl
ATOM     29 CL   UNL     1     -33.807  28.609   2.341  0.00  0.00    -0.080 Cl
ATOM     30  C   UNL     1     -33.582  27.197   4.658  0.00  0.00    +0.094 C 
ATOM     31  C   UNL     1     -34.180  27.376   3.474  0.00  0.00    +0.086 C 
ENDBRANCH  27  30
ENDBRANCH  26  27
ENDBRANCH   1  26
TORSDOF 14
ENDMDL
MODEL 4
REMARK VINA RESULT:      -5.1      4.290      6.222
REMARK  Name = 20838866
REMARK  14 active torsions:
REMARK  status: ('A' for Active; 'I' for Inactive)
REMARK    1  A    between atoms: CA_1  and  N_3
REMARK    2  A    between atoms: CA_1  and  C_19
REMARK    3  A    between atoms: CA_1  and  CB_26
REMARK    4  A    between atoms: C_4  and  C_6
REMARK    5  A    between atoms: C_6  and  C_7
REMARK    6  A    between atoms: C_7  and  CA_8
REMARK    7  A    between atoms: CA_8  and  N_9
REMARK    8  A    between atoms: CA_8  and  C_14
REMARK    9  A    between atoms: C_14  and  O_15
REMARK   10  A    between atoms: N_18  and  CA_21
REMARK   11  A    between atoms: CA_21  and  C_23
REMARK   12  A    between atoms: C_23  and  O_24
REMARK   13  A    between atoms: CB_26  and  SG_27
REMARK   14  A    between atoms: SG_27  and  C_30
REMARK                            x       y       z     vdW  Elec       q    Type
REMARK                         _______ _______ _______ _____ _____    ______ ____
ROOT
ATOM      1  CA  UNL     1     -35.877  22.496   2.401  0.00  0.00    +0.160 C 
ENDROOT
BRANCH   1   3
ATOM      2  O   UNL     1     -36.262  22.633   5.257  0.00  0.00    -0.275 OA
ATOM      3  N   UNL     1     -35.215  23.386   3.326  0.00  0.00    -0.298 N 
ATOM      4  C   UNL     1     -35.468  23.377   4.691  0.00  0.00    +0.223 C 
ATOM      5  H   UNL     1     -34.556  24.027   2.973  0.00  0.00    +0.150 HD
BRANCH   4   6
ATOM      6  C   UNL     1     -34.640  24.422   5.419  0.00  0.00    +0.083 C 
BRANCH   6   7
ATOM      7  C   UNL     1     -33.911  25.362   4.457  0.00  0.00    -0.001 C 
BRANCH   7   8
ATOM      8  CA  UNL     1     -34.539  26.759   4.398  0.00  0.00    +0.036 C 
BRANCH   8   9
ATOM      9  N   UNL     1     -35.826  26.747   5.096  0.00  0.00    +0.389 N 
ATOM     10  H1  UNL     1     -36.196  25.797   5.111  0.00  0.00    -0.088 HD
ATOM     11  H2  UNL     1     -36.482  27.359   4.612  0.00  0.00    -0.088 HD
ATOM     12  H3  UNL     1     -35.697  27.077   6.054  0.00  0.00    -0.088 HD
ENDBRANCH   8   9
BRANCH   8  14
ATOM     13  OXT UNL     1     -34.509  28.250   2.470  0.00  0.00    -0.253 OA
ATOM     14  C   UNL     1     -34.825  27.176   2.966  0.00  0.00    +0.293 C 
BRANCH  14  15
ATOM     15  O   UNL     1     -35.509  26.225   2.279  0.00  0.00    -0.482 OA
ATOM     16  H   UNL     1     -35.880  25.494   2.734  0.00  0.00    +0.295 HD
ENDBRANCH  14  15
ENDBRANCH   8  14
ENDBRANCH   7   8
ENDBRANCH   6   7
ENDBRANCH   4   6
ENDBRANCH   1   3
BRANCH   1  19
ATOM     17  O   UNL     1     -38.265  22.097   2.567  0.00  0.00    -0.273 OA
ATOM     18  N   UNL     1     -37.530  24.193   1.899  0.00  0.00    -0.294 N 
ATOM     19  C   ACE A   1     -37.353  22.880   2.315  0.00  0.00    +0.242 C 
ATOM     20  H   UNL     1     -36.733  24.743   1.721  0.00  0.00    +0.150 HD
BRANCH  18  21
ATOM     21  CA  UNL     1     -38.834  24.783   1.717  0.00  0.00    +0.200 C 
BRANCH  21  23
ATOM     22  OXT UNL     1     -40.055  26.684   2.548  0.00  0.00    -0.248 OA
ATOM     23  C   UNL     1     -39.094  25.933   2.656  0.00  0.00    +0.334 C 
BRANCH  23  24
ATOM     24  O   UNL     1     -38.163  26.057   3.630  0.00  0.00    -0.479 OA
ATOM     25  H   UNL     1     -37.744  26.882   3.777  0.00  0.00    +0.295 HD
ENDBRANCH  23  24
ENDBRANCH  21  23
ENDBRANCH  18  21
ENDBRANCH   1  19
BRANCH   1  26
ATOM     26  CB  UNL     1     -35.653  21.022   2.750  0.00  0.00    +0.092 C 
BRANCH  26  27
ATOM     27  SG  UNL     1     -35.712  19.909   1.308  0.00  0.00    -0.099 S 
BRANCH  27  30
ATOM     28 CL   UNL     1     -33.188  21.088   0.319  0.00  0.00    -0.075 Cl
ATOM     29 CL   UNL     1     -31.699  18.308   1.177  0.00  0.00    -0.080 Cl
ATOM     30  C   UNL     1     -34.012  19.734   1.021  0.00  0.00    +0.094 C 
ATOM     31  C   UNL     1     -33.376  18.610   1.372  0.00  0.00    +0.086 C 
ENDBRANCH  27  30
ENDBRANCH  26  27
ENDBRANCH   1  26
TORSDOF 14
ENDMDL
MODEL 5
REMARK VINA RESULT:      -5.1      5.787      8.454
REMARK  Name = 20838866
REMARK  14 active torsions:
REMARK  status: ('A' for Active; 'I' for Inactive)
REMARK    1  A    between atoms: CA_1  and  N_3
REMARK    2  A    between atoms: CA_1  and  C_19
REMARK    3  A    between atoms: CA_1  and  CB_26
REMARK    4  A    between atoms: C_4  and  C_6
REMARK    5  A    between atoms: C_6  and  C_7
REMARK    6  A    between atoms: C_7  and  CA_8
REMARK    7  A    between atoms: CA_8  and  N_9
REMARK    8  A    between atoms: CA_8  and  C_14
REMARK    9  A    between atoms: C_14  and  O_15
REMARK   10  A    between atoms: N_18  and  CA_21
REMARK   11  A    between atoms: CA_21  and  C_23
REMARK   12  A    between atoms: C_23  and  O_24
REMARK   13  A    between atoms: CB_26  and  SG_27
REMARK   14  A    between atoms: SG_27  and  C_30
REMARK                            x       y       z     vdW  Elec       q    Type
REMARK                         _______ _______ _______ _____ _____    ______ ____
ROOT
ATOM      1  CA  UNL     1     -37.361  20.976   1.723  0.00  0.00    +0.160 C 
ENDROOT
BRANCH   1   3
ATOM      2  O   UNL     1     -40.235  21.146   1.910  0.00  0.00    -0.275 OA
ATOM      3  N   UNL     1     -38.157  22.178   1.810  0.00  0.00    -0.298 N 
ATOM      4  C   UNL     1     -39.542  22.159   1.897  0.00  0.00    +0.223 C 
ATOM      5  H   UNL     1     -37.697  23.049   1.808  0.00  0.00    +0.150 HD
BRANCH   4   6
ATOM      6  C   UNL     1     -40.116  23.563   1.967  0.00  0.00    +0.083 C 
BRANCH   6   7
ATOM      7  C   UNL     1     -39.362  24.548   1.071  0.00  0.00    -0.001 C 
BRANCH   7   8
ATOM      8  CA  UNL     1     -38.947  25.826   1.807  0.00  0.00    +0.036 C 
BRANCH   8   9
ATOM      9  N   UNL     1     -38.575  26.854   0.832  0.00  0.00    +0.389 N 
ATOM     10  H1  UNL     1     -39.376  27.461   0.657  0.00  0.00    -0.088 HD
ATOM     11  H2  UNL     1     -38.289  26.409  -0.039  0.00  0.00    -0.088 HD
ATOM     12  H3  UNL     1     -37.802  27.409   1.201  0.00  0.00    -0.088 HD
ENDBRANCH   8   9
BRANCH   8  14
ATOM     13  OXT UNL     1     -36.768  24.892   2.371  0.00  0.00    -0.253 OA
ATOM     14  C   UNL     1     -37.726  25.590   2.678  0.00  0.00    +0.293 C 
BRANCH  14  15
ATOM     15  O   UNL     1     -37.817  26.225   3.876  0.00  0.00    -0.482 OA
ATOM     16  H   UNL     1     -37.074  26.679   4.222  0.00  0.00    +0.295 HD
ENDBRANCH  14  15
ENDBRANCH   8  14
ENDBRANCH   7   8
ENDBRANCH   6   7
ENDBRANCH   4   6
ENDBRANCH   1   3
BRANCH   1  19
ATOM     17  O   UNL     1     -35.265  20.273   2.725  0.00  0.00    -0.273 OA
ATOM     18  N   UNL     1     -36.270  22.218   3.492  0.00  0.00    -0.294 N 
ATOM     19  C   ACE A   1     -36.177  21.097   2.679  0.00  0.00    +0.242 C 
ATOM     20  H   UNL     1     -37.041  22.820   3.378  0.00  0.00    +0.150 HD
BRANCH  18  21
ATOM     21  CA  UNL     1     -35.283  22.538   4.495  0.00  0.00    +0.200 C 
BRANCH  21  23
ATOM     22  OXT UNL     1     -36.029  22.287   6.770  0.00  0.00    -0.248 OA
ATOM     23  C   UNL     1     -35.496  21.790   5.787  0.00  0.00    +0.334 C 
BRANCH  23  24
ATOM     24  O   UNL     1     -35.039  20.517   5.755  0.00  0.00    -0.479 OA
ATOM     25  H   UNL     1     -34.497  20.195   6.448  0.00  0.00    +0.295 HD
ENDBRANCH  23  24
ENDBRANCH  21  23
ENDBRANCH  18  21
ENDBRANCH   1  19
BRANCH   1  26
ATOM     26  CB  UNL     1     -36.950  20.653   0.284  0.00  0.00    +0.092 C 
BRANCH  26  27
ATOM     27  SG  UNL     1     -36.817  18.867  -0.058  0.00  0.00    -0.099 S 
BRANCH  27  30
ATOM     28 CL   UNL     1     -38.910  16.955  -0.896  0.00  0.00    -0.075 Cl
ATOM     29 CL   UNL     1     -40.728  19.524  -1.780  0.00  0.00    -0.080 Cl
ATOM     30  C   UNL     1     -38.384  18.600  -0.750  0.00  0.00    +0.094 C 
ATOM     31  C   UNL     1     -39.151  19.634  -1.112  0.00  0.00    +0.086 C 
ENDBRANCH  27  30
ENDBRANCH  26  27
ENDBRANCH   1  26
TORSDOF 14
ENDMDL
MODEL 6
REMARK VINA RESULT:      -5.1      3.572      4.377
REMARK  Name = 20838866
REMARK  14 active torsions:
REMARK  status: ('A' for Active; 'I' for Inactive)
REMARK    1  A    between atoms: CA_1  and  N_3
REMARK    2  A    between atoms: CA_1  and  C_19
REMARK    3  A    between atoms: CA_1  and  CB_26
REMARK    4  A    between atoms: C_4  and  C_6
REMARK    5  A    between atoms: C_6  and  C_7
REMARK    6  A    between atoms: C_7  and  CA_8
REMARK    7  A    between atoms: CA_8  and  N_9
REMARK    8  A    between atoms: CA_8  and  C_14
REMARK    9  A    between atoms: C_14  and  O_15
REMARK   10  A    between atoms: N_18  and  CA_21
REMARK   11  A    between atoms: CA_21  and  C_23
REMARK   12  A    between atoms: C_23  and  O_24
REMARK   13  A    between atoms: CB_26  and  SG_27
REMARK   14  A    between atoms: SG_27  and  C_30
REMARK                            x       y       z     vdW  Elec       q    Type
REMARK                         _______ _______ _______ _____ _____    ______ ____
ROOT
ATOM      1  CA  UNL     1     -35.510  26.825   2.241  0.00  0.00    +0.160 C 
ENDROOT
BRANCH   1   3
ATOM      2  O   UNL     1     -33.943  27.392   4.596  0.00  0.00    -0.275 OA
ATOM      3  N   UNL     1     -35.474  26.060   3.466  0.00  0.00    -0.298 N 
ATOM      4  C   UNL     1     -34.684  26.415   4.551  0.00  0.00    +0.223 C 
ATOM      5  H   UNL     1     -36.034  25.253   3.535  0.00  0.00    +0.150 HD
BRANCH   4   6
ATOM      6  C   UNL     1     -34.836  25.430   5.697  0.00  0.00    +0.083 C 
BRANCH   6   7
ATOM      7  C   UNL     1     -34.379  24.019   5.319  0.00  0.00    -0.001 C 
BRANCH   7   8
ATOM      8  CA  UNL     1     -35.457  22.958   5.566  0.00  0.00    +0.036 C 
BRANCH   8   9
ATOM      9  N   UNL     1     -34.822  21.695   5.948  0.00  0.00    +0.389 N 
ATOM     10  H1  UNL     1     -35.481  20.928   5.808  0.00  0.00    -0.088 HD
ATOM     11  H2  UNL     1     -34.550  21.734   6.930  0.00  0.00    -0.088 HD
ATOM     12  H3  UNL     1     -33.994  21.542   5.371  0.00  0.00    -0.088 HD
ENDBRANCH   8   9
BRANCH   8  14
ATOM     13  OXT UNL     1     -37.101  23.427   3.829  0.00  0.00    -0.253 OA
ATOM     14  C   UNL     1     -36.257  22.679   4.306  0.00  0.00    +0.293 C 
BRANCH  14  15
ATOM     15  O   UNL     1     -35.955  21.473   3.759  0.00  0.00    -0.482 OA
ATOM     16  H   UNL     1     -36.257  20.686   4.167  0.00  0.00    +0.295 HD
ENDBRANCH  14  15
ENDBRANCH   8  14
ENDBRANCH   7   8
ENDBRANCH   6   7
ENDBRANCH   4   6
ENDBRANCH   1   3
BRANCH   1  19
ATOM     17  O   UNL     1     -37.382  28.056   1.309  0.00  0.00    -0.273 OA
ATOM     18  N   UNL     1     -37.750  25.914   2.118  0.00  0.00    -0.294 N 
ATOM     19  C   ACE A   1     -36.966  27.021   1.824  0.00  0.00    +0.242 C 
ATOM     20  H   UNL     1     -37.323  25.129   2.532  0.00  0.00    +0.150 HD
BRANCH  18  21
ATOM     21  CA  UNL     1     -39.166  25.866   1.841  0.00  0.00    +0.200 C 
BRANCH  21  23
ATOM     22  OXT UNL     1     -40.847  26.755   3.316  0.00  0.00    -0.248 OA
ATOM     23  C   UNL     1     -40.010  25.892   3.089  0.00  0.00    +0.334 C 
BRANCH  23  24
ATOM     24  O   UNL     1     -39.752  24.868   3.936  0.00  0.00    -0.479 OA
ATOM     25  H   UNL     1     -39.197  25.002   4.679  0.00  0.00    +0.295 HD
ENDBRANCH  23  24
ENDBRANCH  21  23
ENDBRANCH  18  21
ENDBRANCH   1  19
BRANCH   1  26
ATOM     26  CB  UNL     1     -34.641  26.206   1.143  0.00  0.00    +0.092 C 
BRANCH  26  27
ATOM     27  SG  UNL     1     -34.460  24.397   1.283  0.00  0.00    -0.099 S 
BRANCH  27  30
ATOM     28 CL   UNL     1     -36.638  22.553   0.512  0.00  0.00    -0.075 Cl
ATOM     29 CL   UNL     1     -36.910  24.238  -2.275  0.00  0.00    -0.080 Cl
ATOM     30  C   UNL     1     -35.636  23.908   0.108  0.00  0.00    +0.094 C 
ATOM     31  C   UNL     1     -35.774  24.586  -1.037  0.00  0.00    +0.086 C 
ENDBRANCH  27  30
ENDBRANCH  26  27
ENDBRANCH   1  26
TORSDOF 14
ENDMDL
MODEL 7
REMARK VINA RESULT:      -5.0      4.165      7.176
REMARK  Name = 20838866
REMARK  14 active torsions:
REMARK  status: ('A' for Active; 'I' for Inactive)
REMARK    1  A    between atoms: CA_1  and  N_3
REMARK    2  A    between atoms: CA_1  and  C_19
REMARK    3  A    between atoms: CA_1  and  CB_26
REMARK    4  A    between atoms: C_4  and  C_6
REMARK    5  A    between atoms: C_6  and  C_7
REMARK    6  A    between atoms: C_7  and  CA_8
REMARK    7  A    between atoms: CA_8  and  N_9
REMARK    8  A    between atoms: CA_8  and  C_14
REMARK    9  A    between atoms: C_14  and  O_15
REMARK   10  A    between atoms: N_18  and  CA_21
REMARK   11  A    between atoms: CA_21  and  C_23
REMARK   12  A    between atoms: C_23  and  O_24
REMARK   13  A    between atoms: CB_26  and  SG_27
REMARK   14  A    between atoms: SG_27  and  C_30
REMARK                            x       y       z     vdW  Elec       q    Type
REMARK                         _______ _______ _______ _____ _____    ______ ____
ROOT
ATOM      1  CA  UNL     1     -36.317  21.062   2.465  0.00  0.00    +0.160 C 
ENDROOT
BRANCH   1   3
ATOM      2  O   UNL     1     -35.042  20.644   5.019  0.00  0.00    -0.275 OA
ATOM      3  N   UNL     1     -36.107  22.044   3.503  0.00  0.00    -0.298 N 
ATOM      4  C   UNL     1     -35.479  21.746   4.705  0.00  0.00    +0.223 C 
ATOM      5  H   UNL     1     -36.422  22.965   3.352  0.00  0.00    +0.150 HD
BRANCH   4   6
ATOM      6  C   UNL     1     -35.402  22.963   5.611  0.00  0.00    +0.083 C 
BRANCH   6   7
ATOM      7  C   UNL     1     -35.926  24.230   4.932  0.00  0.00    -0.001 C 
BRANCH   7   8
ATOM      8  CA  UNL     1     -35.430  25.515   5.605  0.00  0.00    +0.036 C 
BRANCH   8   9
ATOM      9  N   UNL     1     -36.332  26.620   5.275  0.00  0.00    +0.389 N 
ATOM     10  H1  UNL     1     -37.294  26.343   5.469  0.00  0.00    -0.088 HD
ATOM     11  H2  UNL     1     -36.237  26.853   4.287  0.00  0.00    -0.088 HD
ATOM     12  H3  UNL     1     -36.093  27.435   5.841  0.00  0.00    -0.088 HD
ENDBRANCH   8   9
BRANCH   8  14
ATOM     13  OXT UNL     1     -33.353  25.223   4.364  0.00  0.00    -0.253 OA
ATOM     14  C   UNL     1     -34.054  25.909   5.097  0.00  0.00    +0.293 C 
BRANCH  14  15
ATOM     15  O   UNL     1     -33.656  27.118   5.571  0.00  0.00    -0.482 OA
ATOM     16  H   UNL     1     -32.800  27.441   5.369  0.00  0.00    +0.295 HD
ENDBRANCH  14  15
ENDBRANCH   8  14
ENDBRANCH   7   8
ENDBRANCH   6   7
ENDBRANCH   4   6
ENDBRANCH   1   3
BRANCH   1  19
ATOM     17  O   UNL     1     -34.421  21.628   1.061  0.00  0.00    -0.273 OA
ATOM     18  N   UNL     1     -34.525  19.505   1.989  0.00  0.00    -0.294 N 
ATOM     19  C   ACE A   1     -34.989  20.794   1.762  0.00  0.00    +0.242 C 
ATOM     20  H   UNL     1     -35.053  18.908   2.567  0.00  0.00    +0.150 HD
BRANCH  18  21
ATOM     21  CA  UNL     1     -33.300  19.005   1.411  0.00  0.00    +0.200 C 
BRANCH  21  23
ATOM     22  OXT UNL     1     -32.748  17.740  -0.561  0.00  0.00    -0.248 OA
ATOM     23  C   UNL     1     -33.536  17.961   0.349  0.00  0.00    +0.334 C 
BRANCH  23  24
ATOM     24  O   UNL     1     -34.702  17.292   0.499  0.00  0.00    -0.479 OA
ATOM     25  H   UNL     1     -35.282  17.191  -0.230  0.00  0.00    +0.295 HD
ENDBRANCH  23  24
ENDBRANCH  21  23
ENDBRANCH  18  21
ENDBRANCH   1  19
BRANCH   1  26
ATOM     26  CB  UNL     1     -37.443  21.460   1.507  0.00  0.00    +0.092 C 
BRANCH  26  27
ATOM     27  SG  UNL     1     -38.639  22.632   2.227  0.00  0.00    -0.099 S 
BRANCH  27  30
ATOM     28 CL   UNL     1     -36.641  24.471   1.059  0.00  0.00    -0.075 Cl
ATOM     29 CL   UNL     1     -39.112  26.020  -0.417  0.00  0.00    -0.080 Cl
ATOM     30  C   UNL     1     -38.303  24.015   1.236  0.00  0.00    +0.094 C 
ATOM     31  C   UNL     1     -39.296  24.661   0.614  0.00  0.00    +0.086 C 
ENDBRANCH  27  30
ENDBRANCH  26  27
ENDBRANCH   1  26
TORSDOF 14
ENDMDL
MODEL 8
REMARK VINA RESULT:      -5.0      4.307      6.959
REMARK  Name = 20838866
REMARK  14 active torsions:
REMARK  status: ('A' for Active; 'I' for Inactive)
REMARK    1  A    between atoms: CA_1  and  N_3
REMARK    2  A    between atoms: CA_1  and  C_19
REMARK    3  A    between atoms: CA_1  and  CB_26
REMARK    4  A    between atoms: C_4  and  C_6
REMARK    5  A    between atoms: C_6  and  C_7
REMARK    6  A    between atoms: C_7  and  CA_8
REMARK    7  A    between atoms: CA_8  and  N_9
REMARK    8  A    between atoms: CA_8  and  C_14
REMARK    9  A    between atoms: C_14  and  O_15
REMARK   10  A    between atoms: N_18  and  CA_21
REMARK   11  A    between atoms: CA_21  and  C_23
REMARK   12  A    between atoms: C_23  and  O_24
REMARK   13  A    between atoms: CB_26  and  SG_27
REMARK   14  A    between atoms: SG_27  and  C_30
REMARK                            x       y       z     vdW  Elec       q    Type
REMARK                         _______ _______ _______ _____ _____    ______ ____
ROOT
ATOM      1  CA  UNL     1     -36.349  24.818   4.846  0.00  0.00    +0.160 C 
ENDROOT
BRANCH   1   3
ATOM      2  O   UNL     1     -33.494  25.009   4.480  0.00  0.00    -0.275 OA
ATOM      3  N   UNL     1     -35.432  25.658   5.581  0.00  0.00    -0.298 N 
ATOM      4  C   UNL     1     -34.068  25.682   5.331  0.00  0.00    +0.223 C 
ATOM      5  H   UNL     1     -35.792  26.241   6.290  0.00  0.00    +0.150 HD
BRANCH   4   6
ATOM      6  C   UNL     1     -33.347  26.647   6.256  0.00  0.00    +0.083 C 
BRANCH   6   7
ATOM      7  C   UNL     1     -32.566  27.717   5.491  0.00  0.00    -0.001 C 
BRANCH   7   8
ATOM      8  CA  UNL     1     -31.817  28.683   6.415  0.00  0.00    +0.036 C 
BRANCH   8   9
ATOM      9  N   UNL     1     -32.146  30.063   6.050  0.00  0.00    +0.389 N 
ATOM     10  H1  UNL     1     -33.145  30.133   5.854  0.00  0.00    -0.088 HD
ATOM     11  H2  UNL     1     -31.617  30.332   5.222  0.00  0.00    -0.088 HD
ATOM     12  H3  UNL     1     -31.907  30.685   6.824  0.00  0.00    -0.088 HD
ENDBRANCH   8   9
BRANCH   8  14
ATOM     13  OXT UNL     1     -29.587  29.335   5.679  0.00  0.00    -0.253 OA
ATOM     14  C   UNL     1     -30.313  28.540   6.261  0.00  0.00    +0.293 C 
BRANCH  14  15
ATOM     15  O   UNL     1     -29.844  27.396   6.825  0.00  0.00    -0.482 OA
ATOM     16  H   UNL     1     -30.349  26.956   7.479  0.00  0.00    +0.295 HD
ENDBRANCH  14  15
ENDBRANCH   8  14
ENDBRANCH   7   8
ENDBRANCH   6   7
ENDBRANCH   4   6
ENDBRANCH   1   3
BRANCH   1  19
ATOM     17  O   UNL     1     -35.899  22.831   6.164  0.00  0.00    -0.273 OA
ATOM     18  N   UNL     1     -35.654  22.719   3.860  0.00  0.00    -0.294 N 
ATOM     19  C   ACE A   1     -35.957  23.357   5.055  0.00  0.00    +0.242 C 
ATOM     20  H   UNL     1     -35.731  23.228   3.020  0.00  0.00    +0.150 HD
BRANCH  18  21
ATOM     21  CA  UNL     1     -35.232  21.340   3.798  0.00  0.00    +0.200 C 
BRANCH  21  23
ATOM     22  OXT UNL     1     -35.053  20.812   1.456  0.00  0.00    -0.248 OA
ATOM     23  C   UNL     1     -35.642  20.657   2.518  0.00  0.00    +0.334 C 
BRANCH  23  24
ATOM     24  O   UNL     1     -36.724  19.857   2.655  0.00  0.00    -0.479 OA
ATOM     25  H   UNL     1     -37.489  20.008   2.136  0.00  0.00    +0.295 HD
ENDBRANCH  23  24
ENDBRANCH  21  23
ENDBRANCH  18  21
ENDBRANCH   1  19
BRANCH   1  26
ATOM     26  CB  UNL     1     -36.448  25.216   3.371  0.00  0.00    +0.092 C 
BRANCH  26  27
ATOM     27  SG  UNL     1     -38.144  25.608   2.829  0.00  0.00    -0.099 S 
BRANCH  27  30
ATOM     28 CL   UNL     1     -40.024  23.407   2.225  0.00  0.00    -0.075 Cl
ATOM     29 CL   UNL     1     -37.833  22.294   0.070  0.00  0.00    -0.080 Cl
ATOM     30  C   UNL     1     -38.491  24.162   1.937  0.00  0.00    +0.094 C 
ATOM     31  C   UNL     1     -37.615  23.690   1.043  0.00  0.00    +0.086 C 
ENDBRANCH  27  30
ENDBRANCH  26  27
ENDBRANCH   1  26
TORSDOF 14
ENDMDL
MODEL 9
REMARK VINA RESULT:      -5.0      3.533      5.953
REMARK  Name = 20838866
REMARK  14 active torsions:
REMARK  status: ('A' for Active; 'I' for Inactive)
REMARK    1  A    between atoms: CA_1  and  N_3
REMARK    2  A    between atoms: CA_1  and  C_19
REMARK    3  A    between atoms: CA_1  and  CB_26
REMARK    4  A    between atoms: C_4  and  C_6
REMARK    5  A    between atoms: C_6  and  C_7
REMARK    6  A    between atoms: C_7  and  CA_8
REMARK    7  A    between atoms: CA_8  and  N_9
REMARK    8  A    between atoms: CA_8  and  C_14
REMARK    9  A    between atoms: C_14  and  O_15
REMARK   10  A    between atoms: N_18  and  CA_21
REMARK   11  A    between atoms: CA_21  and  C_23
REMARK   12  A    between atoms: C_23  and  O_24
REMARK   13  A    between atoms: CB_26  and  SG_27
REMARK   14  A    between atoms: SG_27  and  C_30
REMARK                            x       y       z     vdW  Elec       q    Type
REMARK                         _______ _______ _______ _____ _____    ______ ____
ROOT
ATOM      1  CA  UNL     1     -32.872  28.032   3.803  0.00  0.00    +0.160 C 
ENDROOT
BRANCH   1   3
ATOM      2  O   UNL     1     -33.286  25.291   4.603  0.00  0.00    -0.275 OA
ATOM      3  N   UNL     1     -33.998  27.500   4.536  0.00  0.00    -0.298 N 
ATOM      4  C   UNL     1     -34.109  26.160   4.877  0.00  0.00    +0.223 C 
ATOM      5  H   UNL     1     -34.717  28.116   4.807  0.00  0.00    +0.150 HD
BRANCH   4   6
ATOM      6  C   UNL     1     -35.395  25.881   5.635  0.00  0.00    +0.083 C 
BRANCH   6   7
ATOM      7  C   UNL     1     -36.001  24.523   5.277  0.00  0.00    -0.001 C 
BRANCH   7   8
ATOM      8  CA  UNL     1     -36.732  24.533   3.930  0.00  0.00    +0.036 C 
BRANCH   8   9
ATOM      9  N   UNL     1     -38.120  24.956   4.130  0.00  0.00    +0.389 N 
ATOM     10  H1  UNL     1     -38.665  24.173   4.491  0.00  0.00    -0.088 HD
ATOM     11  H2  UNL     1     -38.513  25.263   3.241  0.00  0.00    -0.088 HD
ATOM     12  H3  UNL     1     -38.148  25.727   4.798  0.00  0.00    -0.088 HD
ENDBRANCH   8   9
BRANCH   8  14
ATOM     13  OXT UNL     1     -37.021  22.902   2.142  0.00  0.00    -0.253 OA
ATOM     14  C   UNL     1     -36.785  23.144   3.319  0.00  0.00    +0.293 C 
BRANCH  14  15
ATOM     15  O   UNL     1     -36.565  22.168   4.238  0.00  0.00    -0.482 OA
ATOM     16  H   UNL     1     -35.720  21.769   4.304  0.00  0.00    +0.295 HD
ENDBRANCH  14  15
ENDBRANCH   8  14
ENDBRANCH   7   8
ENDBRANCH   6   7
ENDBRANCH   4   6
ENDBRANCH   1   3
BRANCH   1  19
ATOM     17  O   UNL     1     -32.555  29.904   5.314  0.00  0.00    -0.273 OA
ATOM     18  N   UNL     1     -30.731  28.567   4.800  0.00  0.00    -0.294 N 
ATOM     19  C   ACE A   1     -32.066  28.942   4.728  0.00  0.00    +0.242 C 
ATOM     20  H   UNL     1     -30.434  27.778   4.291  0.00  0.00    +0.150 HD
BRANCH  18  21
ATOM     21  CA  UNL     1     -29.761  29.286   5.590  0.00  0.00    +0.200 C 
BRANCH  21  23
ATOM     22  OXT UNL     1     -28.051  28.737   7.193  0.00  0.00    -0.248 OA
ATOM     23  C   UNL     1     -29.088  28.421   6.625  0.00  0.00    +0.334 C 
BRANCH  23  24
ATOM     24  O   UNL     1     -29.741  27.260   6.865  0.00  0.00    -0.479 OA
ATOM     25  H   UNL     1     -30.149  26.797   6.160  0.00  0.00    +0.295 HD
ENDBRANCH  23  24
ENDBRANCH  21  23
ENDBRANCH  18  21
ENDBRANCH   1  19
BRANCH   1  26
ATOM     26  CB  UNL     1     -33.296  28.712   2.499  0.00  0.00    +0.092 C 
BRANCH  26  27
ATOM     27  SG  UNL     1     -34.988  28.291   1.968  0.00  0.00    -0.099 S 
BRANCH  27  30
ATOM     28 CL   UNL     1     -35.248  30.903   3.328  0.00  0.00    -0.075 Cl
ATOM     29 CL   UNL     1     -37.258  31.818   0.919  0.00  0.00    -0.080 Cl
ATOM     30  C   UNL     1     -35.693  29.874   2.007  0.00  0.00    +0.094 C 
ATOM     31  C   UNL     1     -36.512  30.277   1.028  0.00  0.00    +0.086 C 
ENDBRANCH  27  30
ENDBRANCH  26  27
ENDBRANCH   1  26
TORSDOF 14
ENDMDL
