MODEL 1
REMARK VINA RESULT:      -6.2      0.000      0.000
REMARK  Name = 53486414
REMARK  9 active torsions:
REMARK  status: ('A' for Active; 'I' for Inactive)
REMARK    1  A    between atoms: CA_5  and  N_11
REMARK    2  A    between atoms: CA_7  and  C_27
REMARK    3  A    between atoms: C_8  and  C_30
REMARK    4  A    between atoms: C_12  and  C_14
REMARK    5  A    between atoms: C_14  and  C_19
REMARK    6  A    between atoms: C_15  and  C_24
REMARK    7  A    between atoms: C_27  and  O_28
REMARK    8  A    between atoms: C_30  and  O_31
REMARK    9  A    between atoms: O_31  and  C_34
REMARK                            x       y       z     vdW  Elec       q    Type
REMARK                         _______ _______ _______ _____ _____    ______ ____
ROOT
ATOM      1  S   UNL     1     -36.876  25.329   1.901  0.00  0.00    -0.114 S 
ATOM      2  O   UNL     1     -33.693  24.049   5.042  0.00  0.00    -0.273 OA
ATOM      3  N   UNL     1     -35.118  25.527   3.882  0.00  0.00    -0.242 N 
ATOM      4  C   UNL     1     -36.496  25.129   3.658  0.00  0.00    +0.155 C 
ATOM      5  CA  UNL     1     -36.061  23.717   4.108  0.00  0.00    +0.179 C 
ATOM      6  C   UNL     1     -34.715  24.393   4.495  0.00  0.00    +0.251 C 
ATOM      7  CA  UNL     1     -34.606  26.725   3.502  0.00  0.00    +0.127 C 
ATOM      8  C   UNL     1     -35.259  27.528   2.628  0.00  0.00    +0.030 C 
ATOM      9  C   UNL     1     -36.553  27.126   1.923  0.00  0.00    +0.086 C 
ENDROOT
BRANCH   5  11
ATOM     10  O   UNL     1     -35.293  20.973   4.342  0.00  0.00    -0.270 OA
ATOM     11  N   UNL     1     -35.950  22.747   3.021  0.00  0.00    -0.293 N 
ATOM     12  C   UNL     1     -35.566  21.421   3.229  0.00  0.00    +0.248 C 
ATOM     13  H   UNL     1     -36.155  23.041   2.104  0.00  0.00    +0.150 HD
BRANCH  12  14
ATOM     14  C   UNL     1     -35.504  20.567   1.988  0.00  0.00    +0.075 C 
ATOM     15  C   UNL     1     -36.682  20.211   1.437  0.00  0.00    -0.019 C 
BRANCH  14  19
ATOM     16  S   UNL     1     -32.097  20.018   0.018  0.00  0.00    -0.060 S 
ATOM     17  N   UNL     1     -33.660  18.947   1.776  0.00  0.00    -0.385 NA
ATOM     18  N   UNL     1     -31.721  17.697   1.260  0.00  0.00    -0.328 N 
ATOM     19  C   UNL     1     -34.226  20.147   1.389  0.00  0.00    +0.127 C 
ATOM     20  C   UNL     1     -33.524  20.867   0.445  0.00  0.00    +0.125 C 
ATOM     21  C   UNL     1     -32.535  18.777   1.117  0.00  0.00    +0.204 C 
ATOM     22  H   UNL     1     -30.891  17.634   0.734  0.00  0.00    +0.145 HD
ATOM     23  H   UNL     1     -31.962  16.979   1.888  0.00  0.00    +0.145 HD
ENDBRANCH  14  19
BRANCH  15  24
ATOM     24  C   UNL     1     -36.901  19.395   0.190  0.00  0.00    +0.026 C 
ATOM     25  C   UNL     1     -38.302  19.601  -0.366  0.00  0.00    +0.005 C 
ENDBRANCH  15  24
ENDBRANCH  12  14
ENDBRANCH   5  11
BRANCH   7  27
ATOM     26  OXT UNL     1     -32.231  26.804   3.491  0.00  0.00    -0.244 OA
ATOM     27  C   UNL     1     -33.282  27.084   4.031  0.00  0.00    +0.352 C 
BRANCH  27  28
ATOM     28  O   UNL     1     -33.430  27.758   5.188  0.00  0.00    -0.476 OA
ATOM     29  H   UNL     1     -32.725  28.276   5.522  0.00  0.00    +0.295 HD
ENDBRANCH  27  28
ENDBRANCH   7  27
BRANCH   8  30
ATOM     30  C   UNL     1     -34.797  28.906   2.220  0.00  0.00    +0.235 C 
BRANCH  30  31
ATOM     31  O   UNL     1     -34.922  29.786   3.317  0.00  0.00    -0.430 OA
BRANCH  31  34
ATOM     32  O   UNL     1     -33.954  31.748   2.600  0.00  0.00    -0.227 OA
ATOM     33  N   UNL     1     -33.165  30.646   4.458  0.00  0.00    -0.295 N 
ATOM     34  C   UNL     1     -34.009  30.809   3.387  0.00  0.00    +0.399 C 
ATOM     35  H   UNL     1     -33.266  29.867   5.051  0.00  0.00    +0.148 HD
ATOM     36  H   UNL     1     -32.457  31.308   4.632  0.00  0.00    +0.148 HD
ENDBRANCH  31  34
ENDBRANCH  30  31
ENDBRANCH   8  30
TORSDOF 9
ENDMDL
MODEL 2
REMARK VINA RESULT:      -6.2      2.422      4.152
REMARK  Name = 53486414
REMARK  9 active torsions:
REMARK  status: ('A' for Active; 'I' for Inactive)
REMARK    1  A    between atoms: CA_5  and  N_11
REMARK    2  A    between atoms: CA_7  and  C_27
REMARK    3  A    between atoms: C_8  and  C_30
REMARK    4  A    between atoms: C_12  and  C_14
REMARK    5  A    between atoms: C_14  and  C_19
REMARK    6  A    between atoms: C_15  and  C_24
REMARK    7  A    between atoms: C_27  and  O_28
REMARK    8  A    between atoms: C_30  and  O_31
REMARK    9  A    between atoms: O_31  and  C_34
REMARK                            x       y       z     vdW  Elec       q    Type
REMARK                         _______ _______ _______ _____ _____    ______ ____
ROOT
ATOM      1  S   UNL     1     -35.102  22.523   0.397  0.00  0.00    -0.114 S 
ATOM      2  O   UNL     1     -35.106  20.828   4.729  0.00  0.00    -0.273 OA
ATOM      3  N   UNL     1     -35.666  22.311   2.983  0.00  0.00    -0.242 N 
ATOM      4  C   UNL     1     -36.083  21.756   1.708  0.00  0.00    +0.155 C 
ATOM      5  CA  UNL     1     -35.573  20.400   2.241  0.00  0.00    +0.179 C 
ATOM      6  C   UNL     1     -35.410  21.137   3.600  0.00  0.00    +0.251 C 
ATOM      7  CA  UNL     1     -35.623  23.642   3.251  0.00  0.00    +0.127 C 
ATOM      8  C   UNL     1     -35.685  24.564   2.261  0.00  0.00    +0.030 C 
ATOM      9  C   UNL     1     -35.706  24.204   0.777  0.00  0.00    +0.086 C 
ENDROOT
BRANCH   5  11
ATOM     10  O   UNL     1     -35.243  18.374   0.250  0.00  0.00    -0.270 OA
ATOM     11  N   UNL     1     -34.314  19.956   1.649  0.00  0.00    -0.293 N 
ATOM     12  C   UNL     1     -34.246  18.955   0.678  0.00  0.00    +0.248 C 
ATOM     13  H   UNL     1     -33.477  20.381   1.947  0.00  0.00    +0.150 HD
BRANCH  12  14
ATOM     14  C   UNL     1     -32.860  18.628   0.185  0.00  0.00    +0.075 C 
ATOM     15  C   UNL     1     -31.933  19.602   0.289  0.00  0.00    -0.019 C 
BRANCH  14  19
ATOM     16  S   UNL     1     -32.138  15.334  -1.917  0.00  0.00    -0.060 S 
ATOM     17  N   UNL     1     -32.031  16.325   0.468  0.00  0.00    -0.385 NA
ATOM     18  N   UNL     1     -31.310  14.082   0.278  0.00  0.00    -0.328 N 
ATOM     19  C   UNL     1     -32.517  17.308  -0.372  0.00  0.00    +0.127 C 
ATOM     20  C   UNL     1     -32.645  16.958  -1.700  0.00  0.00    +0.125 C 
ATOM     21  C   UNL     1     -31.797  15.241  -0.239  0.00  0.00    +0.204 C 
ATOM     22  H   UNL     1     -31.158  13.307  -0.310  0.00  0.00    +0.145 HD
ATOM     23  H   UNL     1     -31.110  14.017   1.240  0.00  0.00    +0.145 HD
ENDBRANCH  14  19
BRANCH  15  24
ATOM     24  C   UNL     1     -30.479  19.529  -0.097  0.00  0.00    +0.026 C 
ATOM     25  C   UNL     1     -30.049  20.769  -0.866  0.00  0.00    +0.005 C 
ENDBRANCH  15  24
ENDBRANCH  12  14
ENDBRANCH   5  11
BRANCH   7  27
ATOM     26  OXT UNL     1     -36.335  24.086   5.474  0.00  0.00    -0.244 OA
ATOM     27  C   UNL     1     -35.440  24.035   4.655  0.00  0.00    +0.352 C 
BRANCH  27  28
ATOM     28  O   UNL     1     -34.142  24.323   4.874  0.00  0.00    -0.476 OA
ATOM     29  H   UNL     1     -33.472  23.796   4.484  0.00  0.00    +0.295 HD
ENDBRANCH  27  28
ENDBRANCH   7  27
BRANCH   8  30
ATOM     30  C   UNL     1     -35.724  26.057   2.481  0.00  0.00    +0.235 C 
BRANCH  30  31
ATOM     31  O   UNL     1     -34.413  26.533   2.697  0.00  0.00    -0.430 OA
BRANCH  31  34
ATOM     32  O   UNL     1     -34.718  28.732   3.308  0.00  0.00    -0.227 OA
ATOM     33  N   UNL     1     -33.603  27.264   4.682  0.00  0.00    -0.295 N 
ATOM     34  C   UNL     1     -34.283  27.609   3.540  0.00  0.00    +0.399 C 
ATOM     35  H   UNL     1     -33.281  26.341   4.803  0.00  0.00    +0.148 HD
ATOM     36  H   UNL     1     -33.436  27.939   5.378  0.00  0.00    +0.148 HD
ENDBRANCH  31  34
ENDBRANCH  30  31
ENDBRANCH   8  30
TORSDOF 9
ENDMDL
MODEL 3
REMARK VINA RESULT:      -6.1      3.259      8.725
REMARK  Name = 53486414
REMARK  9 active torsions:
REMARK  status: ('A' for Active; 'I' for Inactive)
REMARK    1  A    between atoms: CA_5  and  N_11
REMARK    2  A    between atoms: CA_7  and  C_27
REMARK    3  A    between atoms: C_8  and  C_30
REMARK    4  A    between atoms: C_12  and  C_14
REMARK    5  A    between atoms: C_14  and  C_19
REMARK    6  A    between atoms: C_15  and  C_24
REMARK    7  A    between atoms: C_27  and  O_28
REMARK    8  A    between atoms: C_30  and  O_31
REMARK    9  A    between atoms: O_31  and  C_34
REMARK                            x       y       z     vdW  Elec       q    Type
REMARK                         _______ _______ _______ _____ _____    ______ ____
ROOT
ATOM      1  S   UNL     1     -33.328  25.537   2.505  0.00  0.00    -0.114 S 
ATOM      2  O   UNL     1     -36.358  26.446   5.915  0.00  0.00    -0.273 OA
ATOM      3  N   UNL     1     -35.395  25.225   4.142  0.00  0.00    -0.242 N 
ATOM      4  C   UNL     1     -33.955  25.042   4.127  0.00  0.00    +0.155 C 
ATOM      5  CA  UNL     1     -33.904  26.114   5.237  0.00  0.00    +0.179 C 
ATOM      6  C   UNL     1     -35.454  25.993   5.252  0.00  0.00    +0.251 C 
ATOM      7  CA  UNL     1     -36.234  24.694   3.216  0.00  0.00    +0.127 C 
ATOM      8  C   UNL     1     -35.770  24.196   2.045  0.00  0.00    +0.030 C 
ATOM      9  C   UNL     1     -34.305  24.275   1.620  0.00  0.00    +0.086 C 
ENDROOT
BRANCH   5  11
ATOM     10  O   UNL     1     -31.711  27.578   6.345  0.00  0.00    -0.270 OA
ATOM     11  N   UNL     1     -33.412  27.416   4.794  0.00  0.00    -0.293 N 
ATOM     12  C   UNL     1     -32.330  28.060   5.397  0.00  0.00    +0.248 C 
ATOM     13  H   UNL     1     -33.863  27.859   4.039  0.00  0.00    +0.150 HD
BRANCH  12  14
ATOM     14  C   UNL     1     -31.968  29.399   4.806  0.00  0.00    +0.075 C 
ATOM     15  C   UNL     1     -30.973  30.080   5.411  0.00  0.00    -0.019 C 
BRANCH  14  19
ATOM     16  S   UNL     1     -33.234  30.689   1.267  0.00  0.00    -0.060 S 
ATOM     17  N   UNL     1     -33.919  30.470   3.750  0.00  0.00    -0.385 NA
ATOM     18  N   UNL     1     -35.536  31.469   2.345  0.00  0.00    -0.328 N 
ATOM     19  C   UNL     1     -32.649  29.943   3.618  0.00  0.00    +0.127 C 
ATOM     20  C   UNL     1     -32.112  29.973   2.348  0.00  0.00    +0.125 C 
ATOM     21  C   UNL     1     -34.326  30.893   2.573  0.00  0.00    +0.204 C 
ATOM     22  H   UNL     1     -35.777  31.763   1.436  0.00  0.00    +0.145 HD
ATOM     23  H   UNL     1     -36.171  31.591   3.087  0.00  0.00    +0.145 HD
ENDBRANCH  14  19
BRANCH  15  24
ATOM     24  C   UNL     1     -30.400  31.414   5.011  0.00  0.00    +0.026 C 
ATOM     25  C   UNL     1     -28.881  31.405   5.078  0.00  0.00    +0.005 C 
ENDBRANCH  15  24
ENDBRANCH  12  14
ENDBRANCH   5  11
BRANCH   7  27
ATOM     26  OXT UNL     1     -38.372  23.762   3.676  0.00  0.00    -0.244 OA
ATOM     27  C   UNL     1     -37.673  24.742   3.513  0.00  0.00    +0.352 C 
BRANCH  27  28
ATOM     28  O   UNL     1     -38.075  26.027   3.570  0.00  0.00    -0.476 OA
ATOM     29  H   UNL     1     -38.189  26.446   4.400  0.00  0.00    +0.295 HD
ENDBRANCH  27  28
ENDBRANCH   7  27
BRANCH   8  30
ATOM     30  C   UNL     1     -36.626  23.517   1.003  0.00  0.00    +0.235 C 
BRANCH  30  31
ATOM     31  O   UNL     1     -36.235  22.166   0.882  0.00  0.00    -0.430 OA
BRANCH  31  34
ATOM     32  O   UNL     1     -35.723  20.796   2.661  0.00  0.00    -0.227 OA
ATOM     33  N   UNL     1     -37.908  21.211   2.073  0.00  0.00    -0.295 N 
ATOM     34  C   UNL     1     -36.548  21.343   1.935  0.00  0.00    +0.399 C 
ATOM     35  H   UNL     1     -38.513  21.679   1.454  0.00  0.00    +0.148 HD
ATOM     36  H   UNL     1     -38.277  20.647   2.791  0.00  0.00    +0.148 HD
ENDBRANCH  31  34
ENDBRANCH  30  31
ENDBRANCH   8  30
TORSDOF 9
ENDMDL
MODEL 4
REMARK VINA RESULT:      -6.1      2.167      3.072
REMARK  Name = 53486414
REMARK  9 active torsions:
REMARK  status: ('A' for Active; 'I' for Inactive)
REMARK    1  A    between atoms: CA_5  and  N_11
REMARK    2  A    between atoms: CA_7  and  C_27
REMARK    3  A    between atoms: C_8  and  C_30
REMARK    4  A    between atoms: C_12  and  C_14
REMARK    5  A    between atoms: C_14  and  C_19
REMARK    6  A    between atoms: C_15  and  C_24
REMARK    7  A    between atoms: C_27  and  O_28
REMARK    8  A    between atoms: C_30  and  O_31
REMARK    9  A    between atoms: O_31  and  C_34
REMARK                            x       y       z     vdW  Elec       q    Type
REMARK                         _______ _______ _______ _____ _____    ______ ____
ROOT
ATOM      1  S   UNL     1     -34.973  24.746   0.788  0.00  0.00    -0.114 S 
ATOM      2  O   UNL     1     -36.071  22.875   4.903  0.00  0.00    -0.273 OA
ATOM      3  N   UNL     1     -35.927  24.560   3.259  0.00  0.00    -0.242 N 
ATOM      4  C   UNL     1     -36.307  24.234   1.896  0.00  0.00    +0.155 C 
ATOM      5  CA  UNL     1     -36.294  22.758   2.348  0.00  0.00    +0.179 C 
ATOM      6  C   UNL     1     -36.112  23.329   3.783  0.00  0.00    +0.251 C 
ATOM      7  CA  UNL     1     -35.535  25.797   3.659  0.00  0.00    +0.127 C 
ATOM      8  C   UNL     1     -35.188  26.753   2.764  0.00  0.00    +0.030 C 
ATOM      9  C   UNL     1     -35.107  26.504   1.259  0.00  0.00    +0.086 C 
ENDROOT
BRANCH   5  11
ATOM     10  O   UNL     1     -36.347  20.108   1.273  0.00  0.00    -0.270 OA
ATOM     11  N   UNL     1     -35.149  21.991   1.863  0.00  0.00    -0.293 N 
ATOM     12  C   UNL     1     -35.269  20.697   1.352  0.00  0.00    +0.248 C 
ATOM     13  H   UNL     1     -34.256  22.403   1.897  0.00  0.00    +0.150 HD
BRANCH  12  14
ATOM     14  C   UNL     1     -33.978  20.061   0.902  0.00  0.00    +0.075 C 
ATOM     15  C   UNL     1     -33.586  18.952   1.562  0.00  0.00    -0.019 C 
BRANCH  14  19
ATOM     16  S   UNL     1     -32.156  21.066  -2.483  0.00  0.00    -0.060 S 
ATOM     17  N   UNL     1     -32.292  21.633   0.035  0.00  0.00    -0.385 NA
ATOM     18  N   UNL     1     -30.758  22.934  -1.208  0.00  0.00    -0.328 N 
ATOM     19  C   UNL     1     -33.181  20.606  -0.210  0.00  0.00    +0.127 C 
ATOM     20  C   UNL     1     -33.248  20.164  -1.515  0.00  0.00    +0.125 C 
ATOM     21  C   UNL     1     -31.696  21.956  -1.092  0.00  0.00    +0.204 C 
ATOM     22  H   UNL     1     -30.351  23.124  -2.084  0.00  0.00    +0.145 HD
ATOM     23  H   UNL     1     -30.486  23.452  -0.416  0.00  0.00    +0.145 HD
ENDBRANCH  14  19
BRANCH  15  24
ATOM     24  C   UNL     1     -32.364  18.112   1.297  0.00  0.00    +0.026 C 
ATOM     25  C   UNL     1     -32.682  16.953   0.364  0.00  0.00    +0.005 C 
ENDBRANCH  15  24
ENDBRANCH  12  14
ENDBRANCH   5  11
BRANCH   7  27
ATOM     26  OXT UNL     1     -34.445  25.826   5.771  0.00  0.00    -0.244 OA
ATOM     27  C   UNL     1     -35.442  26.032   5.107  0.00  0.00    +0.352 C 
BRANCH  27  28
ATOM     28  O   UNL     1     -36.620  26.501   5.561  0.00  0.00    -0.476 OA
ATOM     29  H   UNL     1     -36.637  27.181   6.206  0.00  0.00    +0.295 HD
ENDBRANCH  27  28
ENDBRANCH   7  27
BRANCH   8  30
ATOM     30  C   UNL     1     -34.820  28.172   3.125  0.00  0.00    +0.235 C 
BRANCH  30  31
ATOM     31  O   UNL     1     -33.457  28.392   2.828  0.00  0.00    -0.430 OA
BRANCH  31  34
ATOM     32  O   UNL     1     -31.635  27.151   3.495  0.00  0.00    -0.227 OA
ATOM     33  N   UNL     1     -32.793  28.458   4.992  0.00  0.00    -0.295 N 
ATOM     34  C   UNL     1     -32.549  27.931   3.748  0.00  0.00    +0.399 C 
ATOM     35  H   UNL     1     -33.545  29.079   5.125  0.00  0.00    +0.148 HD
ATOM     36  H   UNL     1     -32.217  28.213   5.753  0.00  0.00    +0.148 HD
ENDBRANCH  31  34
ENDBRANCH  30  31
ENDBRANCH   8  30
TORSDOF 9
ENDMDL
MODEL 5
REMARK VINA RESULT:      -6.1      2.838      8.804
REMARK  Name = 53486414
REMARK  9 active torsions:
REMARK  status: ('A' for Active; 'I' for Inactive)
REMARK    1  A    between atoms: CA_5  and  N_11
REMARK    2  A    between atoms: CA_7  and  C_27
REMARK    3  A    between atoms: C_8  and  C_30
REMARK    4  A    between atoms: C_12  and  C_14
REMARK    5  A    between atoms: C_14  and  C_19
REMARK    6  A    between atoms: C_15  and  C_24
REMARK    7  A    between atoms: C_27  and  O_28
REMARK    8  A    between atoms: C_30  and  O_31
REMARK    9  A    between atoms: O_31  and  C_34
REMARK                            x       y       z     vdW  Elec       q    Type
REMARK                         _______ _______ _______ _____ _____    ______ ____
ROOT
ATOM      1  S   UNL     1     -33.527  25.932   1.705  0.00  0.00    -0.114 S 
ATOM      2  O   UNL     1     -35.804  26.325   5.742  0.00  0.00    -0.273 OA
ATOM      3  N   UNL     1     -34.874  25.218   3.879  0.00  0.00    -0.242 N 
ATOM      4  C   UNL     1     -33.522  25.558   3.474  0.00  0.00    +0.155 C 
ATOM      5  CA  UNL     1     -33.642  26.765   4.430  0.00  0.00    +0.179 C 
ATOM      6  C   UNL     1     -34.973  26.107   4.892  0.00  0.00    +0.251 C 
ATOM      7  CA  UNL     1     -35.626  24.262   3.276  0.00  0.00    +0.127 C 
ATOM      8  C   UNL     1     -35.286  23.752   2.068  0.00  0.00    +0.030 C 
ATOM      9  C   UNL     1     -34.108  24.265   1.242  0.00  0.00    +0.086 C 
ENDROOT
BRANCH   5  11
ATOM     10  O   UNL     1     -31.871  29.007   4.554  0.00  0.00    -0.270 OA
ATOM     11  N   UNL     1     -33.814  28.050   3.757  0.00  0.00    -0.293 N 
ATOM     12  C   UNL     1     -32.894  29.093   3.876  0.00  0.00    +0.248 C 
ATOM     13  H   UNL     1     -34.612  28.186   3.197  0.00  0.00    +0.150 HD
BRANCH  12  14
ATOM     14  C   UNL     1     -33.241  30.346   3.112  0.00  0.00    +0.075 C 
ATOM     15  C   UNL     1     -32.433  31.411   3.294  0.00  0.00    -0.019 C 
BRANCH  14  19
ATOM     16  S   UNL     1     -36.648  30.901   1.143  0.00  0.00    -0.060 S 
ATOM     17  N   UNL     1     -34.325  29.780   0.974  0.00  0.00    -0.385 NA
ATOM     18  N   UNL     1     -35.726  29.480  -0.907  0.00  0.00    -0.328 N 
ATOM     19  C   UNL     1     -34.395  30.414   2.199  0.00  0.00    +0.127 C 
ATOM     20  C   UNL     1     -35.575  31.075   2.470  0.00  0.00    +0.125 C 
ATOM     21  C   UNL     1     -35.457  29.970   0.333  0.00  0.00    +0.204 C 
ATOM     22  H   UNL     1     -36.597  29.662  -1.329  0.00  0.00    +0.145 HD
ATOM     23  H   UNL     1     -35.050  28.945  -1.382  0.00  0.00    +0.145 HD
ENDBRANCH  14  19
BRANCH  15  24
ATOM     24  C   UNL     1     -32.536  32.762   2.636  0.00  0.00    +0.026 C 
ATOM     25  C   UNL     1     -31.405  33.679   3.079  0.00  0.00    +0.005 C 
ENDBRANCH  15  24
ENDBRANCH  12  14
ENDBRANCH   5  11
BRANCH   7  27
ATOM     26  OXT UNL     1     -37.949  24.355   3.771  0.00  0.00    -0.244 OA
ATOM     27  C   UNL     1     -36.860  23.852   3.962  0.00  0.00    +0.352 C 
BRANCH  27  28
ATOM     28  O   UNL     1     -36.584  22.848   4.817  0.00  0.00    -0.476 OA
ATOM     29  H   UNL     1     -36.045  22.133   4.543  0.00  0.00    +0.295 HD
ENDBRANCH  27  28
ENDBRANCH   7  27
BRANCH   8  30
ATOM     30  C   UNL     1     -36.022  22.633   1.371  0.00  0.00    +0.235 C 
BRANCH  30  31
ATOM     31  O   UNL     1     -35.302  21.430   1.529  0.00  0.00    -0.430 OA
BRANCH  31  34
ATOM     32  O   UNL     1     -35.188  20.545   3.652  0.00  0.00    -0.227 OA
ATOM     33  N   UNL     1     -36.787  19.839   2.157  0.00  0.00    -0.295 N 
ATOM     34  C   UNL     1     -35.711  20.600   2.544  0.00  0.00    +0.399 C 
ATOM     35  H   UNL     1     -37.158  19.935   1.251  0.00  0.00    +0.148 HD
ATOM     36  H   UNL     1     -37.187  19.197   2.787  0.00  0.00    +0.148 HD
ENDBRANCH  31  34
ENDBRANCH  30  31
ENDBRANCH   8  30
TORSDOF 9
ENDMDL
MODEL 6
REMARK VINA RESULT:      -6.1      3.007      4.690
REMARK  Name = 53486414
REMARK  9 active torsions:
REMARK  status: ('A' for Active; 'I' for Inactive)
REMARK    1  A    between atoms: CA_5  and  N_11
REMARK    2  A    between atoms: CA_7  and  C_27
REMARK    3  A    between atoms: C_8  and  C_30
REMARK    4  A    between atoms: C_12  and  C_14
REMARK    5  A    between atoms: C_14  and  C_19
REMARK    6  A    between atoms: C_15  and  C_24
REMARK    7  A    between atoms: C_27  and  O_28
REMARK    8  A    between atoms: C_30  and  O_31
REMARK    9  A    between atoms: O_31  and  C_34
REMARK                            x       y       z     vdW  Elec       q    Type
REMARK                         _______ _______ _______ _____ _____    ______ ____
ROOT
ATOM      1  S   UNL     1     -34.828  22.496   0.231  0.00  0.00    -0.114 S 
ATOM      2  O   UNL     1     -35.098  20.647   4.490  0.00  0.00    -0.273 OA
ATOM      3  N   UNL     1     -35.532  22.206   2.775  0.00  0.00    -0.242 N 
ATOM      4  C   UNL     1     -35.894  21.708   1.461  0.00  0.00    +0.155 C 
ATOM      5  CA  UNL     1     -35.445  20.321   1.968  0.00  0.00    +0.179 C 
ATOM      6  C   UNL     1     -35.335  21.004   3.361  0.00  0.00    +0.251 C 
ATOM      7  CA  UNL     1     -35.470  23.524   3.094  0.00  0.00    +0.127 C 
ATOM      8  C   UNL     1     -35.459  24.483   2.137  0.00  0.00    +0.030 C 
ATOM      9  C   UNL     1     -35.411  24.177   0.641  0.00  0.00    +0.086 C 
ENDROOT
BRANCH   5  11
ATOM     10  O   UNL     1     -35.036  18.143   0.160  0.00  0.00    -0.270 OA
ATOM     11  N   UNL     1     -34.167  19.867   1.425  0.00  0.00    -0.293 N 
ATOM     12  C   UNL     1     -34.061  18.789   0.544  0.00  0.00    +0.248 C 
ATOM     13  H   UNL     1     -33.346  20.340   1.691  0.00  0.00    +0.150 HD
BRANCH  12  14
ATOM     14  C   UNL     1     -32.660  18.463   0.091  0.00  0.00    +0.075 C 
ATOM     15  C   UNL     1     -31.744  19.446   0.199  0.00  0.00    -0.019 C 
BRANCH  14  19
ATOM     16  S   UNL     1     -31.810  15.153  -1.938  0.00  0.00    -0.060 S 
ATOM     17  N   UNL     1     -31.919  16.141   0.449  0.00  0.00    -0.385 NA
ATOM     18  N   UNL     1     -31.235  13.881   0.326  0.00  0.00    -0.328 N 
ATOM     19  C   UNL     1     -32.295  17.135  -0.433  0.00  0.00    +0.127 C 
ATOM     20  C   UNL     1     -32.297  16.789  -1.768  0.00  0.00    +0.125 C 
ATOM     21  C   UNL     1     -31.640  15.052  -0.234  0.00  0.00    +0.204 C 
ATOM     22  H   UNL     1     -31.044  13.103  -0.246  0.00  0.00    +0.145 HD
ATOM     23  H   UNL     1     -31.134  13.811   1.302  0.00  0.00    +0.145 HD
ENDBRANCH  14  19
BRANCH  15  24
ATOM     24  C   UNL     1     -30.280  19.376  -0.151  0.00  0.00    +0.026 C 
ATOM     25  C   UNL     1     -29.806  20.667  -0.801  0.00  0.00    +0.005 C 
ENDBRANCH  15  24
ENDBRANCH  12  14
ENDBRANCH   5  11
BRANCH   7  27
ATOM     26  OXT UNL     1     -34.297  24.050   5.093  0.00  0.00    -0.244 OA
ATOM     27  C   UNL     1     -35.351  23.862   4.520  0.00  0.00    +0.352 C 
BRANCH  27  28
ATOM     28  O   UNL     1     -36.580  23.924   5.069  0.00  0.00    -0.476 OA
ATOM     29  H   UNL     1     -37.019  24.749   5.143  0.00  0.00    +0.295 HD
ENDBRANCH  27  28
ENDBRANCH   7  27
BRANCH   8  30
ATOM     30  C   UNL     1     -35.474  25.968   2.411  0.00  0.00    +0.235 C 
BRANCH  30  31
ATOM     31  O   UNL     1     -36.540  26.272   3.285  0.00  0.00    -0.430 OA
BRANCH  31  34
ATOM     32  O   UNL     1     -38.100  26.894   1.710  0.00  0.00    -0.227 OA
ATOM     33  N   UNL     1     -38.675  25.542   3.480  0.00  0.00    -0.295 N 
ATOM     34  C   UNL     1     -37.797  26.290   2.734  0.00  0.00    +0.399 C 
ATOM     35  H   UNL     1     -38.363  25.082   4.292  0.00  0.00    +0.148 HD
ATOM     36  H   UNL     1     -39.616  25.465   3.201  0.00  0.00    +0.148 HD
ENDBRANCH  31  34
ENDBRANCH  30  31
ENDBRANCH   8  30
TORSDOF 9
ENDMDL
MODEL 7
REMARK VINA RESULT:      -6.0      3.043      8.438
REMARK  Name = 53486414
REMARK  9 active torsions:
REMARK  status: ('A' for Active; 'I' for Inactive)
REMARK    1  A    between atoms: CA_5  and  N_11
REMARK    2  A    between atoms: CA_7  and  C_27
REMARK    3  A    between atoms: C_8  and  C_30
REMARK    4  A    between atoms: C_12  and  C_14
REMARK    5  A    between atoms: C_14  and  C_19
REMARK    6  A    between atoms: C_15  and  C_24
REMARK    7  A    between atoms: C_27  and  O_28
REMARK    8  A    between atoms: C_30  and  O_31
REMARK    9  A    between atoms: O_31  and  C_34
REMARK                            x       y       z     vdW  Elec       q    Type
REMARK                         _______ _______ _______ _____ _____    ______ ____
ROOT
ATOM      1  S   UNL     1     -34.210  25.900   1.159  0.00  0.00    -0.114 S 
ATOM      2  O   UNL     1     -36.124  26.386   5.371  0.00  0.00    -0.273 OA
ATOM      3  N   UNL     1     -34.972  25.290   3.629  0.00  0.00    -0.242 N 
ATOM      4  C   UNL     1     -33.913  26.006   2.940  0.00  0.00    +0.155 C 
ATOM      5  CA  UNL     1     -34.440  27.273   3.648  0.00  0.00    +0.179 C 
ATOM      6  C   UNL     1     -35.346  26.296   4.450  0.00  0.00    +0.251 C 
ATOM      7  CA  UNL     1     -35.313  24.004   3.362  0.00  0.00    +0.127 C 
ATOM      8  C   UNL     1     -34.890  23.379   2.236  0.00  0.00    +0.030 C 
ATOM      9  C   UNL     1     -34.093  24.079   1.136  0.00  0.00    +0.086 C 
ENDROOT
BRANCH   5  11
ATOM     10  O   UNL     1     -34.202  30.122   3.575  0.00  0.00    -0.270 OA
ATOM     11  N   UNL     1     -35.175  28.187   2.777  0.00  0.00    -0.293 N 
ATOM     12  C   UNL     1     -34.994  29.571   2.810  0.00  0.00    +0.248 C 
ATOM     13  H   UNL     1     -35.825  27.812   2.140  0.00  0.00    +0.150 HD
BRANCH  12  14
ATOM     14  C   UNL     1     -35.842  30.354   1.841  0.00  0.00    +0.075 C 
ATOM     15  C   UNL     1     -36.024  31.663   2.113  0.00  0.00    -0.019 C 
BRANCH  14  19
ATOM     16  S   UNL     1     -36.889  28.914  -1.712  0.00  0.00    -0.060 S 
ATOM     17  N   UNL     1     -37.660  29.102   0.748  0.00  0.00    -0.385 NA
ATOM     18  N   UNL     1     -39.144  27.948  -0.686  0.00  0.00    -0.328 N 
ATOM     19  C   UNL     1     -36.438  29.737   0.643  0.00  0.00    +0.127 C 
ATOM     20  C   UNL     1     -35.865  29.738  -0.611  0.00  0.00    +0.125 C 
ATOM     21  C   UNL     1     -37.996  28.631  -0.433  0.00  0.00    +0.204 C 
ATOM     22  H   UNL     1     -39.332  27.622  -1.596  0.00  0.00    +0.145 HD
ATOM     23  H   UNL     1     -39.786  27.778   0.040  0.00  0.00    +0.145 HD
ENDBRANCH  14  19
BRANCH  15  24
ATOM     24  C   UNL     1     -36.795  32.669   1.300  0.00  0.00    +0.026 C 
ATOM     25  C   UNL     1     -38.238  32.770   1.771  0.00  0.00    +0.005 C 
ENDBRANCH  15  24
ENDBRANCH  12  14
ENDBRANCH   5  11
BRANCH   7  27
ATOM     26  OXT UNL     1     -35.842  22.612   5.215  0.00  0.00    -0.244 OA
ATOM     27  C   UNL     1     -36.213  23.339   4.315  0.00  0.00    +0.352 C 
BRANCH  27  28
ATOM     28  O   UNL     1     -37.488  23.666   4.028  0.00  0.00    -0.476 OA
ATOM     29  H   UNL     1     -38.031  24.059   4.683  0.00  0.00    +0.295 HD
ENDBRANCH  27  28
ENDBRANCH   7  27
BRANCH   8  30
ATOM     30  C   UNL     1     -35.157  21.930   1.908  0.00  0.00    +0.235 C 
BRANCH  30  31
ATOM     31  O   UNL     1     -36.391  21.824   1.231  0.00  0.00    -0.430 OA
BRANCH  31  34
ATOM     32  O   UNL     1     -38.519  21.455   2.030  0.00  0.00    -0.227 OA
ATOM     33  N   UNL     1     -36.880  19.854   2.236  0.00  0.00    -0.295 N 
ATOM     34  C   UNL     1     -37.365  21.079   1.849  0.00  0.00    +0.399 C 
ATOM     35  H   UNL     1     -35.942  19.617   2.058  0.00  0.00    +0.148 HD
ATOM     36  H   UNL     1     -37.472  19.213   2.694  0.00  0.00    +0.148 HD
ENDBRANCH  31  34
ENDBRANCH  30  31
ENDBRANCH   8  30
TORSDOF 9
ENDMDL
MODEL 8
REMARK VINA RESULT:      -6.0      2.297      3.227
REMARK  Name = 53486414
REMARK  9 active torsions:
REMARK  status: ('A' for Active; 'I' for Inactive)
REMARK    1  A    between atoms: CA_5  and  N_11
REMARK    2  A    between atoms: CA_7  and  C_27
REMARK    3  A    between atoms: C_8  and  C_30
REMARK    4  A    between atoms: C_12  and  C_14
REMARK    5  A    between atoms: C_14  and  C_19
REMARK    6  A    between atoms: C_15  and  C_24
REMARK    7  A    between atoms: C_27  and  O_28
REMARK    8  A    between atoms: C_30  and  O_31
REMARK    9  A    between atoms: O_31  and  C_34
REMARK                            x       y       z     vdW  Elec       q    Type
REMARK                         _______ _______ _______ _____ _____    ______ ____
ROOT
ATOM      1  S   UNL     1     -35.744  24.271   0.815  0.00  0.00    -0.114 S 
ATOM      2  O   UNL     1     -36.407  22.857   5.197  0.00  0.00    -0.273 OA
ATOM      3  N   UNL     1     -36.320  24.388   3.405  0.00  0.00    -0.242 N 
ATOM      4  C   UNL     1     -36.942  24.019   2.146  0.00  0.00    +0.155 C 
ATOM      5  CA  UNL     1     -37.035  22.589   2.722  0.00  0.00    +0.179 C 
ATOM      6  C   UNL     1     -36.567  23.232   4.059  0.00  0.00    +0.251 C 
ATOM      7  CA  UNL     1     -35.726  25.588   3.631  0.00  0.00    +0.127 C 
ATOM      8  C   UNL     1     -35.410  26.424   2.613  0.00  0.00    +0.030 C 
ATOM      9  C   UNL     1     -35.594  26.061   1.141  0.00  0.00    +0.086 C 
ENDROOT
BRANCH   5  11
ATOM     10  O   UNL     1     -37.635  20.385   1.001  0.00  0.00    -0.270 OA
ATOM     11  N   UNL     1     -36.078  21.646   2.147  0.00  0.00    -0.293 N 
ATOM     12  C   UNL     1     -36.463  20.594   1.314  0.00  0.00    +0.248 C 
ATOM     13  H   UNL     1     -35.123  21.757   2.357  0.00  0.00    +0.150 HD
BRANCH  12  14
ATOM     14  C   UNL     1     -35.337  19.722   0.818  0.00  0.00    +0.075 C 
ATOM     15  C   UNL     1     -34.226  19.673   1.581  0.00  0.00    -0.019 C 
BRANCH  14  19
ATOM     16  S   UNL     1     -35.360  18.189  -2.848  0.00  0.00    -0.060 S 
ATOM     17  N   UNL     1     -35.927  17.654  -0.383  0.00  0.00    -0.385 NA
ATOM     18  N   UNL     1     -36.350  15.904  -1.916  0.00  0.00    -0.328 N 
ATOM     19  C   UNL     1     -35.439  18.945  -0.429  0.00  0.00    +0.127 C 
ATOM     20  C   UNL     1     -35.080  19.410  -1.677  0.00  0.00    +0.125 C 
ATOM     21  C   UNL     1     -35.930  17.158  -1.602  0.00  0.00    +0.204 C 
ATOM     22  H   UNL     1     -36.325  15.596  -2.851  0.00  0.00    +0.145 HD
ATOM     23  H   UNL     1     -36.680  15.303  -1.209  0.00  0.00    +0.145 HD
ENDBRANCH  14  19
BRANCH  15  24
ATOM     24  C   UNL     1     -32.980  18.864   1.333  0.00  0.00    +0.026 C 
ATOM     25  C   UNL     1     -31.966  19.649   0.514  0.00  0.00    +0.005 C 
ENDBRANCH  15  24
ENDBRANCH  12  14
ENDBRANCH   5  11
BRANCH   7  27
ATOM     26  OXT UNL     1     -34.305  25.678   5.534  0.00  0.00    -0.244 OA
ATOM     27  C   UNL     1     -35.382  25.911   5.024  0.00  0.00    +0.352 C 
BRANCH  27  28
ATOM     28  O   UNL     1     -36.440  26.492   5.622  0.00  0.00    -0.476 OA
ATOM     29  H   UNL     1     -36.582  26.374   6.541  0.00  0.00    +0.295 HD
ENDBRANCH  27  28
ENDBRANCH   7  27
BRANCH   8  30
ATOM     30  C   UNL     1     -34.825  27.805   2.788  0.00  0.00    +0.235 C 
BRANCH  30  31
ATOM     31  O   UNL     1     -33.467  27.789   2.402  0.00  0.00    -0.430 OA
BRANCH  31  34
ATOM     32  O   UNL     1     -31.519  26.993   3.337  0.00  0.00    -0.227 OA
ATOM     33  N   UNL     1     -32.921  28.382   4.518  0.00  0.00    -0.295 N 
ATOM     34  C   UNL     1     -32.546  27.662   3.411  0.00  0.00    +0.399 C 
ATOM     35  H   UNL     1     -33.759  28.898   4.509  0.00  0.00    +0.148 HD
ATOM     36  H   UNL     1     -32.352  28.383   5.322  0.00  0.00    +0.148 HD
ENDBRANCH  31  34
ENDBRANCH  30  31
ENDBRANCH   8  30
TORSDOF 9
ENDMDL
MODEL 9
REMARK VINA RESULT:      -5.9      3.797      8.192
REMARK  Name = 53486414
REMARK  9 active torsions:
REMARK  status: ('A' for Active; 'I' for Inactive)
REMARK    1  A    between atoms: CA_5  and  N_11
REMARK    2  A    between atoms: CA_7  and  C_27
REMARK    3  A    between atoms: C_8  and  C_30
REMARK    4  A    between atoms: C_12  and  C_14
REMARK    5  A    between atoms: C_14  and  C_19
REMARK    6  A    between atoms: C_15  and  C_24
REMARK    7  A    between atoms: C_27  and  O_28
REMARK    8  A    between atoms: C_30  and  O_31
REMARK    9  A    between atoms: O_31  and  C_34
REMARK                            x       y       z     vdW  Elec       q    Type
REMARK                         _______ _______ _______ _____ _____    ______ ____
ROOT
ATOM      1  S   UNL     1     -34.276  24.619   2.059  0.00  0.00    -0.114 S 
ATOM      2  O   UNL     1     -36.656  26.114   5.766  0.00  0.00    -0.273 OA
ATOM      3  N   UNL     1     -36.239  24.823   3.836  0.00  0.00    -0.242 N 
ATOM      4  C   UNL     1     -34.937  24.198   3.688  0.00  0.00    +0.155 C 
ATOM      5  CA  UNL     1     -34.481  25.090   4.864  0.00  0.00    +0.179 C 
ATOM      6  C   UNL     1     -35.985  25.463   4.999  0.00  0.00    +0.251 C 
ATOM      7  CA  UNL     1     -37.255  24.673   2.948  0.00  0.00    +0.127 C 
ATOM      8  C   UNL     1     -37.042  24.167   1.710  0.00  0.00    +0.030 C 
ATOM      9  C   UNL     1     -35.656  23.820   1.171  0.00  0.00    +0.086 C 
ENDROOT
BRANCH   5  11
ATOM     10  O   UNL     1     -33.183  26.937   6.618  0.00  0.00    -0.270 OA
ATOM     11  N   UNL     1     -33.623  26.206   4.474  0.00  0.00    -0.293 N 
ATOM     12  C   UNL     1     -33.029  27.061   5.403  0.00  0.00    +0.248 C 
ATOM     13  H   UNL     1     -33.458  26.362   3.516  0.00  0.00    +0.150 HD
BRANCH  12  14
ATOM     14  C   UNL     1     -32.178  28.159   4.815  0.00  0.00    +0.075 C 
ATOM     15  C   UNL     1     -32.684  28.815   3.751  0.00  0.00    -0.019 C 
BRANCH  14  19
ATOM     16  S   UNL     1     -28.980  29.588   6.691  0.00  0.00    -0.060 S 
ATOM     17  N   UNL     1     -29.739  27.842   4.942  0.00  0.00    -0.385 NA
ATOM     18  N   UNL     1     -27.416  27.884   5.380  0.00  0.00    -0.328 N 
ATOM     19  C   UNL     1     -30.863  28.517   5.375  0.00  0.00    +0.127 C 
ATOM     20  C   UNL     1     -30.652  29.498   6.321  0.00  0.00    +0.125 C 
ATOM     21  C   UNL     1     -28.688  28.324   5.569  0.00  0.00    +0.204 C 
ATOM     22  H   UNL     1     -26.674  28.290   5.884  0.00  0.00    +0.145 HD
ATOM     23  H   UNL     1     -27.236  27.159   4.739  0.00  0.00    +0.145 HD
ENDBRANCH  14  19
BRANCH  15  24
ATOM     24  C   UNL     1     -32.060  29.961   2.999  0.00  0.00    +0.026 C 
ATOM     25  C   UNL     1     -32.744  31.278   3.334  0.00  0.00    +0.005 C 
ENDBRANCH  15  24
ENDBRANCH  12  14
ENDBRANCH   5  11
BRANCH   7  27
ATOM     26  OXT UNL     1     -39.487  24.417   3.722  0.00  0.00    -0.244 OA
ATOM     27  C   UNL     1     -38.582  25.145   3.367  0.00  0.00    +0.352 C 
BRANCH  27  28
ATOM     28  O   UNL     1     -38.624  26.490   3.289  0.00  0.00    -0.476 OA
ATOM     29  H   UNL     1     -38.391  27.010   4.033  0.00  0.00    +0.295 HD
ENDBRANCH  27  28
ENDBRANCH   7  27
BRANCH   8  30
ATOM     30  C   UNL     1     -38.129  23.894   0.697  0.00  0.00    +0.235 C 
BRANCH  30  31
ATOM     31  O   UNL     1     -38.295  22.499   0.554  0.00  0.00    -0.430 OA
BRANCH  31  34
ATOM     32  O   UNL     1     -40.405  22.128   1.399  0.00  0.00    -0.227 OA
ATOM     33  N   UNL     1     -38.578  21.011   2.238  0.00  0.00    -0.295 N 
ATOM     34  C   UNL     1     -39.199  21.901   1.397  0.00  0.00    +0.399 C 
ATOM     35  H   UNL     1     -37.604  20.878   2.181  0.00  0.00    +0.148 HD
ATOM     36  H   UNL     1     -39.106  20.508   2.899  0.00  0.00    +0.148 HD
ENDBRANCH  31  34
ENDBRANCH  30  31
ENDBRANCH   8  30
TORSDOF 9
ENDMDL
