MODEL 1
REMARK VINA RESULT:      -6.2      0.000      0.000
REMARK  Name = 20839677
REMARK  6 active torsions:
REMARK  status: ('A' for Active; 'I' for Inactive)
REMARK    1  A    between atoms: C_5  and  O_25
REMARK    2  A    between atoms: C_7  and  O_31
REMARK    3  A    between atoms: C_16  and  O_27
REMARK    4  A    between atoms: C_18  and  O_29
REMARK    5  A    between atoms: O_31  and  C_33
REMARK    6  A    between atoms: C_33  and  C_34
REMARK                            x       y       z     vdW  Elec       q    Type
REMARK                         _______ _______ _______ _____ _____    ______ ____
ROOT
ATOM      1  O   UNL     1     -40.051  26.701   2.113  0.00  0.00    -0.435 OA
ATOM      2  O   UNL     1     -40.673  24.736   0.865  0.00  0.00    -0.431 OA
ATOM      3  O   UNL     1     -33.881  19.276   0.919  0.00  0.00    -0.435 OA
ATOM      4  O   UNL     1     -34.641  20.562  -0.970  0.00  0.00    -0.431 OA
ATOM      5  C   UNL     1     -35.461  24.481   4.734  0.00  0.00    +0.129 C 
ATOM      6  C   UNL     1     -35.238  22.938   4.894  0.00  0.00    +0.033 C 
ATOM      7  C   UNL     1     -35.554  24.999   3.261  0.00  0.00    +0.216 C 
ATOM      8  C   UNL     1     -36.312  22.068   4.197  0.00  0.00    +0.029 C 
ATOM      9  C   UNL     1     -36.902  24.810   2.569  0.00  0.00    +0.026 C 
ATOM     10  C   UNL     1     -35.928  21.722   2.773  0.00  0.00    -0.016 C 
ATOM     11  C   UNL     1     -34.309  25.243   5.434  0.00  0.00    +0.033 C 
ATOM     12  C   UNL     1     -37.272  23.647   1.830  0.00  0.00    +0.039 C 
ATOM     13  C   UNL     1     -35.187  22.508   6.375  0.00  0.00    +0.003 C 
ATOM     14  C   UNL     1     -36.378  22.488   1.664  0.00  0.00    +0.036 C 
ATOM     15  C   UNL     1     -37.826  25.875   2.687  0.00  0.00    +0.040 C 
ATOM     16  C   UNL     1     -38.552  23.586   1.232  0.00  0.00    +0.175 C 
ATOM     17  C   UNL     1     -35.073  20.619   2.570  0.00  0.00    +0.036 C 
ATOM     18  C   UNL     1     -35.963  22.122   0.364  0.00  0.00    +0.175 C 
ATOM     19  C   UNL     1     -39.062  25.766   2.086  0.00  0.00    +0.179 C 
ATOM     20  C   UNL     1     -39.416  24.651   1.376  0.00  0.00    +0.210 C 
ATOM     21  C   UNL     1     -34.696  20.302   1.285  0.00  0.00    +0.179 C 
ATOM     22  C   UNL     1     -35.129  21.034   0.210  0.00  0.00    +0.210 C 
ATOM     23  C   UNL     1     -41.070  26.041   1.334  0.00  0.00    +0.429 C 
ATOM     24  C   UNL     1     -33.853  19.445  -0.513  0.00  0.00    +0.429 C 
ENDROOT
BRANCH   5  25
ATOM     25  O   UNL     1     -36.660  24.847   5.433  0.00  0.00    -0.383 OA
ATOM     26  H   UNL     1     -37.169  24.048   5.642  0.00  0.00    +0.210 HD
ENDBRANCH   5  25
BRANCH  16  27
ATOM     27  O   UNL     1     -38.982  22.484   0.555  0.00  0.00    -0.468 OA
ATOM     28  C   UNL     1     -39.687  21.498   1.306  0.00  0.00    +0.253 C 
ENDBRANCH  16  27
BRANCH  18  29
ATOM     29  O   UNL     1     -36.322  22.839  -0.737  0.00  0.00    -0.468 OA
ATOM     30  C   UNL     1     -36.929  22.119  -1.808  0.00  0.00    +0.253 C 
ENDBRANCH  18  29
BRANCH   7  31
ATOM     31  O   UNL     1     -34.483  24.502   2.460  0.00  0.00    -0.442 OA
BRANCH  31  33
ATOM     32  O   UNL     1     -33.248  26.434   2.256  0.00  0.00    -0.245 OA
ATOM     33  C   UNL     1     -33.771  25.439   1.773  0.00  0.00    +0.337 C 
BRANCH  33  34
ATOM     34  C   UNL     1     -33.726  25.073   0.325  0.00  0.00    +0.050 C 
ATOM     35  C   UNL     1     -32.771  24.000  -0.108  0.00  0.00    +0.037 C 
ATOM     36  C   UNL     1     -34.541  25.776  -0.485  0.00  0.00    -0.024 C 
ATOM     37  C   UNL     1     -35.478  26.873  -0.093  0.00  0.00    +0.031 C 
ENDBRANCH  33  34
ENDBRANCH  31  33
ENDBRANCH   7  31
TORSDOF 6
ENDMDL
MODEL 2
REMARK VINA RESULT:      -5.7      1.951      5.827
REMARK  Name = 20839677
REMARK  6 active torsions:
REMARK  status: ('A' for Active; 'I' for Inactive)
REMARK    1  A    between atoms: C_5  and  O_25
REMARK    2  A    between atoms: C_7  and  O_31
REMARK    3  A    between atoms: C_16  and  O_27
REMARK    4  A    between atoms: C_18  and  O_29
REMARK    5  A    between atoms: O_31  and  C_33
REMARK    6  A    between atoms: C_33  and  C_34
REMARK                            x       y       z     vdW  Elec       q    Type
REMARK                         _______ _______ _______ _____ _____    ______ ____
ROOT
ATOM      1  O   UNL     1     -36.655  26.225  -2.465  0.00  0.00    -0.435 OA
ATOM      2  O   UNL     1     -34.989  26.868  -0.848  0.00  0.00    -0.431 OA
ATOM      3  O   UNL     1     -35.110  20.997   5.592  0.00  0.00    -0.435 OA
ATOM      4  O   UNL     1     -35.932  23.257   5.728  0.00  0.00    -0.431 OA
ATOM      5  C   UNL     1     -37.408  20.842  -0.641  0.00  0.00    +0.129 C 
ATOM      6  C   UNL     1     -36.350  20.088   0.235  0.00  0.00    +0.033 C 
ATOM      7  C   UNL     1     -37.996  22.148  -0.011  0.00  0.00    +0.216 C 
ATOM      8  C   UNL     1     -35.135  20.954   0.646  0.00  0.00    +0.029 C 
ATOM      9  C   UNL     1     -37.124  23.397  -0.124  0.00  0.00    +0.026 C 
ATOM     10  C   UNL     1     -35.359  21.656   1.970  0.00  0.00    -0.016 C 
ATOM     11  C   UNL     1     -38.589  19.892  -0.954  0.00  0.00    +0.033 C 
ATOM     12  C   UNL     1     -36.136  23.778   0.833  0.00  0.00    +0.039 C 
ATOM     13  C   UNL     1     -35.802  18.830  -0.470  0.00  0.00    +0.003 C 
ATOM     14  C   UNL     1     -35.847  22.989   2.043  0.00  0.00    +0.036 C 
ATOM     15  C   UNL     1     -37.329  24.209  -1.264  0.00  0.00    +0.040 C 
ATOM     16  C   UNL     1     -35.388  24.959   0.620  0.00  0.00    +0.175 C 
ATOM     17  C   UNL     1     -35.095  20.934   3.153  0.00  0.00    +0.036 C 
ATOM     18  C   UNL     1     -36.055  23.575   3.310  0.00  0.00    +0.175 C 
ATOM     19  C   UNL     1     -36.573  25.350  -1.426  0.00  0.00    +0.179 C 
ATOM     20  C   UNL     1     -35.627  25.717  -0.507  0.00  0.00    +0.210 C 
ATOM     21  C   UNL     1     -35.313  21.550   4.365  0.00  0.00    +0.179 C 
ATOM     22  C   UNL     1     -35.780  22.836   4.442  0.00  0.00    +0.210 C 
ATOM     23  C   UNL     1     -35.648  27.188  -2.091  0.00  0.00    +0.429 C 
ATOM     24  C   UNL     1     -35.502  22.086   6.452  0.00  0.00    +0.429 C 
ENDROOT
BRANCH   5  25
ATOM     25  O   UNL     1     -36.811  21.163  -1.906  0.00  0.00    -0.383 OA
ATOM     26  H   UNL     1     -37.507  21.378  -2.547  0.00  0.00    +0.210 HD
ENDBRANCH   5  25
BRANCH  16  27
ATOM     27  O   UNL     1     -34.397  25.351   1.471  0.00  0.00    -0.468 OA
ATOM     28  C   UNL     1     -33.061  25.006   1.111  0.00  0.00    +0.253 C 
ENDBRANCH  16  27
BRANCH  18  29
ATOM     29  O   UNL     1     -36.561  24.832   3.451  0.00  0.00    -0.468 OA
ATOM     30  C   UNL     1     -35.825  25.740   4.268  0.00  0.00    +0.253 C 
ENDBRANCH  18  29
BRANCH   7  31
ATOM     31  O   UNL     1     -38.429  21.936   1.332  0.00  0.00    -0.442 OA
BRANCH  31  33
ATOM     32  O   UNL     1     -40.543  21.084   1.658  0.00  0.00    -0.245 OA
ATOM     33  C   UNL     1     -39.773  22.027   1.542  0.00  0.00    +0.337 C 
BRANCH  33  34
ATOM     34  C   UNL     1     -40.174  23.465   1.607  0.00  0.00    +0.050 C 
ATOM     35  C   UNL     1     -39.752  24.268   2.801  0.00  0.00    +0.037 C 
ATOM     36  C   UNL     1     -40.922  23.913   0.581  0.00  0.00    -0.024 C 
ATOM     37  C   UNL     1     -41.390  23.133  -0.606  0.00  0.00    +0.031 C 
ENDBRANCH  33  34
ENDBRANCH  31  33
ENDBRANCH   7  31
TORSDOF 6
ENDMDL
MODEL 3
REMARK VINA RESULT:      -5.7      2.140      5.757
REMARK  Name = 20839677
REMARK  6 active torsions:
REMARK  status: ('A' for Active; 'I' for Inactive)
REMARK    1  A    between atoms: C_5  and  O_25
REMARK    2  A    between atoms: C_7  and  O_31
REMARK    3  A    between atoms: C_16  and  O_27
REMARK    4  A    between atoms: C_18  and  O_29
REMARK    5  A    between atoms: O_31  and  C_33
REMARK    6  A    between atoms: C_33  and  C_34
REMARK                            x       y       z     vdW  Elec       q    Type
REMARK                         _______ _______ _______ _____ _____    ______ ____
ROOT
ATOM      1  O   UNL     1     -35.095  21.040   5.556  0.00  0.00    -0.435 OA
ATOM      2  O   UNL     1     -36.069  23.244   5.542  0.00  0.00    -0.431 OA
ATOM      3  O   UNL     1     -37.466  25.491  -2.762  0.00  0.00    -0.435 OA
ATOM      4  O   UNL     1     -35.757  26.394  -1.325  0.00  0.00    -0.431 OA
ATOM      5  C   UNL     1     -36.419  19.617   0.163  0.00  0.00    +0.129 C 
ATOM      6  C   UNL     1     -37.551  20.335  -0.651  0.00  0.00    +0.033 C 
ATOM      7  C   UNL     1     -35.247  20.537   0.640  0.00  0.00    +0.216 C 
ATOM      8  C   UNL     1     -38.209  21.522   0.093  0.00  0.00    +0.029 C 
ATOM      9  C   UNL     1     -35.517  21.368   1.894  0.00  0.00    +0.026 C 
ATOM     10  C   UNL     1     -37.513  22.835  -0.202  0.00  0.00    -0.016 C 
ATOM     11  C   UNL     1     -35.812  18.480  -0.694  0.00  0.00    +0.033 C 
ATOM     12  C   UNL     1     -36.094  22.673   1.886  0.00  0.00    +0.039 C 
ATOM     13  C   UNL     1     -38.679  19.363  -1.058  0.00  0.00    +0.003 C 
ATOM     14  C   UNL     1     -36.503  23.359   0.648  0.00  0.00    +0.036 C 
ATOM     15  C   UNL     1     -35.162  20.778   3.130  0.00  0.00    +0.040 C 
ATOM     16  C   UNL     1     -36.296  23.346   3.114  0.00  0.00    +0.175 C 
ATOM     17  C   UNL     1     -37.875  23.524  -1.379  0.00  0.00    +0.036 C 
ATOM     18  C   UNL     1     -35.878  24.577   0.302  0.00  0.00    +0.175 C 
ATOM     19  C   UNL     1     -35.380  21.475   4.298  0.00  0.00    +0.179 C 
ATOM     20  C   UNL     1     -35.933  22.727   4.291  0.00  0.00    +0.210 C 
ATOM     21  C   UNL     1     -37.237  24.707  -1.674  0.00  0.00    +0.179 C 
ATOM     22  C   UNL     1     -36.264  25.221  -0.856  0.00  0.00    +0.210 C 
ATOM     23  C   UNL     1     -35.532  22.169   6.341  0.00  0.00    +0.429 C 
ATOM     24  C   UNL     1     -36.526  26.560  -2.534  0.00  0.00    +0.429 C 
ENDROOT
BRANCH   5  25
ATOM     25  O   UNL     1     -37.008  18.982   1.306  0.00  0.00    -0.383 OA
ATOM     26  H   UNL     1     -37.836  18.549   1.045  0.00  0.00    +0.210 HD
ENDBRANCH   5  25
BRANCH  16  27
ATOM     27  O   UNL     1     -36.887  24.573   3.177  0.00  0.00    -0.468 OA
ATOM     28  C   UNL     1     -38.308  24.601   3.296  0.00  0.00    +0.253 C 
ENDBRANCH  16  27
BRANCH  18  29
ATOM     29  O   UNL     1     -34.873  25.113   1.050  0.00  0.00    -0.468 OA
ATOM     30  C   UNL     1     -35.038  26.460   1.486  0.00  0.00    +0.253 C 
ENDBRANCH  18  29
BRANCH   7  31
ATOM     31  O   UNL     1     -34.747  21.347  -0.422  0.00  0.00    -0.442 OA
BRANCH  31  33
ATOM     32  O   UNL     1     -32.906  22.707  -0.169  0.00  0.00    -0.245 OA
ATOM     33  C   UNL     1     -33.410  21.614  -0.385  0.00  0.00    +0.337 C 
BRANCH  33  34
ATOM     34  C   UNL     1     -32.641  20.362  -0.656  0.00  0.00    +0.050 C 
ATOM     35  C   UNL     1     -31.964  19.679   0.495  0.00  0.00    +0.037 C 
ATOM     36  C   UNL     1     -32.597  19.966  -1.943  0.00  0.00    -0.024 C 
ATOM     37  C   UNL     1     -33.230  20.640  -3.119  0.00  0.00    +0.031 C 
ENDBRANCH  33  34
ENDBRANCH  31  33
ENDBRANCH   7  31
TORSDOF 6
ENDMDL
MODEL 4
REMARK VINA RESULT:      -5.6      2.084      5.194
REMARK  Name = 20839677
REMARK  6 active torsions:
REMARK  status: ('A' for Active; 'I' for Inactive)
REMARK    1  A    between atoms: C_5  and  O_25
REMARK    2  A    between atoms: C_7  and  O_31
REMARK    3  A    between atoms: C_16  and  O_27
REMARK    4  A    between atoms: C_18  and  O_29
REMARK    5  A    between atoms: O_31  and  C_33
REMARK    6  A    between atoms: C_33  and  C_34
REMARK                            x       y       z     vdW  Elec       q    Type
REMARK                         _______ _______ _______ _____ _____    ______ ____
ROOT
ATOM      1  O   UNL     1     -32.983  27.104   5.051  0.00  0.00    -0.435 OA
ATOM      2  O   UNL     1     -34.312  25.578   6.357  0.00  0.00    -0.431 OA
ATOM      3  O   UNL     1     -39.093  20.811   0.846  0.00  0.00    -0.435 OA
ATOM      4  O   UNL     1     -39.920  22.560   2.281  0.00  0.00    -0.431 OA
ATOM      5  C   UNL     1     -33.629  24.493  -0.012  0.00  0.00    +0.129 C 
ATOM      6  C   UNL     1     -34.061  22.992  -0.143  0.00  0.00    +0.033 C 
ATOM      7  C   UNL     1     -34.654  25.428   0.711  0.00  0.00    +0.216 C 
ATOM      8  C   UNL     1     -34.394  22.308   1.205  0.00  0.00    +0.029 C 
ATOM      9  C   UNL     1     -34.650  25.372   2.237  0.00  0.00    +0.026 C 
ATOM     10  C   UNL     1     -35.860  22.438   1.562  0.00  0.00    -0.016 C 
ATOM     11  C   UNL     1     -33.362  25.077  -1.420  0.00  0.00    +0.033 C 
ATOM     12  C   UNL     1     -35.437  24.468   3.012  0.00  0.00    +0.039 C 
ATOM     13  C   UNL     1     -32.984  22.135  -0.840  0.00  0.00    +0.003 C 
ATOM     14  C   UNL     1     -36.341  23.475   2.407  0.00  0.00    +0.036 C 
ATOM     15  C   UNL     1     -33.799  26.288   2.900  0.00  0.00    +0.040 C 
ATOM     16  C   UNL     1     -35.349  24.510   4.423  0.00  0.00    +0.175 C 
ATOM     17  C   UNL     1     -36.760  21.507   1.003  0.00  0.00    +0.036 C 
ATOM     18  C   UNL     1     -37.725  23.551   2.681  0.00  0.00    +0.175 C 
ATOM     19  C   UNL     1     -33.749  26.288   4.277  0.00  0.00    +0.179 C 
ATOM     20  C   UNL     1     -34.505  25.422   5.020  0.00  0.00    +0.210 C 
ATOM     21  C   UNL     1     -38.100  21.623   1.300  0.00  0.00    +0.179 C 
ATOM     22  C   UNL     1     -38.570  22.618   2.117  0.00  0.00    +0.210 C 
ATOM     23  C   UNL     1     -33.346  26.649   6.371  0.00  0.00    +0.429 C 
ATOM     24  C   UNL     1     -40.245  21.410   1.474  0.00  0.00    +0.429 C 
ENDROOT
BRANCH   5  25
ATOM     25  O   UNL     1     -32.375  24.549   0.684  0.00  0.00    -0.383 OA
ATOM     26  H   UNL     1     -32.192  23.688   1.092  0.00  0.00    +0.210 HD
ENDBRANCH   5  25
BRANCH  16  27
ATOM     27  O   UNL     1     -36.037  23.641   5.216  0.00  0.00    -0.468 OA
ATOM     28  C   UNL     1     -35.330  22.495   5.687  0.00  0.00    +0.253 C 
ENDBRANCH  16  27
BRANCH  18  29
ATOM     29  O   UNL     1     -38.256  24.544   3.446  0.00  0.00    -0.468 OA
ATOM     30  C   UNL     1     -38.767  25.686   2.762  0.00  0.00    +0.253 C 
ENDBRANCH  18  29
BRANCH   7  31
ATOM     31  O   UNL     1     -35.971  25.268   0.188  0.00  0.00    -0.442 OA
BRANCH  31  33
ATOM     32  O   UNL     1     -36.775  27.411   0.448  0.00  0.00    -0.245 OA
ATOM     33  C   UNL     1     -36.586  26.411  -0.231  0.00  0.00    +0.337 C 
BRANCH  33  34
ATOM     34  C   UNL     1     -37.005  26.261  -1.657  0.00  0.00    +0.050 C 
ATOM     35  C   UNL     1     -36.236  27.006  -2.708  0.00  0.00    +0.037 C 
ATOM     36  C   UNL     1     -38.078  25.477  -1.875  0.00  0.00    -0.024 C 
ATOM     37  C   UNL     1     -38.889  24.748  -0.851  0.00  0.00    +0.031 C 
ENDBRANCH  33  34
ENDBRANCH  31  33
ENDBRANCH   7  31
TORSDOF 6
ENDMDL
MODEL 5
REMARK VINA RESULT:      -5.6      1.696      2.240
REMARK  Name = 20839677
REMARK  6 active torsions:
REMARK  status: ('A' for Active; 'I' for Inactive)
REMARK    1  A    between atoms: C_5  and  O_25
REMARK    2  A    between atoms: C_7  and  O_31
REMARK    3  A    between atoms: C_16  and  O_27
REMARK    4  A    between atoms: C_18  and  O_29
REMARK    5  A    between atoms: O_31  and  C_33
REMARK    6  A    between atoms: C_33  and  C_34
REMARK                            x       y       z     vdW  Elec       q    Type
REMARK                         _______ _______ _______ _____ _____    ______ ____
ROOT
ATOM      1  O   UNL     1     -38.662  28.856   0.285  0.00  0.00    -0.435 OA
ATOM      2  O   UNL     1     -40.026  26.871   0.238  0.00  0.00    -0.431 OA
ATOM      3  O   UNL     1     -35.124  20.199   2.960  0.00  0.00    -0.435 OA
ATOM      4  O   UNL     1     -35.839  20.591   0.694  0.00  0.00    -0.431 OA
ATOM      5  C   UNL     1     -34.457  26.781   3.583  0.00  0.00    +0.129 C 
ATOM      6  C   UNL     1     -34.645  25.531   4.510  0.00  0.00    +0.033 C 
ATOM      7  C   UNL     1     -34.678  26.526   2.056  0.00  0.00    +0.216 C 
ATOM      8  C   UNL     1     -36.028  24.849   4.382  0.00  0.00    +0.029 C 
ATOM      9  C   UNL     1     -36.131  26.490   1.586  0.00  0.00    +0.026 C 
ATOM     10  C   UNL     1     -36.029  23.757   3.332  0.00  0.00    -0.016 C 
ATOM     11  C   UNL     1     -33.030  27.350   3.769  0.00  0.00    +0.033 C 
ATOM     12  C   UNL     1     -36.940  25.315   1.559  0.00  0.00    +0.039 C 
ATOM     13  C   UNL     1     -34.438  25.875   6.000  0.00  0.00    +0.003 C 
ATOM     14  C   UNL     1     -36.449  23.996   1.995  0.00  0.00    +0.036 C 
ATOM     15  C   UNL     1     -36.686  27.719   1.158  0.00  0.00    +0.040 C 
ATOM     16  C   UNL     1     -38.276  25.406   1.103  0.00  0.00    +0.175 C 
ATOM     17  C   UNL     1     -35.566  22.479   3.709  0.00  0.00    +0.036 C 
ATOM     18  C   UNL     1     -36.403  22.938   1.061  0.00  0.00    +0.175 C 
ATOM     19  C   UNL     1     -37.993  27.755   0.723  0.00  0.00    +0.179 C 
ATOM     20  C   UNL     1     -38.769  26.628   0.695  0.00  0.00    +0.210 C 
ATOM     21  C   UNL     1     -35.539  21.480   2.762  0.00  0.00    +0.179 C 
ATOM     22  C   UNL     1     -35.947  21.703   1.473  0.00  0.00    +0.210 C 
ATOM     23  C   UNL     1     -39.952  28.288  -0.023  0.00  0.00    +0.429 C 
ATOM     24  C   UNL     1     -35.319  19.640   1.645  0.00  0.00    +0.429 C 
ENDROOT
BRANCH   5  25
ATOM     25  O   UNL     1     -35.355  27.813   4.018  0.00  0.00    -0.383 OA
ATOM     26  H   UNL     1     -36.000  27.440   4.640  0.00  0.00    +0.210 HD
ENDBRANCH   5  25
BRANCH  16  27
ATOM     27  O   UNL     1     -39.113  24.330   1.098  0.00  0.00    -0.468 OA
ATOM     28  C   UNL     1     -39.899  24.118   2.269  0.00  0.00    +0.253 C 
ENDBRANCH  16  27
BRANCH  18  29
ATOM     29  O   UNL     1     -36.750  23.111  -0.244  0.00  0.00    -0.468 OA
ATOM     30  C   UNL     1     -37.721  22.215  -0.781  0.00  0.00    +0.253 C 
ENDBRANCH  18  29
BRANCH   7  31
ATOM     31  O   UNL     1     -33.958  25.381   1.604  0.00  0.00    -0.442 OA
BRANCH  31  33
ATOM     32  O   UNL     1     -32.309  26.446   0.400  0.00  0.00    -0.245 OA
ATOM     33  C   UNL     1     -33.159  25.574   0.516  0.00  0.00    +0.337 C 
BRANCH  33  34
ATOM     34  C   UNL     1     -33.480  24.555  -0.529  0.00  0.00    +0.050 C 
ATOM     35  C   UNL     1     -32.941  23.166  -0.358  0.00  0.00    +0.037 C 
ATOM     36  C   UNL     1     -34.215  24.992  -1.569  0.00  0.00    -0.024 C 
ATOM     37  C   UNL     1     -34.739  26.376  -1.789  0.00  0.00    +0.031 C 
ENDBRANCH  33  34
ENDBRANCH  31  33
ENDBRANCH   7  31
TORSDOF 6
ENDMDL
MODEL 6
REMARK VINA RESULT:      -5.5      1.826      4.897
REMARK  Name = 20839677
REMARK  6 active torsions:
REMARK  status: ('A' for Active; 'I' for Inactive)
REMARK    1  A    between atoms: C_5  and  O_25
REMARK    2  A    between atoms: C_7  and  O_31
REMARK    3  A    between atoms: C_16  and  O_27
REMARK    4  A    between atoms: C_18  and  O_29
REMARK    5  A    between atoms: O_31  and  C_33
REMARK    6  A    between atoms: C_33  and  C_34
REMARK                            x       y       z     vdW  Elec       q    Type
REMARK                         _______ _______ _______ _____ _____    ______ ____
ROOT
ATOM      1  O   UNL     1     -40.998  22.459   0.376  0.00  0.00    -0.435 OA
ATOM      2  O   UNL     1     -40.423  24.128  -1.264  0.00  0.00    -0.431 OA
ATOM      3  O   UNL     1     -32.128  26.440   0.077  0.00  0.00    -0.435 OA
ATOM      4  O   UNL     1     -34.064  27.782   0.578  0.00  0.00    -0.431 OA
ATOM      5  C   UNL     1     -35.657  21.146   1.993  0.00  0.00    +0.129 C 
ATOM      6  C   UNL     1     -34.402  21.458   1.107  0.00  0.00    +0.033 C 
ATOM      7  C   UNL     1     -36.501  22.390   2.426  0.00  0.00    +0.216 C 
ATOM      8  C   UNL     1     -34.721  22.238  -0.191  0.00  0.00    +0.029 C 
ATOM      9  C   UNL     1     -37.469  22.940   1.381  0.00  0.00    +0.026 C 
ATOM     10  C   UNL     1     -34.638  23.737   0.010  0.00  0.00    -0.016 C 
ATOM     11  C   UNL     1     -35.211  20.403   3.275  0.00  0.00    +0.033 C 
ATOM     12  C   UNL     1     -37.129  23.928   0.409  0.00  0.00    +0.039 C 
ATOM     13  C   UNL     1     -33.644  20.176   0.700  0.00  0.00    +0.003 C 
ATOM     14  C   UNL     1     -35.784  24.522   0.309  0.00  0.00    +0.036 C 
ATOM     15  C   UNL     1     -38.783  22.415   1.400  0.00  0.00    +0.040 C 
ATOM     16  C   UNL     1     -38.113  24.360  -0.510  0.00  0.00    +0.175 C 
ATOM     17  C   UNL     1     -33.368  24.345  -0.076  0.00  0.00    +0.036 C 
ATOM     18  C   UNL     1     -35.632  25.911   0.507  0.00  0.00    +0.175 C 
ATOM     19  C   UNL     1     -39.705  22.869   0.482  0.00  0.00    +0.179 C 
ATOM     20  C   UNL     1     -39.379  23.817  -0.450  0.00  0.00    +0.210 C 
ATOM     21  C   UNL     1     -33.271  25.704   0.125  0.00  0.00    +0.179 C 
ATOM     22  C   UNL     1     -34.373  26.467   0.410  0.00  0.00    +0.210 C 
ATOM     23  C   UNL     1     -41.450  23.264  -0.733  0.00  0.00    +0.429 C 
ATOM     24  C   UNL     1     -32.639  27.758   0.362  0.00  0.00    +0.429 C 
ENDROOT
BRANCH   5  25
ATOM     25  O   UNL     1     -36.505  20.233   1.281  0.00  0.00    -0.383 OA
ATOM     26  H   UNL     1     -37.266  19.999   1.835  0.00  0.00    +0.210 HD
ENDBRANCH   5  25
BRANCH  16  27
ATOM     27  O   UNL     1     -37.837  25.264  -1.493  0.00  0.00    -0.468 OA
ATOM     28  C   UNL     1     -37.453  24.742  -2.764  0.00  0.00    +0.253 C 
ENDBRANCH  16  27
BRANCH  18  29
ATOM     29  O   UNL     1     -36.682  26.713   0.839  0.00  0.00    -0.468 OA
ATOM     30  C   UNL     1     -36.866  27.000   2.224  0.00  0.00    +0.253 C 
ENDBRANCH  18  29
BRANCH   7  31
ATOM     31  O   UNL     1     -35.677  23.423   2.966  0.00  0.00    -0.442 OA
BRANCH  31  33
ATOM     32  O   UNL     1     -37.290  24.261   4.379  0.00  0.00    -0.245 OA
ATOM     33  C   UNL     1     -36.125  23.997   4.118  0.00  0.00    +0.337 C 
BRANCH  33  34
ATOM     34  C   UNL     1     -34.969  24.267   5.026  0.00  0.00    +0.050 C 
ATOM     35  C   UNL     1     -34.125  25.479   4.763  0.00  0.00    +0.037 C 
ATOM     36  C   UNL     1     -34.763  23.361   6.001  0.00  0.00    -0.024 C 
ATOM     37  C   UNL     1     -35.562  22.125   6.270  0.00  0.00    +0.031 C 
ENDBRANCH  33  34
ENDBRANCH  31  33
ENDBRANCH   7  31
TORSDOF 6
ENDMDL
MODEL 7
REMARK VINA RESULT:      -5.4      1.949      6.020
REMARK  Name = 20839677
REMARK  6 active torsions:
REMARK  status: ('A' for Active; 'I' for Inactive)
REMARK    1  A    between atoms: C_5  and  O_25
REMARK    2  A    between atoms: C_7  and  O_31
REMARK    3  A    between atoms: C_16  and  O_27
REMARK    4  A    between atoms: C_18  and  O_29
REMARK    5  A    between atoms: O_31  and  C_33
REMARK    6  A    between atoms: C_33  and  C_34
REMARK                            x       y       z     vdW  Elec       q    Type
REMARK                         _______ _______ _______ _____ _____    ______ ____
ROOT
ATOM      1  O   UNL     1     -35.118  20.971   5.145  0.00  0.00    -0.435 OA
ATOM      2  O   UNL     1     -35.649  23.089   6.164  0.00  0.00    -0.431 OA
ATOM      3  O   UNL     1     -38.773  28.333  -0.057  0.00  0.00    -0.435 OA
ATOM      4  O   UNL     1     -36.610  28.517   0.988  0.00  0.00    -0.431 OA
ATOM      5  C   UNL     1     -38.057  21.736   0.283  0.00  0.00    +0.129 C 
ATOM      6  C   UNL     1     -39.217  22.782   0.149  0.00  0.00    +0.033 C 
ATOM      7  C   UNL     1     -36.656  22.328   0.647  0.00  0.00    +0.216 C 
ATOM      8  C   UNL     1     -39.431  23.656   1.408  0.00  0.00    +0.029 C 
ATOM      9  C   UNL     1     -36.430  22.655   2.122  0.00  0.00    +0.026 C 
ATOM     10  C   UNL     1     -38.614  24.931   1.361  0.00  0.00    -0.016 C 
ATOM     11  C   UNL     1     -37.913  20.953  -1.044  0.00  0.00    +0.033 C 
ATOM     12  C   UNL     1     -36.745  23.909   2.726  0.00  0.00    +0.039 C 
ATOM     13  C   UNL     1     -40.568  22.113  -0.183  0.00  0.00    +0.003 C 
ATOM     14  C   UNL     1     -37.337  25.031   1.977  0.00  0.00    +0.036 C 
ATOM     15  C   UNL     1     -35.872  21.627   2.918  0.00  0.00    +0.040 C 
ATOM     16  C   UNL     1     -36.490  24.095   4.105  0.00  0.00    +0.175 C 
ATOM     17  C   UNL     1     -39.145  26.029   0.654  0.00  0.00    +0.036 C 
ATOM     18  C   UNL     1     -36.619  26.243   1.876  0.00  0.00    +0.175 C 
ATOM     19  C   UNL     1     -35.644  21.858   4.258  0.00  0.00    +0.179 C 
ATOM     20  C   UNL     1     -35.945  23.061   4.837  0.00  0.00    +0.210 C 
ATOM     21  C   UNL     1     -38.407  27.189   0.582  0.00  0.00    +0.179 C 
ATOM     22  C   UNL     1     -37.177  27.294   1.177  0.00  0.00    +0.210 C 
ATOM     23  C   UNL     1     -35.122  21.760   6.353  0.00  0.00    +0.429 C 
ATOM     24  C   UNL     1     -37.630  29.172   0.206  0.00  0.00    +0.429 C 
ENDROOT
BRANCH   5  25
ATOM     25  O   UNL     1     -38.426  20.768   1.276  0.00  0.00    -0.383 OA
ATOM     26  H   UNL     1     -39.245  21.049   1.714  0.00  0.00    +0.210 HD
ENDBRANCH   5  25
BRANCH  16  27
ATOM     27  O   UNL     1     -36.814  25.252   4.751  0.00  0.00    -0.468 OA
ATOM     28  C   UNL     1     -35.789  25.865   5.531  0.00  0.00    +0.253 C 
ENDBRANCH  16  27
BRANCH  18  29
ATOM     29  O   UNL     1     -35.373  26.391   2.406  0.00  0.00    -0.468 OA
ATOM     30  C   UNL     1     -34.267  26.149   1.538  0.00  0.00    +0.253 C 
ENDBRANCH  18  29
BRANCH   7  31
ATOM     31  O   UNL     1     -36.318  23.434  -0.188  0.00  0.00    -0.442 OA
BRANCH  31  33
ATOM     32  O   UNL     1     -34.034  23.170  -0.314  0.00  0.00    -0.245 OA
ATOM     33  C   UNL     1     -35.125  23.342  -0.840  0.00  0.00    +0.337 C 
BRANCH  33  34
ATOM     34  C   UNL     1     -35.345  23.490  -2.311  0.00  0.00    +0.050 C 
ATOM     35  C   UNL     1     -35.209  22.272  -3.177  0.00  0.00    +0.037 C 
ATOM     36  C   UNL     1     -35.621  24.735  -2.742  0.00  0.00    -0.024 C 
ATOM     37  C   UNL     1     -35.730  25.976  -1.913  0.00  0.00    +0.031 C 
ENDBRANCH  33  34
ENDBRANCH  31  33
ENDBRANCH   7  31
TORSDOF 6
ENDMDL
MODEL 8
REMARK VINA RESULT:      -5.4      1.536      6.010
REMARK  Name = 20839677
REMARK  6 active torsions:
REMARK  status: ('A' for Active; 'I' for Inactive)
REMARK    1  A    between atoms: C_5  and  O_25
REMARK    2  A    between atoms: C_7  and  O_31
REMARK    3  A    between atoms: C_16  and  O_27
REMARK    4  A    between atoms: C_18  and  O_29
REMARK    5  A    between atoms: O_31  and  C_33
REMARK    6  A    between atoms: C_33  and  C_34
REMARK                            x       y       z     vdW  Elec       q    Type
REMARK                         _______ _______ _______ _____ _____    ______ ____
ROOT
ATOM      1  O   UNL     1     -34.043  20.039  -0.399  0.00  0.00    -0.435 OA
ATOM      2  O   UNL     1     -35.967  20.348  -1.816  0.00  0.00    -0.431 OA
ATOM      3  O   UNL     1     -40.054  27.595   0.782  0.00  0.00    -0.435 OA
ATOM      4  O   UNL     1     -40.827  25.339   1.125  0.00  0.00    -0.431 OA
ATOM      5  C   UNL     1     -33.891  25.330   1.802  0.00  0.00    +0.129 C 
ATOM      6  C   UNL     1     -34.589  26.554   1.116  0.00  0.00    +0.033 C 
ATOM      7  C   UNL     1     -34.841  24.158   2.215  0.00  0.00    +0.216 C 
ATOM      8  C   UNL     1     -35.404  26.192  -0.149  0.00  0.00    +0.029 C 
ATOM      9  C   UNL     1     -35.250  23.201   1.096  0.00  0.00    +0.026 C 
ATOM     10  C   UNL     1     -36.848  25.871   0.177  0.00  0.00    -0.016 C 
ATOM     11  C   UNL     1     -33.144  25.807   3.071  0.00  0.00    +0.033 C 
ATOM     12  C   UNL     1     -36.389  23.384   0.257  0.00  0.00    +0.039 C 
ATOM     13  C   UNL     1     -33.580  27.650   0.715  0.00  0.00    +0.003 C 
ATOM     14  C   UNL     1     -37.297  24.538   0.381  0.00  0.00    +0.036 C 
ATOM     15  C   UNL     1     -34.424  22.069   0.901  0.00  0.00    +0.040 C 
ATOM     16  C   UNL     1     -36.667  22.429  -0.748  0.00  0.00    +0.175 C 
ATOM     17  C   UNL     1     -37.750  26.948   0.305  0.00  0.00    +0.036 C 
ATOM     18  C   UNL     1     -38.652  24.312   0.704  0.00  0.00    +0.175 C 
ATOM     19  C   UNL     1     -34.738  21.167  -0.093  0.00  0.00    +0.179 C 
ATOM     20  C   UNL     1     -35.831  21.342  -0.897  0.00  0.00    +0.210 C 
ATOM     21  C   UNL     1     -39.062  26.676   0.622  0.00  0.00    +0.179 C 
ATOM     22  C   UNL     1     -39.502  25.393   0.817  0.00  0.00    +0.210 C 
ATOM     23  C   UNL     1     -34.829  19.522  -1.493  0.00  0.00    +0.429 C 
ATOM     24  C   UNL     1     -41.171  26.739   1.098  0.00  0.00    +0.429 C 
ENDROOT
BRANCH   5  25
ATOM     25  O   UNL     1     -32.882  24.822   0.916  0.00  0.00    -0.383 OA
ATOM     26  H   UNL     1     -32.134  24.487   1.435  0.00  0.00    +0.210 HD
ENDBRANCH   5  25
BRANCH  16  27
ATOM     27  O   UNL     1     -37.711  22.572  -1.614  0.00  0.00    -0.468 OA
ATOM     28  C   UNL     1     -37.436  23.211  -2.859  0.00  0.00    +0.253 C 
ENDBRANCH  16  27
BRANCH  18  29
ATOM     29  O   UNL     1     -39.137  23.064   0.955  0.00  0.00    -0.468 OA
ATOM     30  C   UNL     1     -39.687  22.831   2.250  0.00  0.00    +0.253 C 
ENDBRANCH  18  29
BRANCH   7  31
ATOM     31  O   UNL     1     -35.977  24.630   2.936  0.00  0.00    -0.442 OA
BRANCH  31  33
ATOM     32  O   UNL     1     -37.145  22.875   3.863  0.00  0.00    -0.245 OA
ATOM     33  C   UNL     1     -36.399  23.839   3.963  0.00  0.00    +0.337 C 
BRANCH  33  34
ATOM     34  C   UNL     1     -35.814  24.331   5.247  0.00  0.00    +0.050 C 
ATOM     35  C   UNL     1     -35.937  25.791   5.572  0.00  0.00    +0.037 C 
ATOM     36  C   UNL     1     -35.187  23.407   6.000  0.00  0.00    -0.024 C 
ATOM     37  C   UNL     1     -35.016  21.954   5.691  0.00  0.00    +0.031 C 
ENDBRANCH  33  34
ENDBRANCH  31  33
ENDBRANCH   7  31
TORSDOF 6
ENDMDL
MODEL 9
REMARK VINA RESULT:      -5.2      1.830      5.625
REMARK  Name = 20839677
REMARK  6 active torsions:
REMARK  status: ('A' for Active; 'I' for Inactive)
REMARK    1  A    between atoms: C_5  and  O_25
REMARK    2  A    between atoms: C_7  and  O_31
REMARK    3  A    between atoms: C_16  and  O_27
REMARK    4  A    between atoms: C_18  and  O_29
REMARK    5  A    between atoms: O_31  and  C_33
REMARK    6  A    between atoms: C_33  and  C_34
REMARK                            x       y       z     vdW  Elec       q    Type
REMARK                         _______ _______ _______ _____ _____    ______ ____
ROOT
ATOM      1  O   UNL     1     -31.896  24.498  -0.531  0.00  0.00    -0.435 OA
ATOM      2  O   UNL     1     -33.422  25.912  -1.745  0.00  0.00    -0.431 OA
ATOM      3  O   UNL     1     -41.114  25.673   2.346  0.00  0.00    -0.435 OA
ATOM      4  O   UNL     1     -40.605  24.626   0.237  0.00  0.00    -0.431 OA
ATOM      5  C   UNL     1     -34.964  24.080   4.294  0.00  0.00    +0.129 C 
ATOM      6  C   UNL     1     -36.085  25.106   4.679  0.00  0.00    +0.033 C 
ATOM      7  C   UNL     1     -35.193  23.305   2.954  0.00  0.00    +0.216 C 
ATOM      8  C   UNL     1     -36.357  26.181   3.598  0.00  0.00    +0.029 C 
ATOM      9  C   UNL     1     -34.835  24.059   1.675  0.00  0.00    +0.026 C 
ATOM     10  C   UNL     1     -37.436  25.750   2.626  0.00  0.00    -0.016 C 
ATOM     11  C   UNL     1     -34.811  23.036   5.427  0.00  0.00    +0.033 C 
ATOM     12  C   UNL     1     -35.738  24.897   0.956  0.00  0.00    +0.039 C 
ATOM     13  C   UNL     1     -35.769  25.846   5.995  0.00  0.00    +0.003 C 
ATOM     14  C   UNL     1     -37.128  25.130   1.385  0.00  0.00    +0.036 C 
ATOM     15  C   UNL     1     -33.513  23.898   1.197  0.00  0.00    +0.040 C 
ATOM     16  C   UNL     1     -35.292  25.545  -0.219  0.00  0.00    +0.175 C 
ATOM     17  C   UNL     1     -38.781  25.954   3.000  0.00  0.00    +0.036 C 
ATOM     18  C   UNL     1     -38.184  24.732   0.536  0.00  0.00    +0.175 C 
ATOM     19  C   UNL     1     -33.127  24.553   0.048  0.00  0.00    +0.179 C 
ATOM     20  C   UNL     1     -33.994  25.356  -0.644  0.00  0.00    +0.210 C 
ATOM     21  C   UNL     1     -39.775  25.549   2.138  0.00  0.00    +0.179 C 
ATOM     22  C   UNL     1     -39.485  24.954   0.938  0.00  0.00    +0.210 C 
ATOM     23  C   UNL     1     -32.091  25.362  -1.670  0.00  0.00    +0.429 C 
ATOM     24  C   UNL     1     -41.635  25.088   1.135  0.00  0.00    +0.429 C 
ENDROOT
BRANCH   5  25
ATOM     25  O   UNL     1     -33.711  24.775   4.222  0.00  0.00    -0.383 OA
ATOM     26  H   UNL     1     -33.803  25.549   3.645  0.00  0.00    +0.210 HD
ENDBRANCH   5  25
BRANCH  16  27
ATOM     27  O   UNL     1     -36.091  26.397  -0.924  0.00  0.00    -0.468 OA
ATOM     28  C   UNL     1     -36.022  27.780  -0.583  0.00  0.00    +0.253 C 
ENDBRANCH  16  27
BRANCH  18  29
ATOM     29  O   UNL     1     -37.959  24.094  -0.646  0.00  0.00    -0.468 OA
ATOM     30  C   UNL     1     -38.593  24.634  -1.804  0.00  0.00    +0.253 C 
ENDBRANCH  18  29
BRANCH   7  31
ATOM     31  O   UNL     1     -36.506  22.753   2.883  0.00  0.00    -0.442 OA
BRANCH  31  33
ATOM     32  O   UNL     1     -35.913  20.531   3.000  0.00  0.00    -0.245 OA
ATOM     33  C   UNL     1     -36.579  21.440   2.524  0.00  0.00    +0.337 C 
BRANCH  33  34
ATOM     34  C   UNL     1     -37.602  21.270   1.448  0.00  0.00    +0.050 C 
ATOM     35  C   UNL     1     -39.051  21.374   1.820  0.00  0.00    +0.037 C 
ATOM     36  C   UNL     1     -37.122  21.003   0.218  0.00  0.00    -0.024 C 
ATOM     37  C   UNL     1     -35.688  20.859  -0.182  0.00  0.00    +0.031 C 
ENDBRANCH  33  34
ENDBRANCH  31  33
ENDBRANCH   7  31
TORSDOF 6
ENDMDL
