MODEL 1
REMARK VINA RESULT:      -6.6      0.000      0.000
REMARK  Name = 5282034
REMARK  6 active torsions:
REMARK  status: ('A' for Active; 'I' for Inactive)
REMARK    1  A    between atoms: C_4  and  O_23
REMARK    2  A    between atoms: C_12  and  C_21
REMARK    3  A    between atoms: C_13  and  O_19
REMARK    4  A    between atoms: O_23  and  C_27
REMARK    5  A    between atoms: C_25  and  N_31
REMARK    6  A    between atoms: C_26  and  O_35
REMARK                            x       y       z     vdW  Elec       q    Type
REMARK                         _______ _______ _______ _____ _____    ______ ____
ROOT
ATOM      1  O   UNL     1     -34.918  23.089   3.532  0.00  0.00    -0.449 OA
ATOM      2  O   UNL     1     -36.329  24.606   4.550  0.00  0.00    -0.250 OA
ATOM      3  O   UNL     1     -37.811  23.291  -0.719  0.00  0.00    -0.291 OA
ATOM      4  C   UNL     1     -35.132  26.478   2.565  0.00  0.00    +0.128 C 
ATOM      5  C   UNL     1     -35.972  25.961   1.360  0.00  0.00    +0.028 C 
ATOM      6  C   UNL     1     -34.370  25.374   3.338  0.00  0.00    +0.126 C 
ATOM      7  C   UNL     1     -35.092  25.427   0.200  0.00  0.00    +0.010 C 
ATOM      8  C   UNL     1     -35.865  24.695  -0.919  0.00  0.00    +0.062 C 
ATOM      9  C   UNL     1     -36.887  27.091   0.859  0.00  0.00    +0.003 C 
ATOM     10  C   UNL     1     -33.561  25.930   4.512  0.00  0.00    +0.014 C 
ATOM     11  C   UNL     1     -35.333  24.337   3.891  0.00  0.00    +0.319 C 
ATOM     12  C   UNL     1     -35.783  21.966   3.829  0.00  0.00    +0.197 C 
ATOM     13  C   UNL     1     -35.892  21.084   2.556  0.00  0.00    +0.143 C 
ATOM     14  C   UNL     1     -34.928  24.283  -2.053  0.00  0.00    +0.008 C 
ATOM     15  C   UNL     1     -36.632  23.471  -0.419  0.00  0.00    +0.172 C 
ATOM     16  C   UNL     1     -36.543  21.924   1.467  0.00  0.00    +0.006 C 
ATOM     17  C   UNL     1     -35.901  22.504   0.444  0.00  0.00    +0.035 C 
ATOM     18  C   UNL     1     -34.547  20.470   2.146  0.00  0.00    +0.038 C 
ENDROOT
BRANCH  13  19
ATOM     19  O   UNL     1     -36.765  19.979   2.826  0.00  0.00    -0.379 OA
ATOM     20  H   UNL     1     -37.245  20.141   3.653  0.00  0.00    +0.211 HD
ENDBRANCH  13  19
BRANCH  12  21
ATOM     21  C   UNL     1     -35.211  21.244   5.047  0.00  0.00    +0.046 C 
ATOM     22  C   UNL     1     -35.544  21.978   6.331  0.00  0.00    +0.004 C 
ENDBRANCH  12  21
BRANCH   4  23
ATOM     23  O   UNL     1     -34.210  27.458   2.088  0.00  0.00    -0.331 OA
BRANCH  23  27
ATOM     24  O   UNL     1     -35.259  29.541   2.170  0.00  0.00    -0.331 OA
ATOM     25  C   UNL     1     -33.013  30.717   3.525  0.00  0.00    -0.023 C 
ATOM     26  C   UNL     1     -32.940  29.325   2.883  0.00  0.00    +0.148 C 
ATOM     27  C   UNL     1     -34.328  28.679   2.820  0.00  0.00    +0.261 C 
ATOM     28  C   UNL     1     -34.112  31.553   2.866  0.00  0.00    +0.011 C 
ATOM     29  C   UNL     1     -35.431  30.781   2.858  0.00  0.00    +0.116 C 
ATOM     30  C   UNL     1     -36.520  31.565   2.138  0.00  0.00    +0.032 C 
BRANCH  25  31
ATOM     31  N   UNL     1     -31.730  31.413   3.407  0.00  0.00    +0.387 N 
ATOM     32  C   UNL     1     -31.141  31.624   4.729  0.00  0.00    -0.101 C 
ATOM     33  C   UNL     1     -31.904  32.688   2.714  0.00  0.00    -0.101 C 
ATOM     34  H   UNL     1     -31.095  30.831   2.859  0.00  0.00    -0.080 HD
ENDBRANCH  25  31
BRANCH  26  35
ATOM     35  O   UNL     1     -32.094  28.476   3.657  0.00  0.00    -0.381 OA
ATOM     36  H   UNL     1     -31.332  28.983   3.977  0.00  0.00    +0.210 HD
ENDBRANCH  26  35
ENDBRANCH  23  27
ENDBRANCH   4  23
TORSDOF 6
ENDMDL
MODEL 2
REMARK VINA RESULT:      -6.5      3.011      8.089
REMARK  Name = 5282034
REMARK  6 active torsions:
REMARK  status: ('A' for Active; 'I' for Inactive)
REMARK    1  A    between atoms: C_4  and  O_23
REMARK    2  A    between atoms: C_12  and  C_21
REMARK    3  A    between atoms: C_13  and  O_19
REMARK    4  A    between atoms: O_23  and  C_27
REMARK    5  A    between atoms: C_25  and  N_31
REMARK    6  A    between atoms: C_26  and  O_35
REMARK                            x       y       z     vdW  Elec       q    Type
REMARK                         _______ _______ _______ _____ _____    ______ ____
ROOT
ATOM      1  O   UNL     1     -32.596  28.412   5.026  0.00  0.00    -0.449 OA
ATOM      2  O   UNL     1     -31.975  26.648   3.674  0.00  0.00    -0.250 OA
ATOM      3  O   UNL     1     -33.326  31.324   0.846  0.00  0.00    -0.291 OA
ATOM      4  C   UNL     1     -34.859  26.695   2.931  0.00  0.00    +0.128 C 
ATOM      5  C   UNL     1     -34.742  27.928   1.987  0.00  0.00    +0.028 C 
ATOM      6  C   UNL     1     -34.291  26.918   4.353  0.00  0.00    +0.126 C 
ATOM      7  C   UNL     1     -35.651  29.107   2.422  0.00  0.00    +0.010 C 
ATOM      8  C   UNL     1     -35.408  30.430   1.663  0.00  0.00    +0.062 C 
ATOM      9  C   UNL     1     -35.077  27.499   0.549  0.00  0.00    +0.003 C 
ATOM     10  C   UNL     1     -34.429  25.680   5.242  0.00  0.00    +0.014 C 
ATOM     11  C   UNL     1     -32.817  27.283   4.295  0.00  0.00    +0.319 C 
ATOM     12  C   UNL     1     -31.280  29.016   4.974  0.00  0.00    +0.197 C 
ATOM     13  C   UNL     1     -31.453  30.542   4.739  0.00  0.00    +0.143 C 
ATOM     14  C   UNL     1     -36.405  31.503   2.100  0.00  0.00    +0.008 C 
ATOM     15  C   UNL     1     -33.983  30.961   1.820  0.00  0.00    +0.172 C 
ATOM     16  C   UNL     1     -32.126  30.727   3.387  0.00  0.00    +0.006 C 
ATOM     17  C   UNL     1     -33.418  31.023   3.196  0.00  0.00    +0.035 C 
ATOM     18  C   UNL     1     -32.181  31.239   5.896  0.00  0.00    +0.038 C 
ENDROOT
BRANCH  13  19
ATOM     19  O   UNL     1     -30.158  31.152   4.662  0.00  0.00    -0.379 OA
ATOM     20  H   UNL     1     -29.659  30.760   3.928  0.00  0.00    +0.211 HD
ENDBRANCH  13  19
BRANCH  12  21
ATOM     21  C   UNL     1     -30.550  28.658   6.267  0.00  0.00    +0.046 C 
ATOM     22  C   UNL     1     -29.149  28.149   5.987  0.00  0.00    +0.004 C 
ENDBRANCH  12  21
BRANCH   4  23
ATOM     23  O   UNL     1     -36.235  26.318   3.015  0.00  0.00    -0.331 OA
BRANCH  23  27
ATOM     24  O   UNL     1     -35.646  24.384   1.850  0.00  0.00    -0.331 OA
ATOM     25  C   UNL     1     -38.109  23.092   2.576  0.00  0.00    -0.023 C 
ATOM     26  C   UNL     1     -37.879  24.593   2.799  0.00  0.00    +0.148 C 
ATOM     27  C   UNL     1     -36.386  24.899   2.954  0.00  0.00    +0.261 C 
ATOM     28  C   UNL     1     -37.200  22.571   1.461  0.00  0.00    +0.011 C 
ATOM     29  C   UNL     1     -35.748  22.963   1.737  0.00  0.00    +0.116 C 
ATOM     30  C   UNL     1     -34.836  22.520   0.601  0.00  0.00    +0.032 C 
BRANCH  25  31
ATOM     31  N   UNL     1     -39.507  22.825   2.232  0.00  0.00    +0.387 N 
ATOM     32  C   UNL     1     -39.684  21.417   1.875  0.00  0.00    -0.101 C 
ATOM     33  C   UNL     1     -39.937  23.690   1.135  0.00  0.00    -0.101 C 
ATOM     34  H   UNL     1     -40.086  23.026   3.049  0.00  0.00    -0.080 HD
ENDBRANCH  25  31
BRANCH  26  35
ATOM     35  O   UNL     1     -38.541  25.014   3.991  0.00  0.00    -0.381 OA
ATOM     36  H   UNL     1     -38.918  24.243   4.442  0.00  0.00    +0.210 HD
ENDBRANCH  26  35
ENDBRANCH  23  27
ENDBRANCH   4  23
TORSDOF 6
ENDMDL
MODEL 3
REMARK VINA RESULT:      -6.4      3.769      8.974
REMARK  Name = 5282034
REMARK  6 active torsions:
REMARK  status: ('A' for Active; 'I' for Inactive)
REMARK    1  A    between atoms: C_4  and  O_23
REMARK    2  A    between atoms: C_12  and  C_21
REMARK    3  A    between atoms: C_13  and  O_19
REMARK    4  A    between atoms: O_23  and  C_27
REMARK    5  A    between atoms: C_25  and  N_31
REMARK    6  A    between atoms: C_26  and  O_35
REMARK                            x       y       z     vdW  Elec       q    Type
REMARK                         _______ _______ _______ _____ _____    ______ ____
ROOT
ATOM      1  O   UNL     1     -33.707  25.797   1.482  0.00  0.00    -0.449 OA
ATOM      2  O   UNL     1     -35.050  25.194  -0.296  0.00  0.00    -0.250 OA
ATOM      3  O   UNL     1     -37.572  24.754   4.717  0.00  0.00    -0.291 OA
ATOM      4  C   UNL     1     -34.724  22.473   0.870  0.00  0.00    +0.128 C 
ATOM      5  C   UNL     1     -35.741  22.692   2.028  0.00  0.00    +0.028 C 
ATOM      6  C   UNL     1     -33.617  23.551   0.773  0.00  0.00    +0.126 C 
ATOM      7  C   UNL     1     -35.106  22.503   3.430  0.00  0.00    +0.010 C 
ATOM      8  C   UNL     1     -36.003  22.930   4.613  0.00  0.00    +0.062 C 
ATOM      9  C   UNL     1     -36.929  21.733   1.847  0.00  0.00    +0.003 C 
ATOM     10  C   UNL     1     -32.643  23.292  -0.378  0.00  0.00    +0.014 C 
ATOM     11  C   UNL     1     -34.222  24.929   0.566  0.00  0.00    +0.319 C 
ATOM     12  C   UNL     1     -34.269  27.130   1.555  0.00  0.00    +0.197 C 
ATOM     13  C   UNL     1     -34.546  27.462   3.047  0.00  0.00    +0.143 C 
ATOM     14  C   UNL     1     -35.327  22.627   5.950  0.00  0.00    +0.008 C 
ATOM     15  C   UNL     1     -36.403  24.404   4.564  0.00  0.00    +0.172 C 
ATOM     16  C   UNL     1     -35.582  26.471   3.555  0.00  0.00    +0.006 C 
ATOM     17  C   UNL     1     -35.326  25.403   4.323  0.00  0.00    +0.035 C 
ATOM     18  C   UNL     1     -33.265  27.509   3.890  0.00  0.00    +0.038 C 
ENDROOT
BRANCH  13  19
ATOM     19  O   UNL     1     -35.125  28.771   3.135  0.00  0.00    -0.379 OA
ATOM     20  H   UNL     1     -35.426  29.051   2.256  0.00  0.00    +0.211 HD
ENDBRANCH  13  19
BRANCH  12  21
ATOM     21  C   UNL     1     -33.295  28.086   0.869  0.00  0.00    +0.046 C 
ATOM     22  C   UNL     1     -33.903  28.692  -0.380  0.00  0.00    +0.004 C 
ENDBRANCH  12  21
BRANCH   4  23
ATOM     23  O   UNL     1     -34.129  21.183   1.027  0.00  0.00    -0.331 OA
BRANCH  23  27
ATOM     24  O   UNL     1     -35.426  20.956  -0.899  0.00  0.00    -0.331 OA
ATOM     25  C   UNL     1     -35.499  18.096  -0.617  0.00  0.00    -0.023 C 
ATOM     26  C   UNL     1     -34.989  19.012   0.503  0.00  0.00    +0.148 C 
ATOM     27  C   UNL     1     -34.451  20.328  -0.070  0.00  0.00    +0.261 C 
ATOM     28  C   UNL     1     -36.447  18.860  -1.544  0.00  0.00    +0.011 C 
ATOM     29  C   UNL     1     -35.788  20.153  -2.024  0.00  0.00    +0.116 C 
ATOM     30  C   UNL     1     -36.744  20.967  -2.887  0.00  0.00    +0.032 C 
BRANCH  25  31
ATOM     31  N   UNL     1     -36.190  16.930  -0.062  0.00  0.00    +0.387 N 
ATOM     32  C   UNL     1     -35.548  15.695  -0.512  0.00  0.00    -0.101 C 
ATOM     33  C   UNL     1     -37.601  16.944  -0.445  0.00  0.00    -0.101 C 
ATOM     34  H   UNL     1     -36.131  16.973   0.956  0.00  0.00    -0.080 HD
ENDBRANCH  25  31
BRANCH  26  35
ATOM     35  O   UNL     1     -33.927  18.373   1.209  0.00  0.00    -0.381 OA
ATOM     36  H   UNL     1     -34.295  17.765   1.868  0.00  0.00    +0.210 HD
ENDBRANCH  26  35
ENDBRANCH  23  27
ENDBRANCH   4  23
TORSDOF 6
ENDMDL
MODEL 4
REMARK VINA RESULT:      -6.3      3.309      6.018
REMARK  Name = 5282034
REMARK  6 active torsions:
REMARK  status: ('A' for Active; 'I' for Inactive)
REMARK    1  A    between atoms: C_4  and  O_23
REMARK    2  A    between atoms: C_12  and  C_21
REMARK    3  A    between atoms: C_13  and  O_19
REMARK    4  A    between atoms: O_23  and  C_27
REMARK    5  A    between atoms: C_25  and  N_31
REMARK    6  A    between atoms: C_26  and  O_35
REMARK                            x       y       z     vdW  Elec       q    Type
REMARK                         _______ _______ _______ _____ _____    ______ ____
ROOT
ATOM      1  O   UNL     1     -38.246  19.647  -0.210  0.00  0.00    -0.449 OA
ATOM      2  O   UNL     1     -38.261  21.900  -0.714  0.00  0.00    -0.250 OA
ATOM      3  O   UNL     1     -33.322  19.380  -1.682  0.00  0.00    -0.291 OA
ATOM      4  C   UNL     1     -36.459  22.055   1.653  0.00  0.00    +0.128 C 
ATOM      5  C   UNL     1     -35.198  21.530   0.905  0.00  0.00    +0.028 C 
ATOM      6  C   UNL     1     -37.706  21.147   1.527  0.00  0.00    +0.126 C 
ATOM      7  C   UNL     1     -34.616  20.242   1.541  0.00  0.00    +0.010 C 
ATOM      8  C   UNL     1     -33.510  19.550   0.713  0.00  0.00    +0.062 C 
ATOM      9  C   UNL     1     -34.132  22.637   0.870  0.00  0.00    +0.003 C 
ATOM     10  C   UNL     1     -38.917  21.705   2.278  0.00  0.00    +0.014 C 
ATOM     11  C   UNL     1     -38.104  20.973   0.071  0.00  0.00    +0.319 C 
ATOM     12  C   UNL     1     -38.472  19.258  -1.587  0.00  0.00    +0.197 C 
ATOM     13  C   UNL     1     -37.510  18.087  -1.927  0.00  0.00    +0.143 C 
ATOM     14  C   UNL     1     -32.941  18.343   1.459  0.00  0.00    +0.008 C 
ATOM     15  C   UNL     1     -33.979  19.118  -0.676  0.00  0.00    +0.172 C 
ATOM     16  C   UNL     1     -36.087  18.607  -1.798  0.00  0.00    +0.006 C 
ATOM     17  C   UNL     1     -35.263  18.370  -0.768  0.00  0.00    +0.035 C 
ATOM     18  C   UNL     1     -37.791  16.830  -1.093  0.00  0.00    +0.038 C 
ENDROOT
BRANCH  13  19
ATOM     19  O   UNL     1     -37.706  17.705  -3.295  0.00  0.00    -0.379 OA
ATOM     20  H   UNL     1     -38.645  17.788  -3.523  0.00  0.00    +0.211 HD
ENDBRANCH  13  19
BRANCH  12  21
ATOM     21  C   UNL     1     -39.954  18.919  -1.739  0.00  0.00    +0.046 C 
ATOM     22  C   UNL     1     -40.671  19.949  -2.590  0.00  0.00    +0.004 C 
ENDBRANCH  12  21
BRANCH   4  23
ATOM     23  O   UNL     1     -36.128  22.232   3.031  0.00  0.00    -0.331 OA
BRANCH  23  27
ATOM     24  O   UNL     1     -36.697  24.378   2.314  0.00  0.00    -0.331 OA
ATOM     25  C   UNL     1     -35.050  25.586   4.338  0.00  0.00    -0.023 C 
ATOM     26  C   UNL     1     -34.980  24.087   4.017  0.00  0.00    +0.148 C 
ATOM     27  C   UNL     1     -36.308  23.590   3.436  0.00  0.00    +0.261 C 
ATOM     28  C   UNL     1     -35.589  26.365   3.136  0.00  0.00    +0.011 C 
ATOM     29  C   UNL     1     -36.903  25.751   2.653  0.00  0.00    +0.116 C 
ATOM     30  C   UNL     1     -37.417  26.465   1.411  0.00  0.00    +0.032 C 
BRANCH  25  31
ATOM     31  N   UNL     1     -33.729  26.102   4.704  0.00  0.00    +0.387 N 
ATOM     32  C   UNL     1     -33.704  26.480   6.116  0.00  0.00    -0.101 C 
ATOM     33  C   UNL     1     -33.376  27.243   3.861  0.00  0.00    -0.101 C 
ATOM     34  H   UNL     1     -33.040  25.364   4.555  0.00  0.00    -0.080 HD
ENDBRANCH  25  31
BRANCH  26  35
ATOM     35  O   UNL     1     -34.716  23.347   5.208  0.00  0.00    -0.381 OA
ATOM     36  H   UNL     1     -35.236  22.528   5.203  0.00  0.00    +0.210 HD
ENDBRANCH  26  35
ENDBRANCH  23  27
ENDBRANCH   4  23
TORSDOF 6
ENDMDL
MODEL 5
REMARK VINA RESULT:      -6.2      2.821      7.871
REMARK  Name = 5282034
REMARK  6 active torsions:
REMARK  status: ('A' for Active; 'I' for Inactive)
REMARK    1  A    between atoms: C_4  and  O_23
REMARK    2  A    between atoms: C_12  and  C_21
REMARK    3  A    between atoms: C_13  and  O_19
REMARK    4  A    between atoms: O_23  and  C_27
REMARK    5  A    between atoms: C_25  and  N_31
REMARK    6  A    between atoms: C_26  and  O_35
REMARK                            x       y       z     vdW  Elec       q    Type
REMARK                         _______ _______ _______ _____ _____    ______ ____
ROOT
ATOM      1  O   UNL     1     -33.459  28.499   4.228  0.00  0.00    -0.449 OA
ATOM      2  O   UNL     1     -32.703  26.401   4.826  0.00  0.00    -0.250 OA
ATOM      3  O   UNL     1     -31.436  27.863  -0.461  0.00  0.00    -0.291 OA
ATOM      4  C   UNL     1     -34.797  25.514   2.901  0.00  0.00    +0.128 C 
ATOM      5  C   UNL     1     -33.967  25.843   1.626  0.00  0.00    +0.028 C 
ATOM      6  C   UNL     1     -34.931  26.686   3.903  0.00  0.00    +0.126 C 
ATOM      7  C   UNL     1     -34.672  26.866   0.698  0.00  0.00    +0.010 C 
ATOM      8  C   UNL     1     -33.800  27.403  -0.459  0.00  0.00    +0.062 C 
ATOM      9  C   UNL     1     -33.674  24.542   0.862  0.00  0.00    +0.003 C 
ATOM     10  C   UNL     1     -35.755  26.313   5.138  0.00  0.00    +0.014 C 
ATOM     11  C   UNL     1     -33.565  27.148   4.381  0.00  0.00    +0.319 C 
ATOM     12  C   UNL     1     -32.175  29.119   4.482  0.00  0.00    +0.197 C 
ATOM     13  C   UNL     1     -31.857  30.081   3.305  0.00  0.00    +0.143 C 
ATOM     14  C   UNL     1     -34.605  28.334  -1.365  0.00  0.00    +0.008 C 
ATOM     15  C   UNL     1     -32.538  28.120   0.020  0.00  0.00    +0.172 C 
ATOM     16  C   UNL     1     -31.750  29.243   2.040  0.00  0.00    +0.006 C 
ATOM     17  C   UNL     1     -32.691  29.142   1.092  0.00  0.00    +0.035 C 
ATOM     18  C   UNL     1     -32.860  31.238   3.201  0.00  0.00    +0.038 C 
ENDROOT
BRANCH  13  19
ATOM     19  O   UNL     1     -30.577  30.686   3.529  0.00  0.00    -0.379 OA
ATOM     20  H   UNL     1     -29.986  30.479   2.787  0.00  0.00    +0.211 HD
ENDBRANCH  13  19
BRANCH  12  21
ATOM     21  C   UNL     1     -32.245  29.798   5.848  0.00  0.00    +0.046 C 
ATOM     22  C   UNL     1     -31.171  29.276   6.781  0.00  0.00    +0.004 C 
ENDBRANCH  12  21
BRANCH   4  23
ATOM     23  O   UNL     1     -36.095  25.074   2.496  0.00  0.00    -0.331 OA
BRANCH  23  27
ATOM     24  O   UNL     1     -35.530  23.431   4.053  0.00  0.00    -0.331 OA
ATOM     25  C   UNL     1     -36.119  21.331   2.181  0.00  0.00    -0.023 C 
ATOM     26  C   UNL     1     -36.020  22.801   1.752  0.00  0.00    +0.148 C 
ATOM     27  C   UNL     1     -36.344  23.735   2.923  0.00  0.00    +0.261 C 
ATOM     28  C   UNL     1     -35.324  21.093   3.467  0.00  0.00    +0.011 C 
ATOM     29  C   UNL     1     -35.738  22.103   4.538  0.00  0.00    +0.116 C 
ATOM     30  C   UNL     1     -34.905  21.933   5.801  0.00  0.00    +0.032 C 
BRANCH  25  31
ATOM     31  N   UNL     1     -35.620  20.446   1.126  0.00  0.00    +0.387 N 
ATOM     32  C   UNL     1     -36.651  19.483   0.740  0.00  0.00    -0.101 C 
ATOM     33  C   UNL     1     -34.412  19.753   1.571  0.00  0.00    -0.101 C 
ATOM     34  H   UNL     1     -35.386  21.014   0.311  0.00  0.00    -0.080 HD
ENDBRANCH  25  31
BRANCH  26  35
ATOM     35  O   UNL     1     -36.953  23.066   0.706  0.00  0.00    -0.381 OA
ATOM     36  H   UNL     1     -37.406  23.906   0.881  0.00  0.00    +0.210 HD
ENDBRANCH  26  35
ENDBRANCH  23  27
ENDBRANCH   4  23
TORSDOF 6
ENDMDL
MODEL 6
REMARK VINA RESULT:      -6.2      3.131      8.946
REMARK  Name = 5282034
REMARK  6 active torsions:
REMARK  status: ('A' for Active; 'I' for Inactive)
REMARK    1  A    between atoms: C_4  and  O_23
REMARK    2  A    between atoms: C_12  and  C_21
REMARK    3  A    between atoms: C_13  and  O_19
REMARK    4  A    between atoms: O_23  and  C_27
REMARK    5  A    between atoms: C_25  and  N_31
REMARK    6  A    between atoms: C_26  and  O_35
REMARK                            x       y       z     vdW  Elec       q    Type
REMARK                         _______ _______ _______ _____ _____    ______ ____
ROOT
ATOM      1  O   UNL     1     -32.234  32.289   2.799  0.00  0.00    -0.449 OA
ATOM      2  O   UNL     1     -31.469  30.410   1.698  0.00  0.00    -0.250 OA
ATOM      3  O   UNL     1     -35.885  32.868  -0.781  0.00  0.00    -0.291 OA
ATOM      4  C   UNL     1     -34.049  29.264   2.649  0.00  0.00    +0.128 C 
ATOM      5  C   UNL     1     -34.924  29.976   1.576  0.00  0.00    +0.028 C 
ATOM      6  C   UNL     1     -33.129  30.209   3.459  0.00  0.00    +0.126 C 
ATOM      7  C   UNL     1     -36.013  30.889   2.198  0.00  0.00    +0.010 C 
ATOM      8  C   UNL     1     -36.757  31.793   1.190  0.00  0.00    +0.062 C 
ATOM      9  C   UNL     1     -35.570  28.919   0.665  0.00  0.00    +0.003 C 
ATOM     10  C   UNL     1     -32.290  29.463   4.499  0.00  0.00    +0.014 C 
ATOM     11  C   UNL     1     -32.173  30.952   2.540  0.00  0.00    +0.319 C 
ATOM     12  C   UNL     1     -31.513  33.191   1.926  0.00  0.00    +0.197 C 
ATOM     13  C   UNL     1     -32.463  34.355   1.533  0.00  0.00    +0.143 C 
ATOM     14  C   UNL     1     -37.864  32.588   1.882  0.00  0.00    +0.008 C 
ATOM     15  C   UNL     1     -35.830  32.751   0.442  0.00  0.00    +0.172 C 
ATOM     16  C   UNL     1     -33.628  33.757   0.758  0.00  0.00    +0.006 C 
ATOM     17  C   UNL     1     -34.856  33.537   1.247  0.00  0.00    +0.035 C 
ATOM     18  C   UNL     1     -32.889  35.202   2.739  0.00  0.00    +0.038 C 
ENDROOT
BRANCH  13  19
ATOM     19  O   UNL     1     -31.771  35.245   0.649  0.00  0.00    -0.379 OA
ATOM     20  H   UNL     1     -32.371  35.955   0.369  0.00  0.00    +0.211 HD
ENDBRANCH  13  19
BRANCH  12  21
ATOM     21  C   UNL     1     -30.245  33.633   2.654  0.00  0.00    +0.046 C 
ATOM     22  C   UNL     1     -28.999  33.194   1.911  0.00  0.00    +0.004 C 
ENDBRANCH  12  21
BRANCH   4  23
ATOM     23  O   UNL     1     -34.911  28.552   3.537  0.00  0.00    -0.331 OA
BRANCH  23  27
ATOM     24  O   UNL     1     -33.944  26.767   2.388  0.00  0.00    -0.331 OA
ATOM     25  C   UNL     1     -35.546  24.860   3.824  0.00  0.00    -0.023 C 
ATOM     26  C   UNL     1     -35.828  26.367   3.879  0.00  0.00    +0.148 C 
ATOM     27  C   UNL     1     -34.552  27.172   3.612  0.00  0.00    +0.261 C 
ATOM     28  C   UNL     1     -34.786  24.504   2.544  0.00  0.00    +0.011 C 
ATOM     29  C   UNL     1     -33.550  25.393   2.398  0.00  0.00    +0.116 C 
ATOM     30  C   UNL     1     -32.821  25.108   1.093  0.00  0.00    +0.032 C 
BRANCH  25  31
ATOM     31  N   UNL     1     -36.793  24.095   3.881  0.00  0.00    +0.387 N 
ATOM     32  C   UNL     1     -36.529  22.673   3.660  0.00  0.00    -0.101 C 
ATOM     33  C   UNL     1     -37.746  24.598   2.894  0.00  0.00    -0.101 C 
ATOM     34  H   UNL     1     -37.199  24.207   4.810  0.00  0.00    -0.080 HD
ENDBRANCH  25  31
BRANCH  26  35
ATOM     35  O   UNL     1     -36.310  26.724   5.173  0.00  0.00    -0.381 OA
ATOM     36  H   UNL     1     -37.191  26.342   5.308  0.00  0.00    +0.210 HD
ENDBRANCH  26  35
ENDBRANCH  23  27
ENDBRANCH   4  23
TORSDOF 6
ENDMDL
MODEL 7
REMARK VINA RESULT:      -6.1      4.719      9.120
REMARK  Name = 5282034
REMARK  6 active torsions:
REMARK  status: ('A' for Active; 'I' for Inactive)
REMARK    1  A    between atoms: C_4  and  O_23
REMARK    2  A    between atoms: C_12  and  C_21
REMARK    3  A    between atoms: C_13  and  O_19
REMARK    4  A    between atoms: O_23  and  C_27
REMARK    5  A    between atoms: C_25  and  N_31
REMARK    6  A    between atoms: C_26  and  O_35
REMARK                            x       y       z     vdW  Elec       q    Type
REMARK                         _______ _______ _______ _____ _____    ______ ____
ROOT
ATOM      1  O   UNL     1     -39.102  23.674   0.949  0.00  0.00    -0.449 OA
ATOM      2  O   UNL     1     -39.438  21.411   1.253  0.00  0.00    -0.250 OA
ATOM      3  O   UNL     1     -36.308  23.811   5.269  0.00  0.00    -0.291 OA
ATOM      4  C   UNL     1     -36.531  21.278   0.615  0.00  0.00    +0.128 C 
ATOM      5  C   UNL     1     -36.057  21.760   2.018  0.00  0.00    +0.028 C 
ATOM      6  C   UNL     1     -37.563  22.207  -0.069  0.00  0.00    +0.126 C 
ATOM      7  C   UNL     1     -35.202  23.053   1.951  0.00  0.00    +0.010 C 
ATOM      8  C   UNL     1     -34.898  23.702   3.320  0.00  0.00    +0.062 C 
ATOM      9  C   UNL     1     -35.266  20.632   2.701  0.00  0.00    +0.003 C 
ATOM     10  C   UNL     1     -37.998  21.691  -1.443  0.00  0.00    +0.014 C 
ATOM     11  C   UNL     1     -38.810  22.353   0.786  0.00  0.00    +0.319 C 
ATOM     12  C   UNL     1     -40.167  24.034   1.862  0.00  0.00    +0.197 C 
ATOM     13  C   UNL     1     -39.657  25.178   2.781  0.00  0.00    +0.143 C 
ATOM     14  C   UNL     1     -33.983  24.916   3.158  0.00  0.00    +0.008 C 
ATOM     15  C   UNL     1     -36.157  24.109   4.085  0.00  0.00    +0.172 C 
ATOM     16  C   UNL     1     -38.489  24.634   3.589  0.00  0.00    +0.006 C 
ATOM     17  C   UNL     1     -37.194  24.880   3.347  0.00  0.00    +0.035 C 
ATOM     18  C   UNL     1     -39.331  26.460   2.002  0.00  0.00    +0.038 C 
ENDROOT
BRANCH  13  19
ATOM     19  O   UNL     1     -40.693  25.531   3.707  0.00  0.00    -0.379 OA
ATOM     20  H   UNL     1     -40.555  25.057   4.542  0.00  0.00    +0.211 HD
ENDBRANCH  13  19
BRANCH  12  21
ATOM     21  C   UNL     1     -41.394  24.398   1.028  0.00  0.00    +0.046 C 
ATOM     22  C   UNL     1     -41.058  24.466  -0.449  0.00  0.00    +0.004 C 
ENDBRANCH  12  21
BRANCH   4  23
ATOM     23  O   UNL     1     -35.385  21.128  -0.224  0.00  0.00    -0.331 OA
BRANCH  23  27
ATOM     24  O   UNL     1     -36.295  18.981  -0.140  0.00  0.00    -0.331 OA
ATOM     25  C   UNL     1     -33.755  17.786  -0.761  0.00  0.00    -0.023 C 
ATOM     26  C   UNL     1     -33.888  19.267  -0.383  0.00  0.00    +0.148 C 
ATOM     27  C   UNL     1     -35.284  19.796  -0.729  0.00  0.00    +0.261 C 
ATOM     28  C   UNL     1     -34.933  16.983  -0.203  0.00  0.00    +0.011 C 
ATOM     29  C   UNL     1     -36.256  17.633  -0.610  0.00  0.00    +0.116 C 
ATOM     30  C   UNL     1     -37.440  16.893  -0.002  0.00  0.00    +0.032 C 
BRANCH  25  31
ATOM     31  N   UNL     1     -32.500  17.230  -0.253  0.00  0.00    +0.387 N 
ATOM     32  C   UNL     1     -32.518  15.770  -0.338  0.00  0.00    -0.101 C 
ATOM     33  C   UNL     1     -32.271  17.660   1.125  0.00  0.00    -0.101 C 
ATOM     34  H   UNL     1     -31.734  17.577  -0.832  0.00  0.00    -0.080 HD
ENDBRANCH  25  31
BRANCH  26  35
ATOM     35  O   UNL     1     -32.933  20.041  -1.106  0.00  0.00    -0.381 OA
ATOM     36  H   UNL     1     -32.448  20.614  -0.492  0.00  0.00    +0.210 HD
ENDBRANCH  26  35
ENDBRANCH  23  27
ENDBRANCH   4  23
TORSDOF 6
ENDMDL
MODEL 8
REMARK VINA RESULT:      -6.0      4.877      9.552
REMARK  Name = 5282034
REMARK  6 active torsions:
REMARK  status: ('A' for Active; 'I' for Inactive)
REMARK    1  A    between atoms: C_4  and  O_23
REMARK    2  A    between atoms: C_12  and  C_21
REMARK    3  A    between atoms: C_13  and  O_19
REMARK    4  A    between atoms: O_23  and  C_27
REMARK    5  A    between atoms: C_25  and  N_31
REMARK    6  A    between atoms: C_26  and  O_35
REMARK                            x       y       z     vdW  Elec       q    Type
REMARK                         _______ _______ _______ _____ _____    ______ ____
ROOT
ATOM      1  O   UNL     1     -39.377  23.594   1.057  0.00  0.00    -0.449 OA
ATOM      2  O   UNL     1     -39.814  21.461   1.823  0.00  0.00    -0.250 OA
ATOM      3  O   UNL     1     -36.279  24.380   5.091  0.00  0.00    -0.291 OA
ATOM      4  C   UNL     1     -36.971  21.010   1.055  0.00  0.00    +0.128 C 
ATOM      5  C   UNL     1     -36.372  21.723   2.303  0.00  0.00    +0.028 C 
ATOM      6  C   UNL     1     -37.996  21.856   0.262  0.00  0.00    +0.126 C 
ATOM      7  C   UNL     1     -35.455  22.917   1.931  0.00  0.00    +0.010 C 
ATOM      8  C   UNL     1     -35.019  23.798   3.122  0.00  0.00    +0.062 C 
ATOM      9  C   UNL     1     -35.598  20.699   3.149  0.00  0.00    +0.003 C 
ATOM     10  C   UNL     1     -38.556  21.113  -0.954  0.00  0.00    +0.014 C 
ATOM     11  C   UNL     1     -39.170  22.249   1.143  0.00  0.00    +0.319 C 
ATOM     12  C   UNL     1     -40.353  24.196   1.941  0.00  0.00    +0.197 C 
ATOM     13  C   UNL     1     -39.717  25.459   2.583  0.00  0.00    +0.143 C 
ATOM     14  C   UNL     1     -34.053  24.892   2.669  0.00  0.00    +0.008 C 
ATOM     15  C   UNL     1     -36.196  24.431   3.865  0.00  0.00    +0.172 C 
ATOM     16  C   UNL     1     -38.526  25.005   3.412  0.00  0.00    +0.006 C 
ATOM     17  C   UNL     1     -37.240  25.111   3.051  0.00  0.00    +0.035 C 
ATOM     18  C   UNL     1     -39.377  26.540   1.547  0.00  0.00    +0.038 C 
ENDROOT
BRANCH  13  19
ATOM     19  O   UNL     1     -40.664  26.055   3.480  0.00  0.00    -0.379 OA
ATOM     20  H   UNL     1     -41.532  26.100   3.050  0.00  0.00    +0.211 HD
ENDBRANCH  13  19
BRANCH  12  21
ATOM     21  C   UNL     1     -41.615  24.472   1.126  0.00  0.00    +0.046 C 
ATOM     22  C   UNL     1     -41.389  24.205  -0.349  0.00  0.00    +0.004 C 
ENDBRANCH  12  21
BRANCH   4  23
ATOM     23  O   UNL     1     -35.898  20.622   0.196  0.00  0.00    -0.331 OA
BRANCH  23  27
ATOM     24  O   UNL     1     -33.969  19.372   0.600  0.00  0.00    -0.331 OA
ATOM     25  C   UNL     1     -35.247  16.954  -0.286  0.00  0.00    -0.023 C 
ATOM     26  C   UNL     1     -35.873  18.336  -0.513  0.00  0.00    +0.148 C 
ATOM     27  C   UNL     1     -35.394  19.334   0.547  0.00  0.00    +0.261 C 
ATOM     28  C   UNL     1     -33.730  17.074  -0.117  0.00  0.00    +0.011 C 
ATOM     29  C   UNL     1     -33.399  18.112   0.956  0.00  0.00    +0.116 C 
ATOM     30  C   UNL     1     -31.894  18.303   1.087  0.00  0.00    +0.032 C 
BRANCH  25  31
ATOM     31  N   UNL     1     -35.544  16.058  -1.405  0.00  0.00    +0.387 N 
ATOM     32  C   UNL     1     -35.134  14.691  -1.086  0.00  0.00    -0.101 C 
ATOM     33  C   UNL     1     -34.879  16.521  -2.622  0.00  0.00    -0.101 C 
ATOM     34  H   UNL     1     -36.552  16.063  -1.565  0.00  0.00    -0.080 HD
ENDBRANCH  25  31
BRANCH  26  35
ATOM     35  O   UNL     1     -37.293  18.247  -0.423  0.00  0.00    -0.381 OA
ATOM     36  H   UNL     1     -37.536  17.486   0.127  0.00  0.00    +0.210 HD
ENDBRANCH  26  35
ENDBRANCH  23  27
ENDBRANCH   4  23
TORSDOF 6
ENDMDL
MODEL 9
REMARK VINA RESULT:      -6.0      2.716      8.722
REMARK  Name = 5282034
REMARK  6 active torsions:
REMARK  status: ('A' for Active; 'I' for Inactive)
REMARK    1  A    between atoms: C_4  and  O_23
REMARK    2  A    between atoms: C_12  and  C_21
REMARK    3  A    between atoms: C_13  and  O_19
REMARK    4  A    between atoms: O_23  and  C_27
REMARK    5  A    between atoms: C_25  and  N_31
REMARK    6  A    between atoms: C_26  and  O_35
REMARK                            x       y       z     vdW  Elec       q    Type
REMARK                         _______ _______ _______ _____ _____    ______ ____
ROOT
ATOM      1  O   UNL     1     -34.562  29.631   0.915  0.00  0.00    -0.449 OA
ATOM      2  O   UNL     1     -36.503  28.812   1.860  0.00  0.00    -0.250 OA
ATOM      3  O   UNL     1     -32.569  30.261   5.618  0.00  0.00    -0.291 OA
ATOM      4  C   UNL     1     -34.743  26.513   2.561  0.00  0.00    +0.128 C 
ATOM      5  C   UNL     1     -34.040  27.230   3.751  0.00  0.00    +0.028 C 
ATOM      6  C   UNL     1     -34.712  27.299   1.228  0.00  0.00    +0.126 C 
ATOM      7  C   UNL     1     -32.503  27.327   3.570  0.00  0.00    +0.010 C 
ATOM      8  C   UNL     1     -31.783  28.224   4.601  0.00  0.00    +0.062 C 
ATOM      9  C   UNL     1     -34.379  26.494   5.058  0.00  0.00    +0.003 C 
ATOM     10  C   UNL     1     -35.415  26.554   0.090  0.00  0.00    +0.014 C 
ATOM     11  C   UNL     1     -35.388  28.651   1.381  0.00  0.00    +0.319 C 
ATOM     12  C   UNL     1     -34.956  31.011   1.112  0.00  0.00    +0.197 C 
ATOM     13  C   UNL     1     -33.734  31.791   1.671  0.00  0.00    +0.143 C 
ATOM     14  C   UNL     1     -30.269  28.188   4.395  0.00  0.00    +0.008 C 
ATOM     15  C   UNL     1     -32.268  29.674   4.580  0.00  0.00    +0.172 C 
ATOM     16  C   UNL     1     -33.380  31.189   3.022  0.00  0.00    +0.006 C 
ATOM     17  C   UNL     1     -32.363  30.350   3.258  0.00  0.00    +0.035 C 
ATOM     18  C   UNL     1     -32.560  31.835   0.683  0.00  0.00    +0.038 C 
ENDROOT
BRANCH  13  19
ATOM     19  O   UNL     1     -34.114  33.155   1.894  0.00  0.00    -0.379 OA
ATOM     20  H   UNL     1     -33.322  33.716   1.891  0.00  0.00    +0.211 HD
ENDBRANCH  13  19
BRANCH  12  21
ATOM     21  C   UNL     1     -35.486  31.541  -0.218  0.00  0.00    +0.046 C 
ATOM     22  C   UNL     1     -36.935  31.969  -0.104  0.00  0.00    +0.004 C 
ENDBRANCH  12  21
BRANCH   4  23
ATOM     23  O   UNL     1     -34.136  25.232   2.381  0.00  0.00    -0.331 OA
BRANCH  23  27
ATOM     24  O   UNL     1     -34.754  23.705   4.033  0.00  0.00    -0.331 OA
ATOM     25  C   UNL     1     -35.696  21.829   2.069  0.00  0.00    -0.023 C 
ATOM     26  C   UNL     1     -34.865  23.061   1.686  0.00  0.00    +0.148 C 
ATOM     27  C   UNL     1     -35.039  24.179   2.719  0.00  0.00    +0.261 C 
ATOM     28  C   UNL     1     -35.438  21.441   3.526  0.00  0.00    +0.011 C 
ATOM     29  C   UNL     1     -35.630  22.652   4.439  0.00  0.00    +0.116 C 
ATOM     30  C   UNL     1     -35.304  22.306   5.885  0.00  0.00    +0.032 C 
BRANCH  25  31
ATOM     31  N   UNL     1     -35.380  20.696   1.197  0.00  0.00    +0.387 N 
ATOM     32  C   UNL     1     -36.579  19.900   0.940  0.00  0.00    -0.101 C 
ATOM     33  C   UNL     1     -34.334  19.869   1.795  0.00  0.00    -0.101 C 
ATOM     34  H   UNL     1     -35.036  21.059   0.306  0.00  0.00    -0.080 HD
ENDBRANCH  25  31
BRANCH  26  35
ATOM     35  O   UNL     1     -35.292  23.561   0.420  0.00  0.00    -0.381 OA
ATOM     36  H   UNL     1     -34.906  24.438   0.271  0.00  0.00    +0.210 HD
ENDBRANCH  26  35
ENDBRANCH  23  27
ENDBRANCH   4  23
TORSDOF 6
ENDMDL
