MODEL 1
REMARK VINA RESULT:      -5.8      0.000      0.000
REMARK  Name = 196676
REMARK  6 active torsions:
REMARK  status: ('A' for Active; 'I' for Inactive)
REMARK    1  A    between atoms: C_2  and  O_16
REMARK    2  A    between atoms: C_4  and  C_20
REMARK    3  A    between atoms: C_5  and  N_8
REMARK    4  A    between atoms: O_16  and  C_18
REMARK    5  A    between atoms: C_20  and  O_21
REMARK    6  A    between atoms: O_21  and  O_22
REMARK                            x       y       z     vdW  Elec       q    Type
REMARK                         _______ _______ _______ _____ _____    ______ ____
ROOT
ATOM      1  O   UNL     1     -34.991  25.448   3.250  0.00  0.00    -0.333 OA
ATOM      2  C   UNL     1     -35.568  24.571   5.376  0.00  0.00    +0.203 C 
ATOM      3  C   UNL     1     -34.746  25.822   5.588  0.00  0.00    +0.098 C 
ATOM      4  C   UNL     1     -36.017  24.696   3.927  0.00  0.00    +0.190 C 
ATOM      5  C   UNL     1     -34.116  26.037   4.222  0.00  0.00    +0.203 C 
ENDROOT
BRANCH   5   8
ATOM      6  O   UNL     1     -31.955  27.648   5.141  0.00  0.00    -0.252 OA
ATOM      7  O   UNL     1     -33.546  31.347   2.922  0.00  0.00    -0.270 OA
ATOM      8  N   UNL     1     -33.926  27.425   3.910  0.00  0.00    -0.219 N 
ATOM      9  N   UNL     1     -32.760  29.485   4.030  0.00  0.00    -0.236 N 
ATOM     10  C   UNL     1     -34.859  28.054   3.096  0.00  0.00    +0.071 C 
ATOM     11  C   UNL     1     -32.820  28.142   4.414  0.00  0.00    +0.315 C 
ATOM     12  C   UNL     1     -34.798  29.341   2.730  0.00  0.00    +0.047 C 
ATOM     13  C   UNL     1     -33.661  30.163   3.221  0.00  0.00    +0.250 C 
ATOM     14  C   UNL     1     -35.814  29.998   1.852  0.00  0.00    +0.037 C 
ATOM     15  H   UNL     1     -31.997  30.006   4.369  0.00  0.00    +0.159 HD
ENDBRANCH   5   8
BRANCH   2  16
ATOM     16  O   UNL     1     -34.739  23.421   5.529  0.00  0.00    -0.449 OA
BRANCH  16  18
ATOM     17  O   UNL     1     -36.112  21.995   6.720  0.00  0.00    -0.250 OA
ATOM     18  C   UNL     1     -35.389  22.236   5.763  0.00  0.00    +0.318 C 
ATOM     19  C   UNL     1     -35.091  21.257   4.669  0.00  0.00    +0.121 C 
ENDBRANCH  16  18
ENDBRANCH   2  16
BRANCH   4  20
ATOM     20  C   UNL     1     -37.330  25.454   3.777  0.00  0.00    +0.215 C 
BRANCH  20  21
ATOM     21  O   UNL     1     -38.403  24.528   3.837  0.00  0.00    -0.218 OA
BRANCH  21  22
ATOM     22  O   UNL     1     -37.884  23.296   3.255  0.00  0.00    -0.217 OA
ATOM     23  C   UNL     1     -38.854  22.894   2.298  0.00  0.00    +0.217 C 
ENDBRANCH  21  22
ENDBRANCH  20  21
ENDBRANCH   4  20
TORSDOF 6
ENDMDL
MODEL 2
REMARK VINA RESULT:      -5.8      2.565      6.007
REMARK  Name = 196676
REMARK  6 active torsions:
REMARK  status: ('A' for Active; 'I' for Inactive)
REMARK    1  A    between atoms: C_2  and  O_16
REMARK    2  A    between atoms: C_4  and  C_20
REMARK    3  A    between atoms: C_5  and  N_8
REMARK    4  A    between atoms: O_16  and  C_18
REMARK    5  A    between atoms: C_20  and  O_21
REMARK    6  A    between atoms: O_21  and  O_22
REMARK                            x       y       z     vdW  Elec       q    Type
REMARK                         _______ _______ _______ _____ _____    ______ ____
ROOT
ATOM      1  O   UNL     1     -35.864  25.764   4.355  0.00  0.00    -0.333 OA
ATOM      2  C   UNL     1     -33.917  26.999   3.798  0.00  0.00    +0.203 C 
ATOM      3  C   UNL     1     -33.580  25.527   3.729  0.00  0.00    +0.098 C 
ATOM      4  C   UNL     1     -35.439  27.005   3.756  0.00  0.00    +0.190 C 
ATOM      5  C   UNL     1     -34.736  24.888   4.482  0.00  0.00    +0.203 C 
ENDROOT
BRANCH   5   8
ATOM      6  O   UNL     1     -35.813  22.751   6.023  0.00  0.00    -0.252 OA
ATOM      7  O   UNL     1     -36.008  19.981   2.357  0.00  0.00    -0.270 OA
ATOM      8  N   UNL     1     -35.081  23.593   3.972  0.00  0.00    -0.219 N 
ATOM      9  N   UNL     1     -35.904  21.380   4.187  0.00  0.00    -0.236 N 
ATOM     10  C   UNL     1     -34.884  23.338   2.621  0.00  0.00    +0.071 C 
ATOM     11  C   UNL     1     -35.612  22.594   4.817  0.00  0.00    +0.315 C 
ATOM     12  C   UNL     1     -35.165  22.174   2.022  0.00  0.00    +0.047 C 
ATOM     13  C   UNL     1     -35.728  21.072   2.846  0.00  0.00    +0.250 C 
ATOM     14  C   UNL     1     -34.944  21.921   0.565  0.00  0.00    +0.037 C 
ATOM     15  H   UNL     1     -36.276  20.667   4.756  0.00  0.00    +0.159 HD
ENDBRANCH   5   8
BRANCH   2  16
ATOM     16  O   UNL     1     -33.464  27.537   5.038  0.00  0.00    -0.449 OA
BRANCH  16  18
ATOM     17  O   UNL     1     -31.260  27.813   5.673  0.00  0.00    -0.250 OA
ATOM     18  C   UNL     1     -32.236  28.149   5.018  0.00  0.00    +0.318 C 
ATOM     19  C   UNL     1     -32.250  29.305   4.064  0.00  0.00    +0.121 C 
ENDBRANCH  16  18
ENDBRANCH   2  16
BRANCH   4  20
ATOM     20  C   UNL     1     -35.992  27.054   2.338  0.00  0.00    +0.215 C 
BRANCH  20  21
ATOM     21  O   UNL     1     -37.029  26.093   2.217  0.00  0.00    -0.218 OA
BRANCH  21  22
ATOM     22  O   UNL     1     -38.256  26.866   2.056  0.00  0.00    -0.217 OA
ATOM     23  C   UNL     1     -39.307  25.984   2.425  0.00  0.00    +0.217 C 
ENDBRANCH  21  22
ENDBRANCH  20  21
ENDBRANCH   4  20
TORSDOF 6
ENDMDL
MODEL 3
REMARK VINA RESULT:      -5.6      4.267      7.668
REMARK  Name = 196676
REMARK  6 active torsions:
REMARK  status: ('A' for Active; 'I' for Inactive)
REMARK    1  A    between atoms: C_2  and  O_16
REMARK    2  A    between atoms: C_4  and  C_20
REMARK    3  A    between atoms: C_5  and  N_8
REMARK    4  A    between atoms: O_16  and  C_18
REMARK    5  A    between atoms: C_20  and  O_21
REMARK    6  A    between atoms: O_21  and  O_22
REMARK                            x       y       z     vdW  Elec       q    Type
REMARK                         _______ _______ _______ _____ _____    ______ ____
ROOT
ATOM      1  O   UNL     1     -40.061  24.382   0.925  0.00  0.00    -0.333 OA
ATOM      2  C   UNL     1     -40.424  26.122   2.494  0.00  0.00    +0.203 C 
ATOM      3  C   UNL     1     -39.810  24.949   3.223  0.00  0.00    +0.098 C 
ATOM      4  C   UNL     1     -40.119  25.818   1.034  0.00  0.00    +0.190 C 
ATOM      5  C   UNL     1     -40.009  23.808   2.239  0.00  0.00    +0.203 C 
ENDROOT
BRANCH   5   8
ATOM      6  O   UNL     1     -40.270  21.057   1.553  0.00  0.00    -0.252 OA
ATOM      7  O   UNL     1     -35.848  20.227   2.499  0.00  0.00    -0.270 OA
ATOM      8  N   UNL     1     -38.954  22.838   2.291  0.00  0.00    -0.219 N 
ATOM      9  N   UNL     1     -38.063  20.657   2.029  0.00  0.00    -0.236 N 
ATOM     10  C   UNL     1     -37.695  23.251   2.707  0.00  0.00    +0.071 C 
ATOM     11  C   UNL     1     -39.180  21.492   1.930  0.00  0.00    +0.315 C 
ATOM     12  C   UNL     1     -36.627  22.448   2.800  0.00  0.00    +0.047 C 
ATOM     13  C   UNL     1     -36.786  21.015   2.436  0.00  0.00    +0.250 C 
ATOM     14  C   UNL     1     -35.280  22.914   3.250  0.00  0.00    +0.037 C 
ATOM     15  H   UNL     1     -38.196  19.713   1.782  0.00  0.00    +0.159 HD
ENDBRANCH   5   8
BRANCH   2  16
ATOM     16  O   UNL     1     -41.835  26.131   2.704  0.00  0.00    -0.449 OA
BRANCH  16  18
ATOM     17  O   UNL     1     -41.633  27.898   4.178  0.00  0.00    -0.250 OA
ATOM     18  C   UNL     1     -42.305  27.050   3.607  0.00  0.00    +0.318 C 
ATOM     19  C   UNL     1     -43.780  26.877   3.803  0.00  0.00    +0.121 C 
ENDBRANCH  16  18
ENDBRANCH   2  16
BRANCH   4  20
ATOM     20  C   UNL     1     -38.777  26.377   0.580  0.00  0.00    +0.215 C 
BRANCH  20  21
ATOM     21  O   UNL     1     -38.453  27.499   1.385  0.00  0.00    -0.218 OA
BRANCH  21  22
ATOM     22  O   UNL     1     -36.999  27.607   1.332  0.00  0.00    -0.217 OA
ATOM     23  C   UNL     1     -36.519  26.706   2.319  0.00  0.00    +0.217 C 
ENDBRANCH  21  22
ENDBRANCH  20  21
ENDBRANCH   4  20
TORSDOF 6
ENDMDL
MODEL 4
REMARK VINA RESULT:      -5.5      3.361      6.778
REMARK  Name = 196676
REMARK  6 active torsions:
REMARK  status: ('A' for Active; 'I' for Inactive)
REMARK    1  A    between atoms: C_2  and  O_16
REMARK    2  A    between atoms: C_4  and  C_20
REMARK    3  A    between atoms: C_5  and  N_8
REMARK    4  A    between atoms: O_16  and  C_18
REMARK    5  A    between atoms: C_20  and  O_21
REMARK    6  A    between atoms: O_21  and  O_22
REMARK                            x       y       z     vdW  Elec       q    Type
REMARK                         _______ _______ _______ _____ _____    ______ ____
ROOT
ATOM      1  O   UNL     1     -34.878  23.768   3.540  0.00  0.00    -0.333 OA
ATOM      2  C   UNL     1     -34.249  25.643   2.231  0.00  0.00    +0.203 C 
ATOM      3  C   UNL     1     -35.256  24.835   1.446  0.00  0.00    +0.098 C 
ATOM      4  C   UNL     1     -34.435  25.134   3.654  0.00  0.00    +0.190 C 
ATOM      5  C   UNL     1     -35.258  23.505   2.182  0.00  0.00    +0.203 C 
ENDROOT
BRANCH   5   8
ATOM      6  O   UNL     1     -35.692  20.699   2.395  0.00  0.00    -0.252 OA
ATOM      7  O   UNL     1     -40.252  21.211   2.098  0.00  0.00    -0.270 OA
ATOM      8  N   UNL     1     -36.540  22.862   2.164  0.00  0.00    -0.219 N 
ATOM      9  N   UNL     1     -37.964  20.968   2.245  0.00  0.00    -0.236 N 
ATOM     10  C   UNL     1     -37.675  23.651   2.034  0.00  0.00    +0.071 C 
ATOM     11  C   UNL     1     -36.655  21.460   2.277  0.00  0.00    +0.315 C 
ATOM     12  C   UNL     1     -38.927  23.178   2.004  0.00  0.00    +0.047 C 
ATOM     13  C   UNL     1     -39.130  21.709   2.118  0.00  0.00    +0.250 C 
ATOM     14  C   UNL     1     -40.136  24.046   1.863  0.00  0.00    +0.037 C 
ATOM     15  H   UNL     1     -38.070  19.992   2.322  0.00  0.00    +0.159 HD
ENDBRANCH   5   8
BRANCH   2  16
ATOM     16  O   UNL     1     -32.932  25.341   1.776  0.00  0.00    -0.449 OA
BRANCH  16  18
ATOM     17  O   UNL     1     -30.868  25.944   2.620  0.00  0.00    -0.250 OA
ATOM     18  C   UNL     1     -31.951  26.232   2.131  0.00  0.00    +0.318 C 
ATOM     19  C   UNL     1     -32.391  27.632   1.831  0.00  0.00    +0.121 C 
ENDBRANCH  16  18
ENDBRANCH   2  16
BRANCH   4  20
ATOM     20  C   UNL     1     -35.496  25.908   4.426  0.00  0.00    +0.215 C 
BRANCH  20  21
ATOM     21  O   UNL     1     -34.955  26.303   5.677  0.00  0.00    -0.218 OA
BRANCH  21  22
ATOM     22  O   UNL     1     -33.714  27.000   5.359  0.00  0.00    -0.217 OA
ATOM     23  C   UNL     1     -32.958  26.988   6.562  0.00  0.00    +0.217 C 
ENDBRANCH  21  22
ENDBRANCH  20  21
ENDBRANCH   4  20
TORSDOF 6
ENDMDL
MODEL 5
REMARK VINA RESULT:      -5.4      2.431      4.374
REMARK  Name = 196676
REMARK  6 active torsions:
REMARK  status: ('A' for Active; 'I' for Inactive)
REMARK    1  A    between atoms: C_2  and  O_16
REMARK    2  A    between atoms: C_4  and  C_20
REMARK    3  A    between atoms: C_5  and  N_8
REMARK    4  A    between atoms: O_16  and  C_18
REMARK    5  A    between atoms: C_20  and  O_21
REMARK    6  A    between atoms: O_21  and  O_22
REMARK                            x       y       z     vdW  Elec       q    Type
REMARK                         _______ _______ _______ _____ _____    ______ ____
ROOT
ATOM      1  O   UNL     1     -36.455  23.291   4.247  0.00  0.00    -0.333 OA
ATOM      2  C   UNL     1     -37.543  22.941   2.170  0.00  0.00    +0.203 C 
ATOM      3  C   UNL     1     -36.914  24.316   2.148  0.00  0.00    +0.098 C 
ATOM      4  C   UNL     1     -36.823  22.251   3.320  0.00  0.00    +0.190 C 
ATOM      5  C   UNL     1     -36.626  24.569   3.619  0.00  0.00    +0.203 C 
ENDROOT
BRANCH   5   8
ATOM      6  O   UNL     1     -36.153  26.258   5.862  0.00  0.00    -0.252 OA
ATOM      7  O   UNL     1     -32.041  27.535   4.248  0.00  0.00    -0.270 OA
ATOM      8  N   UNL     1     -35.448  25.361   3.826  0.00  0.00    -0.219 N 
ATOM      9  N   UNL     1     -34.105  26.887   5.046  0.00  0.00    -0.236 N 
ATOM     10  C   UNL     1     -34.443  25.316   2.868  0.00  0.00    +0.071 C 
ATOM     11  C   UNL     1     -35.303  26.170   4.973  0.00  0.00    +0.315 C 
ATOM     12  C   UNL     1     -33.296  26.004   2.940  0.00  0.00    +0.047 C 
ATOM     13  C   UNL     1     -33.070  26.878   4.121  0.00  0.00    +0.250 C 
ATOM     14  C   UNL     1     -32.228  25.940   1.897  0.00  0.00    +0.037 C 
ATOM     15  H   UNL     1     -33.981  27.458   5.838  0.00  0.00    +0.159 HD
ENDBRANCH   5   8
BRANCH   2  16
ATOM     16  O   UNL     1     -38.934  23.056   2.467  0.00  0.00    -0.449 OA
BRANCH  16  18
ATOM     17  O   UNL     1     -40.227  21.181   2.078  0.00  0.00    -0.250 OA
ATOM     18  C   UNL     1     -39.775  22.263   1.729  0.00  0.00    +0.318 C 
ATOM     19  C   UNL     1     -40.077  22.912   0.412  0.00  0.00    +0.121 C 
ENDBRANCH  16  18
ENDBRANCH   2  16
BRANCH   4  20
ATOM     20  C   UNL     1     -35.549  21.542   2.881  0.00  0.00    +0.215 C 
BRANCH  20  21
ATOM     21  O   UNL     1     -35.823  20.158   2.733  0.00  0.00    -0.218 OA
BRANCH  21  22
ATOM     22  O   UNL     1     -35.430  19.830   1.367  0.00  0.00    -0.217 OA
ATOM     23  C   UNL     1     -36.644  19.551   0.684  0.00  0.00    +0.217 C 
ENDBRANCH  21  22
ENDBRANCH  20  21
ENDBRANCH   4  20
TORSDOF 6
ENDMDL
MODEL 6
REMARK VINA RESULT:      -5.3      3.373      5.624
REMARK  Name = 196676
REMARK  6 active torsions:
REMARK  status: ('A' for Active; 'I' for Inactive)
REMARK    1  A    between atoms: C_2  and  O_16
REMARK    2  A    between atoms: C_4  and  C_20
REMARK    3  A    between atoms: C_5  and  N_8
REMARK    4  A    between atoms: O_16  and  C_18
REMARK    5  A    between atoms: C_20  and  O_21
REMARK    6  A    between atoms: O_21  and  O_22
REMARK                            x       y       z     vdW  Elec       q    Type
REMARK                         _______ _______ _______ _____ _____    ______ ____
ROOT
ATOM      1  O   UNL     1     -37.210  22.824   3.869  0.00  0.00    -0.333 OA
ATOM      2  C   UNL     1     -35.354  21.823   2.784  0.00  0.00    +0.203 C 
ATOM      3  C   UNL     1     -36.187  22.529   1.739  0.00  0.00    +0.098 C 
ATOM      4  C   UNL     1     -35.837  22.444   4.087  0.00  0.00    +0.190 C 
ATOM      5  C   UNL     1     -37.503  22.757   2.466  0.00  0.00    +0.203 C 
ENDROOT
BRANCH   5   8
ATOM      6  O   UNL     1     -40.298  23.034   2.002  0.00  0.00    -0.252 OA
ATOM      7  O   UNL     1     -39.850  27.479   0.916  0.00  0.00    -0.270 OA
ATOM      8  N   UNL     1     -38.159  23.966   2.060  0.00  0.00    -0.219 N 
ATOM      9  N   UNL     1     -40.060  25.249   1.462  0.00  0.00    -0.236 N 
ATOM     10  C   UNL     1     -37.389  25.107   1.873  0.00  0.00    +0.071 C 
ATOM     11  C   UNL     1     -39.555  24.006   1.854  0.00  0.00    +0.315 C 
ATOM     12  C   UNL     1     -37.876  26.296   1.497  0.00  0.00    +0.047 C 
ATOM     13  C   UNL     1     -39.339  26.418   1.261  0.00  0.00    +0.250 C 
ATOM     14  C   UNL     1     -37.029  27.512   1.302  0.00  0.00    +0.037 C 
ATOM     15  H   UNL     1     -41.032  25.302   1.312  0.00  0.00    +0.159 HD
ENDBRANCH   5   8
BRANCH   2  16
ATOM     16  O   UNL     1     -35.652  20.428   2.772  0.00  0.00    -0.449 OA
BRANCH  16  18
ATOM     17  O   UNL     1     -36.240  19.414   0.781  0.00  0.00    -0.250 OA
ATOM     18  C   UNL     1     -35.399  19.767   1.596  0.00  0.00    +0.318 C 
ATOM     19  C   UNL     1     -33.928  19.534   1.439  0.00  0.00    +0.121 C 
ENDBRANCH  16  18
ENDBRANCH   2  16
BRANCH   4  20
ATOM     20  C   UNL     1     -35.060  23.696   4.470  0.00  0.00    +0.215 C 
BRANCH  20  21
ATOM     21  O   UNL     1     -35.580  24.203   5.690  0.00  0.00    -0.218 OA
BRANCH  21  22
ATOM     22  O   UNL     1     -35.592  25.653   5.533  0.00  0.00    -0.217 OA
ATOM     23  C   UNL     1     -34.243  26.061   5.708  0.00  0.00    +0.217 C 
ENDBRANCH  21  22
ENDBRANCH  20  21
ENDBRANCH   4  20
TORSDOF 6
ENDMDL
MODEL 7
REMARK VINA RESULT:      -5.2      2.696      6.822
REMARK  Name = 196676
REMARK  6 active torsions:
REMARK  status: ('A' for Active; 'I' for Inactive)
REMARK    1  A    between atoms: C_2  and  O_16
REMARK    2  A    between atoms: C_4  and  C_20
REMARK    3  A    between atoms: C_5  and  N_8
REMARK    4  A    between atoms: O_16  and  C_18
REMARK    5  A    between atoms: C_20  and  O_21
REMARK    6  A    between atoms: O_21  and  O_22
REMARK                            x       y       z     vdW  Elec       q    Type
REMARK                         _______ _______ _______ _____ _____    ______ ____
ROOT
ATOM      1  O   UNL     1     -33.677  26.172   1.871  0.00  0.00    -0.333 OA
ATOM      2  C   UNL     1     -34.912  28.012   2.715  0.00  0.00    +0.203 C 
ATOM      3  C   UNL     1     -35.766  26.771   2.843  0.00  0.00    +0.098 C 
ATOM      4  C   UNL     1     -33.512  27.448   2.522  0.00  0.00    +0.190 C 
ATOM      5  C   UNL     1     -35.058  25.788   1.925  0.00  0.00    +0.203 C 
ENDROOT
BRANCH   5   8
ATOM      6  O   UNL     1     -35.228  23.496   0.244  0.00  0.00    -0.252 OA
ATOM      7  O   UNL     1     -35.425  20.655   3.854  0.00  0.00    -0.270 OA
ATOM      8  N   UNL     1     -35.156  24.432   2.382  0.00  0.00    -0.219 N 
ATOM      9  N   UNL     1     -35.327  22.090   2.053  0.00  0.00    -0.236 N 
ATOM     10  C   UNL     1     -35.171  24.193   3.750  0.00  0.00    +0.071 C 
ATOM     11  C   UNL     1     -35.236  23.358   1.469  0.00  0.00    +0.315 C 
ATOM     12  C   UNL     1     -35.258  22.978   4.306  0.00  0.00    +0.047 C 
ATOM     13  C   UNL     1     -35.344  21.795   3.409  0.00  0.00    +0.250 C 
ATOM     14  C   UNL     1     -35.272  22.744   5.782  0.00  0.00    +0.037 C 
ATOM     15  H   UNL     1     -35.383  21.325   1.436  0.00  0.00    +0.159 HD
ENDBRANCH   5   8
BRANCH   2  16
ATOM     16  O   UNL     1     -35.304  28.746   1.557  0.00  0.00    -0.449 OA
BRANCH  16  18
ATOM     17  O   UNL     1     -37.019  30.256   1.218  0.00  0.00    -0.250 OA
ATOM     18  C   UNL     1     -35.992  29.911   1.785  0.00  0.00    +0.318 C 
ATOM     19  C   UNL     1     -35.305  30.719   2.843  0.00  0.00    +0.121 C 
ENDBRANCH  16  18
ENDBRANCH   2  16
BRANCH   4  20
ATOM     20  C   UNL     1     -32.781  27.211   3.837  0.00  0.00    +0.215 C 
BRANCH  20  21
ATOM     21  O   UNL     1     -33.215  28.178   4.782  0.00  0.00    -0.218 OA
BRANCH  21  22
ATOM     22  O   UNL     1     -32.888  27.616   6.088  0.00  0.00    -0.217 OA
ATOM     23  C   UNL     1     -33.653  26.423   6.186  0.00  0.00    +0.217 C 
ENDBRANCH  21  22
ENDBRANCH  20  21
ENDBRANCH   4  20
TORSDOF 6
ENDMDL
MODEL 8
REMARK VINA RESULT:      -5.2      3.114      6.427
REMARK  Name = 196676
REMARK  6 active torsions:
REMARK  status: ('A' for Active; 'I' for Inactive)
REMARK    1  A    between atoms: C_2  and  O_16
REMARK    2  A    between atoms: C_4  and  C_20
REMARK    3  A    between atoms: C_5  and  N_8
REMARK    4  A    between atoms: O_16  and  C_18
REMARK    5  A    between atoms: C_20  and  O_21
REMARK    6  A    between atoms: O_21  and  O_22
REMARK                            x       y       z     vdW  Elec       q    Type
REMARK                         _______ _______ _______ _____ _____    ______ ____
ROOT
ATOM      1  O   UNL     1     -37.105  23.875   4.097  0.00  0.00    -0.333 OA
ATOM      2  C   UNL     1     -35.427  25.507   3.721  0.00  0.00    +0.203 C 
ATOM      3  C   UNL     1     -35.030  24.245   2.991  0.00  0.00    +0.098 C 
ATOM      4  C   UNL     1     -36.911  25.299   3.988  0.00  0.00    +0.190 C 
ATOM      5  C   UNL     1     -35.930  23.199   3.628  0.00  0.00    +0.203 C 
ENDROOT
BRANCH   5   8
ATOM      6  O   UNL     1     -35.123  20.474   3.801  0.00  0.00    -0.252 OA
ATOM      7  O   UNL     1     -37.500  19.356   0.026  0.00  0.00    -0.270 OA
ATOM      8  N   UNL     1     -36.313  22.163   2.714  0.00  0.00    -0.219 N 
ATOM      9  N   UNL     1     -36.312  19.930   1.917  0.00  0.00    -0.236 N 
ATOM     10  C   UNL     1     -37.144  22.492   1.650  0.00  0.00    +0.071 C 
ATOM     11  C   UNL     1     -35.861  20.836   2.882  0.00  0.00    +0.315 C 
ATOM     12  C   UNL     1     -37.574  21.621   0.728  0.00  0.00    +0.047 C 
ATOM     13  C   UNL     1     -37.141  20.203   0.838  0.00  0.00    +0.250 C 
ATOM     14  C   UNL     1     -38.469  21.997  -0.409  0.00  0.00    +0.037 C 
ATOM     15  H   UNL     1     -36.010  18.997   2.014  0.00  0.00    +0.159 HD
ENDBRANCH   5   8
BRANCH   2  16
ATOM     16  O   UNL     1     -34.718  25.589   4.956  0.00  0.00    -0.449 OA
BRANCH  16  18
ATOM     17  O   UNL     1     -32.890  26.634   5.907  0.00  0.00    -0.250 OA
ATOM     18  C   UNL     1     -33.732  26.540   5.024  0.00  0.00    +0.318 C 
ATOM     19  C   UNL     1     -33.823  27.465   3.849  0.00  0.00    +0.121 C 
ENDBRANCH  16  18
ENDBRANCH   2  16
BRANCH   4  20
ATOM     20  C   UNL     1     -37.793  25.806   2.854  0.00  0.00    +0.215 C 
BRANCH  20  21
ATOM     21  O   UNL     1     -39.111  25.316   3.045  0.00  0.00    -0.218 OA
BRANCH  21  22
ATOM     22  O   UNL     1     -39.970  26.494   3.022  0.00  0.00    -0.217 OA
ATOM     23  C   UNL     1     -41.073  26.140   2.201  0.00  0.00    +0.217 C 
ENDBRANCH  21  22
ENDBRANCH  20  21
ENDBRANCH   4  20
TORSDOF 6
ENDMDL
MODEL 9
REMARK VINA RESULT:      -5.2      2.519      6.465
REMARK  Name = 196676
REMARK  6 active torsions:
REMARK  status: ('A' for Active; 'I' for Inactive)
REMARK    1  A    between atoms: C_2  and  O_16
REMARK    2  A    between atoms: C_4  and  C_20
REMARK    3  A    between atoms: C_5  and  N_8
REMARK    4  A    between atoms: O_16  and  C_18
REMARK    5  A    between atoms: C_20  and  O_21
REMARK    6  A    between atoms: O_21  and  O_22
REMARK                            x       y       z     vdW  Elec       q    Type
REMARK                         _______ _______ _______ _____ _____    ______ ____
ROOT
ATOM      1  O   UNL     1     -35.539  26.069   4.442  0.00  0.00    -0.333 OA
ATOM      2  C   UNL     1     -33.443  27.071   3.966  0.00  0.00    +0.203 C 
ATOM      3  C   UNL     1     -33.291  25.572   3.839  0.00  0.00    +0.098 C 
ATOM      4  C   UNL     1     -34.951  27.270   3.903  0.00  0.00    +0.190 C 
ATOM      5  C   UNL     1     -34.532  25.053   4.547  0.00  0.00    +0.203 C 
ENDROOT
BRANCH   5   8
ATOM      6  O   UNL     1     -35.885  23.000   5.981  0.00  0.00    -0.252 OA
ATOM      7  O   UNL     1     -36.365  20.437   2.194  0.00  0.00    -0.270 OA
ATOM      8  N   UNL     1     -35.026  23.834   3.977  0.00  0.00    -0.219 N 
ATOM      9  N   UNL     1     -36.117  21.732   4.085  0.00  0.00    -0.236 N 
ATOM     10  C   UNL     1     -34.842  23.615   2.618  0.00  0.00    +0.071 C 
ATOM     11  C   UNL     1     -35.687  22.872   4.771  0.00  0.00    +0.315 C 
ATOM     12  C   UNL     1     -35.255  22.521   1.964  0.00  0.00    +0.047 C 
ATOM     13  C   UNL     1     -35.961  21.462   2.733  0.00  0.00    +0.250 C 
ATOM     14  C   UNL     1     -35.046  22.306   0.500  0.00  0.00    +0.037 C 
ATOM     15  H   UNL     1     -36.582  21.046   4.618  0.00  0.00    +0.159 HD
ENDBRANCH   5   8
BRANCH   2  16
ATOM     16  O   UNL     1     -32.950  27.497   5.235  0.00  0.00    -0.449 OA
BRANCH  16  18
ATOM     17  O   UNL     1     -31.699  29.156   4.226  0.00  0.00    -0.250 OA
ATOM     18  C   UNL     1     -32.120  28.589   5.224  0.00  0.00    +0.318 C 
ATOM     19  C   UNL     1     -31.794  29.006   6.626  0.00  0.00    +0.121 C 
ENDBRANCH  16  18
ENDBRANCH   2  16
BRANCH   4  20
ATOM     20  C   UNL     1     -35.466  27.446   2.481  0.00  0.00    +0.215 C 
BRANCH  20  21
ATOM     21  O   UNL     1     -35.013  28.695   1.981  0.00  0.00    -0.218 OA
BRANCH  21  22
ATOM     22  O   UNL     1     -35.225  29.646   3.067  0.00  0.00    -0.217 OA
ATOM     23  C   UNL     1     -34.474  30.798   2.709  0.00  0.00    +0.217 C 
ENDBRANCH  21  22
ENDBRANCH  20  21
ENDBRANCH   4  20
TORSDOF 6
ENDMDL
