MODEL 1
REMARK VINA RESULT:      -6.2      0.000      0.000
REMARK  Name = 190886
REMARK  5 active torsions:
REMARK  status: ('A' for Active; 'I' for Inactive)
REMARK    1  A    between atoms: C_6  and  O_14
REMARK    2  A    between atoms: C_10  and  O_16
REMARK    3  A    between atoms: C_11  and  O_18
REMARK    4  A    between atoms: C_12  and  C_21
REMARK    5  A    between atoms: C_21  and  O_22
REMARK                            x       y       z     vdW  Elec       q    Type
REMARK                         _______ _______ _______ _____ _____    ______ ____
ROOT
ATOM      1  O   UNL     1     -35.715  20.295   3.011  0.00  0.00    -0.329 OA
ATOM      2  C   UNL     1     -36.766  21.883   1.506  0.00  0.00    +0.049 C 
ATOM      3  C   UNL     1     -35.769  20.719   1.648  0.00  0.00    +0.122 C 
ATOM      4  C   UNL     1     -36.459  22.975   2.507  0.00  0.00    -0.018 A 
ATOM      5  C   UNL     1     -35.750  22.673   3.683  0.00  0.00    +0.063 A 
ATOM      6  C   UNL     1     -35.228  21.275   3.933  0.00  0.00    +0.259 C 
ATOM      7  C   UNL     1     -36.899  24.287   2.277  0.00  0.00    +0.008 A 
ATOM      8  C   UNL     1     -38.205  21.393   1.718  0.00  0.00    +0.007 C 
ATOM      9  C   UNL     1     -34.380  21.022   1.083  0.00  0.00    +0.032 C 
ATOM     10  C   UNL     1     -35.470  23.703   4.595  0.00  0.00    +0.143 A 
ATOM     11  C   UNL     1     -36.626  25.297   3.199  0.00  0.00    +0.138 A 
ATOM     12  C   UNL     1     -35.909  25.006   4.356  0.00  0.00    +0.142 A 
ATOM     13  C   UNL     1     -37.584  24.707   1.018  0.00  0.00    +0.034 C 
ENDROOT
BRANCH   6  14
ATOM     14  O   UNL     1     -35.595  20.885   5.256  0.00  0.00    -0.357 OA
ATOM     15  H   UNL     1     -36.504  20.546   5.252  0.00  0.00    +0.213 HD
ENDBRANCH   6  14
BRANCH  10  16
ATOM     16  O   UNL     1     -34.754  23.437   5.729  0.00  0.00    -0.505 OA
ATOM     17  H   UNL     1     -34.172  22.704   5.754  0.00  0.00    +0.292 HD
ENDBRANCH  10  16
BRANCH  11  18
ATOM     18  O   UNL     1     -37.043  26.574   2.964  0.00  0.00    -0.506 OA
ATOM     19  H   UNL     1     -36.422  27.277   2.961  0.00  0.00    +0.292 HD
ENDBRANCH  11  18
BRANCH  12  21
ATOM     20  O   UNL     1     -34.484  26.335   5.745  0.00  0.00    -0.245 OA
ATOM     21  C   UNL     1     -35.607  26.065   5.313  0.00  0.00    +0.344 C 
BRANCH  21  22
ATOM     22  O   UNL     1     -36.718  26.749   5.694  0.00  0.00    -0.477 OA
ATOM     23  H   UNL     1     -37.419  26.302   6.126  0.00  0.00    +0.295 HD
ENDBRANCH  21  22
ENDBRANCH  12  21
TORSDOF 5
ENDMDL
MODEL 2
REMARK VINA RESULT:      -6.1      2.274      5.444
REMARK  Name = 190886
REMARK  5 active torsions:
REMARK  status: ('A' for Active; 'I' for Inactive)
REMARK    1  A    between atoms: C_6  and  O_14
REMARK    2  A    between atoms: C_10  and  O_16
REMARK    3  A    between atoms: C_11  and  O_18
REMARK    4  A    between atoms: C_12  and  C_21
REMARK    5  A    between atoms: C_21  and  O_22
REMARK                            x       y       z     vdW  Elec       q    Type
REMARK                         _______ _______ _______ _____ _____    ______ ____
ROOT
ATOM      1  O   UNL     1     -36.510  25.233   4.473  0.00  0.00    -0.329 OA
ATOM      2  C   UNL     1     -35.113  23.272   4.166  0.00  0.00    +0.049 C 
ATOM      3  C   UNL     1     -35.183  24.809   4.153  0.00  0.00    +0.122 C 
ATOM      4  C   UNL     1     -36.202  22.679   3.300  0.00  0.00    -0.018 A 
ATOM      5  C   UNL     1     -37.365  23.420   3.026  0.00  0.00    +0.063 A 
ATOM      6  C   UNL     1     -37.516  24.838   3.535  0.00  0.00    +0.259 C 
ATOM      7  C   UNL     1     -36.067  21.381   2.784  0.00  0.00    +0.008 A 
ATOM      8  C   UNL     1     -35.255  22.734   5.596  0.00  0.00    +0.007 C 
ATOM      9  C   UNL     1     -34.672  25.441   2.857  0.00  0.00    +0.032 C 
ATOM     10  C   UNL     1     -38.361  22.854   2.215  0.00  0.00    +0.143 A 
ATOM     11  C   UNL     1     -37.071  20.826   1.992  0.00  0.00    +0.138 A 
ATOM     12  C   UNL     1     -38.216  21.563   1.705  0.00  0.00    +0.142 A 
ATOM     13  C   UNL     1     -34.831  20.561   2.959  0.00  0.00    +0.034 C 
ENDROOT
BRANCH   6  14
ATOM     14  O   UNL     1     -38.796  24.963   4.152  0.00  0.00    -0.357 OA
ATOM     15  H   UNL     1     -39.373  25.508   3.593  0.00  0.00    +0.213 HD
ENDBRANCH   6  14
BRANCH  10  16
ATOM     16  O   UNL     1     -39.485  23.570   1.910  0.00  0.00    -0.505 OA
ATOM     17  H   UNL     1     -39.619  23.884   1.038  0.00  0.00    +0.292 HD
ENDBRANCH  10  16
BRANCH  11  18
ATOM     18  O   UNL     1     -36.929  19.569   1.481  0.00  0.00    -0.506 OA
ATOM     19  H   UNL     1     -37.395  18.852   1.863  0.00  0.00    +0.292 HD
ENDBRANCH  11  18
BRANCH  12  21
ATOM     20  O   UNL     1     -39.097  20.580  -0.291  0.00  0.00    -0.245 OA
ATOM     21  C   UNL     1     -39.260  20.991   0.860  0.00  0.00    +0.344 C 
BRANCH  21  22
ATOM     22  O   UNL     1     -40.466  20.952   1.485  0.00  0.00    -0.477 OA
ATOM     23  H   UNL     1     -40.616  21.476   2.247  0.00  0.00    +0.295 HD
ENDBRANCH  21  22
ENDBRANCH  12  21
TORSDOF 5
ENDMDL
MODEL 3
REMARK VINA RESULT:      -6.0      1.855      5.455
REMARK  Name = 190886
REMARK  5 active torsions:
REMARK  status: ('A' for Active; 'I' for Inactive)
REMARK    1  A    between atoms: C_6  and  O_14
REMARK    2  A    between atoms: C_10  and  O_16
REMARK    3  A    between atoms: C_11  and  O_18
REMARK    4  A    between atoms: C_12  and  C_21
REMARK    5  A    between atoms: C_21  and  O_22
REMARK                            x       y       z     vdW  Elec       q    Type
REMARK                         _______ _______ _______ _____ _____    ______ ____
ROOT
ATOM      1  O   UNL     1     -35.349  26.612   2.652  0.00  0.00    -0.329 OA
ATOM      2  C   UNL     1     -35.035  25.508   4.791  0.00  0.00    +0.049 C 
ATOM      3  C   UNL     1     -34.511  26.571   3.809  0.00  0.00    +0.122 C 
ATOM      4  C   UNL     1     -35.229  24.181   4.091  0.00  0.00    -0.018 A 
ATOM      5  C   UNL     1     -35.421  24.141   2.699  0.00  0.00    +0.063 A 
ATOM      6  C   UNL     1     -35.371  25.410   1.875  0.00  0.00    +0.259 C 
ATOM      7  C   UNL     1     -35.239  22.988   4.830  0.00  0.00    +0.008 A 
ATOM      8  C   UNL     1     -36.367  25.952   5.411  0.00  0.00    +0.007 C 
ATOM      9  C   UNL     1     -33.035  26.402   3.445  0.00  0.00    +0.032 C 
ATOM     10  C   UNL     1     -35.592  22.899   2.069  0.00  0.00    +0.143 A 
ATOM     11  C   UNL     1     -35.424  21.763   4.192  0.00  0.00    +0.138 A 
ATOM     12  C   UNL     1     -35.598  21.718   2.812  0.00  0.00    +0.142 A 
ATOM     13  C   UNL     1     -34.960  22.937   6.296  0.00  0.00    +0.034 C 
ENDROOT
BRANCH   6  14
ATOM     14  O   UNL     1     -36.511  25.437   1.017  0.00  0.00    -0.357 OA
ATOM     15  H   UNL     1     -36.222  25.359   0.094  0.00  0.00    +0.213 HD
ENDBRANCH   6  14
BRANCH  10  16
ATOM     16  O   UNL     1     -35.749  22.835   0.712  0.00  0.00    -0.505 OA
ATOM     17  H   UNL     1     -35.020  23.005   0.148  0.00  0.00    +0.292 HD
ENDBRANCH  10  16
BRANCH  11  18
ATOM     18  O   UNL     1     -35.419  20.604   4.912  0.00  0.00    -0.506 OA
ATOM     19  H   UNL     1     -35.842  19.839   4.572  0.00  0.00    +0.292 HD
ENDBRANCH  11  18
BRANCH  12  21
ATOM     20  O   UNL     1     -35.077  20.014   1.214  0.00  0.00    -0.245 OA
ATOM     21  C   UNL     1     -35.774  20.433   2.140  0.00  0.00    +0.344 C 
BRANCH  21  22
ATOM     22  O   UNL     1     -36.814  19.722   2.650  0.00  0.00    -0.477 OA
ATOM     23  H   UNL     1     -37.218  19.992   3.451  0.00  0.00    +0.295 HD
ENDBRANCH  21  22
ENDBRANCH  12  21
TORSDOF 5
ENDMDL
MODEL 4
REMARK VINA RESULT:      -5.7      1.635      2.530
REMARK  Name = 190886
REMARK  5 active torsions:
REMARK  status: ('A' for Active; 'I' for Inactive)
REMARK    1  A    between atoms: C_6  and  O_14
REMARK    2  A    between atoms: C_10  and  O_16
REMARK    3  A    between atoms: C_11  and  O_18
REMARK    4  A    between atoms: C_12  and  C_21
REMARK    5  A    between atoms: C_21  and  O_22
REMARK                            x       y       z     vdW  Elec       q    Type
REMARK                         _______ _______ _______ _____ _____    ______ ____
ROOT
ATOM      1  O   UNL     1     -37.550  20.566   0.389  0.00  0.00    -0.329 OA
ATOM      2  C   UNL     1     -38.374  22.842   0.567  0.00  0.00    +0.049 C 
ATOM      3  C   UNL     1     -37.715  21.785  -0.337  0.00  0.00    +0.122 C 
ATOM      4  C   UNL     1     -37.624  22.970   1.875  0.00  0.00    -0.018 A 
ATOM      5  C   UNL     1     -36.835  21.904   2.341  0.00  0.00    +0.063 A 
ATOM      6  C   UNL     1     -36.672  20.645   1.516  0.00  0.00    +0.259 C 
ATOM      7  C   UNL     1     -37.729  24.143   2.637  0.00  0.00    +0.008 A 
ATOM      8  C   UNL     1     -39.836  22.473   0.857  0.00  0.00    +0.007 C 
ATOM      9  C   UNL     1     -36.410  22.253  -0.985  0.00  0.00    +0.032 C 
ATOM     10  C   UNL     1     -36.143  22.046   3.554  0.00  0.00    +0.143 A 
ATOM     11  C   UNL     1     -37.047  24.264   3.847  0.00  0.00    +0.138 A 
ATOM     12  C   UNL     1     -36.252  23.217   4.303  0.00  0.00    +0.142 A 
ATOM     13  C   UNL     1     -38.478  25.350   2.174  0.00  0.00    +0.034 C 
ENDROOT
BRANCH   6  14
ATOM     14  O   UNL     1     -36.904  19.518   2.361  0.00  0.00    -0.357 OA
ATOM     15  H   UNL     1     -37.271  19.820   3.208  0.00  0.00    +0.213 HD
ENDBRANCH   6  14
BRANCH  10  16
ATOM     16  O   UNL     1     -35.345  21.033   4.009  0.00  0.00    -0.505 OA
ATOM     17  H   UNL     1     -34.731  21.194   4.697  0.00  0.00    +0.292 HD
ENDBRANCH  10  16
BRANCH  11  18
ATOM     18  O   UNL     1     -37.140  25.412   4.578  0.00  0.00    -0.506 OA
ATOM     19  H   UNL     1     -36.363  25.854   4.860  0.00  0.00    +0.292 HD
ENDBRANCH  11  18
BRANCH  12  21
ATOM     20  O   UNL     1     -34.687  24.222   5.810  0.00  0.00    -0.245 OA
ATOM     21  C   UNL     1     -35.522  23.350   5.561  0.00  0.00    +0.344 C 
BRANCH  21  22
ATOM     22  O   UNL     1     -35.863  22.389   6.460  0.00  0.00    -0.477 OA
ATOM     23  H   UNL     1     -36.476  21.722   6.222  0.00  0.00    +0.295 HD
ENDBRANCH  21  22
ENDBRANCH  12  21
TORSDOF 5
ENDMDL
MODEL 5
REMARK VINA RESULT:      -5.6      2.286      4.702
REMARK  Name = 190886
REMARK  5 active torsions:
REMARK  status: ('A' for Active; 'I' for Inactive)
REMARK    1  A    between atoms: C_6  and  O_14
REMARK    2  A    between atoms: C_10  and  O_16
REMARK    3  A    between atoms: C_11  and  O_18
REMARK    4  A    between atoms: C_12  and  C_21
REMARK    5  A    between atoms: C_21  and  O_22
REMARK                            x       y       z     vdW  Elec       q    Type
REMARK                         _______ _______ _______ _____ _____    ______ ____
ROOT
ATOM      1  O   UNL     1     -40.684  23.178   1.193  0.00  0.00    -0.329 OA
ATOM      2  C   UNL     1     -39.317  24.938   2.153  0.00  0.00    +0.049 C 
ATOM      3  C   UNL     1     -40.166  24.487   0.952  0.00  0.00    +0.122 C 
ATOM      4  C   UNL     1     -38.281  23.892   2.499  0.00  0.00    -0.018 A 
ATOM      5  C   UNL     1     -38.482  22.551   2.126  0.00  0.00    +0.063 A 
ATOM      6  C   UNL     1     -39.698  22.148   1.319  0.00  0.00    +0.259 C 
ATOM      7  C   UNL     1     -37.127  24.249   3.212  0.00  0.00    +0.008 A 
ATOM      8  C   UNL     1     -40.204  25.196   3.379  0.00  0.00    +0.007 C 
ATOM      9  C   UNL     1     -39.438  24.581  -0.390  0.00  0.00    +0.032 C 
ATOM     10  C   UNL     1     -37.505  21.598   2.451  0.00  0.00    +0.143 A 
ATOM     11  C   UNL     1     -36.172  23.288   3.541  0.00  0.00    +0.138 A 
ATOM     12  C   UNL     1     -36.359  21.963   3.158  0.00  0.00    +0.142 A 
ATOM     13  C   UNL     1     -36.798  25.661   3.574  0.00  0.00    +0.034 C 
ENDROOT
BRANCH   6  14
ATOM     14  O   UNL     1     -40.296  21.011   1.940  0.00  0.00    -0.357 OA
ATOM     15  H   UNL     1     -39.600  20.434   2.295  0.00  0.00    +0.213 HD
ENDBRANCH   6  14
BRANCH  10  16
ATOM     16  O   UNL     1     -37.667  20.294   2.069  0.00  0.00    -0.505 OA
ATOM     17  H   UNL     1     -37.947  19.655   2.694  0.00  0.00    +0.292 HD
ENDBRANCH  10  16
BRANCH  11  18
ATOM     18  O   UNL     1     -35.044  23.643   4.222  0.00  0.00    -0.506 OA
ATOM     19  H   UNL     1     -34.462  24.285   3.864  0.00  0.00    +0.292 HD
ENDBRANCH  11  18
BRANCH  12  21
ATOM     20  O   UNL     1     -34.765  20.247   2.668  0.00  0.00    -0.245 OA
ATOM     21  C   UNL     1     -35.352  20.959   3.486  0.00  0.00    +0.344 C 
BRANCH  21  22
ATOM     22  O   UNL     1     -35.114  20.883   4.822  0.00  0.00    -0.477 OA
ATOM     23  H   UNL     1     -34.282  21.143   5.165  0.00  0.00    +0.295 HD
ENDBRANCH  21  22
ENDBRANCH  12  21
TORSDOF 5
ENDMDL
MODEL 6
REMARK VINA RESULT:      -5.6      1.558      4.332
REMARK  Name = 190886
REMARK  5 active torsions:
REMARK  status: ('A' for Active; 'I' for Inactive)
REMARK    1  A    between atoms: C_6  and  O_14
REMARK    2  A    between atoms: C_10  and  O_16
REMARK    3  A    between atoms: C_11  and  O_18
REMARK    4  A    between atoms: C_12  and  C_21
REMARK    5  A    between atoms: C_21  and  O_22
REMARK                            x       y       z     vdW  Elec       q    Type
REMARK                         _______ _______ _______ _____ _____    ______ ____
ROOT
ATOM      1  O   UNL     1     -38.919  25.964   1.090  0.00  0.00    -0.329 OA
ATOM      2  C   UNL     1     -38.489  23.646   0.512  0.00  0.00    +0.049 C 
ATOM      3  C   UNL     1     -39.537  24.768   0.608  0.00  0.00    +0.122 C 
ATOM      4  C   UNL     1     -37.740  23.500   1.818  0.00  0.00    -0.018 A 
ATOM      5  C   UNL     1     -37.666  24.582   2.712  0.00  0.00    +0.063 A 
ATOM      6  C   UNL     1     -38.386  25.880   2.415  0.00  0.00    +0.259 C 
ATOM      7  C   UNL     1     -37.098  22.293   2.133  0.00  0.00    +0.008 A 
ATOM      8  C   UNL     1     -37.488  23.932  -0.616  0.00  0.00    +0.007 C 
ATOM      9  C   UNL     1     -40.775  24.391   1.424  0.00  0.00    +0.032 C 
ATOM     10  C   UNL     1     -36.971  24.423   3.921  0.00  0.00    +0.143 A 
ATOM     11  C   UNL     1     -36.399  22.154   3.331  0.00  0.00    +0.138 A 
ATOM     12  C   UNL     1     -36.338  23.218   4.226  0.00  0.00    +0.142 A 
ATOM     13  C   UNL     1     -37.196  21.072   1.278  0.00  0.00    +0.034 C 
ENDROOT
BRANCH   6  14
ATOM     14  O   UNL     1     -37.473  26.959   2.614  0.00  0.00    -0.357 OA
ATOM     15  H   UNL     1     -36.736  26.659   3.169  0.00  0.00    +0.213 HD
ENDBRANCH   6  14
BRANCH  10  16
ATOM     16  O   UNL     1     -36.915  25.454   4.819  0.00  0.00    -0.505 OA
ATOM     17  H   UNL     1     -36.271  26.127   4.719  0.00  0.00    +0.292 HD
ENDBRANCH  10  16
BRANCH  11  18
ATOM     18  O   UNL     1     -35.788  20.974   3.640  0.00  0.00    -0.506 OA
ATOM     19  H   UNL     1     -35.737  20.691   4.532  0.00  0.00    +0.292 HD
ENDBRANCH  11  18
BRANCH  12  21
ATOM     20  O   UNL     1     -34.685  23.776   5.864  0.00  0.00    -0.245 OA
ATOM     21  C   UNL     1     -35.622  23.069   5.490  0.00  0.00    +0.344 C 
BRANCH  21  22
ATOM     22  O   UNL     1     -36.105  22.042   6.239  0.00  0.00    -0.477 OA
ATOM     23  H   UNL     1     -36.828  22.184   6.817  0.00  0.00    +0.295 HD
ENDBRANCH  21  22
ENDBRANCH  12  21
TORSDOF 5
ENDMDL
MODEL 7
REMARK VINA RESULT:      -5.5      1.878      2.468
REMARK  Name = 190886
REMARK  5 active torsions:
REMARK  status: ('A' for Active; 'I' for Inactive)
REMARK    1  A    between atoms: C_6  and  O_14
REMARK    2  A    between atoms: C_10  and  O_16
REMARK    3  A    between atoms: C_11  and  O_18
REMARK    4  A    between atoms: C_12  and  C_21
REMARK    5  A    between atoms: C_21  and  O_22
REMARK                            x       y       z     vdW  Elec       q    Type
REMARK                         _______ _______ _______ _____ _____    ______ ____
ROOT
ATOM      1  O   UNL     1     -35.274  19.615   0.859  0.00  0.00    -0.329 OA
ATOM      2  C   UNL     1     -34.407  21.638  -0.164  0.00  0.00    +0.049 C 
ATOM      3  C   UNL     1     -34.171  20.145   0.121  0.00  0.00    +0.122 C 
ATOM      4  C   UNL     1     -34.741  22.380   1.111  0.00  0.00    -0.018 A 
ATOM      5  C   UNL     1     -35.276  21.685   2.210  0.00  0.00    +0.063 A 
ATOM      6  C   UNL     1     -35.464  20.184   2.158  0.00  0.00    +0.259 C 
ATOM      7  C   UNL     1     -34.538  23.766   1.196  0.00  0.00    +0.008 A 
ATOM      8  C   UNL     1     -35.550  21.825  -1.172  0.00  0.00    +0.007 C 
ATOM      9  C   UNL     1     -32.830  19.848   0.795  0.00  0.00    +0.032 C 
ATOM     10  C   UNL     1     -35.573  22.392   3.386  0.00  0.00    +0.143 A 
ATOM     11  C   UNL     1     -34.851  24.457   2.366  0.00  0.00    +0.138 A 
ATOM     12  C   UNL     1     -35.365  23.769   3.462  0.00  0.00    +0.142 A 
ATOM     13  C   UNL     1     -33.899  24.562   0.107  0.00  0.00    +0.034 C 
ENDROOT
BRANCH   6  14
ATOM     14  O   UNL     1     -36.783  19.878   2.607  0.00  0.00    -0.357 OA
ATOM     15  H   UNL     1     -37.041  19.001   2.279  0.00  0.00    +0.213 HD
ENDBRANCH   6  14
BRANCH  10  16
ATOM     16  O   UNL     1     -36.065  21.729   4.477  0.00  0.00    -0.505 OA
ATOM     17  H   UNL     1     -35.565  21.043   4.872  0.00  0.00    +0.292 HD
ENDBRANCH  10  16
BRANCH  11  18
ATOM     18  O   UNL     1     -34.639  25.802   2.449  0.00  0.00    -0.506 OA
ATOM     19  H   UNL     1     -34.821  26.352   1.712  0.00  0.00    +0.292 HD
ENDBRANCH  11  18
BRANCH  12  21
ATOM     20  O   UNL     1     -34.844  24.927   5.490  0.00  0.00    -0.245 OA
ATOM     21  C   UNL     1     -35.676  24.488   4.694  0.00  0.00    +0.344 C 
BRANCH  21  22
ATOM     22  O   UNL     1     -37.015  24.633   4.883  0.00  0.00    -0.477 OA
ATOM     23  H   UNL     1     -37.602  24.550   4.158  0.00  0.00    +0.295 HD
ENDBRANCH  21  22
ENDBRANCH  12  21
TORSDOF 5
ENDMDL
MODEL 8
REMARK VINA RESULT:      -5.5      1.674      2.333
REMARK  Name = 190886
REMARK  5 active torsions:
REMARK  status: ('A' for Active; 'I' for Inactive)
REMARK    1  A    between atoms: C_6  and  O_14
REMARK    2  A    between atoms: C_10  and  O_16
REMARK    3  A    between atoms: C_11  and  O_18
REMARK    4  A    between atoms: C_12  and  C_21
REMARK    5  A    between atoms: C_21  and  O_22
REMARK                            x       y       z     vdW  Elec       q    Type
REMARK                         _______ _______ _______ _____ _____    ______ ____
ROOT
ATOM      1  O   UNL     1     -37.375  22.227   2.872  0.00  0.00    -0.329 OA
ATOM      2  C   UNL     1     -37.760  24.387   1.832  0.00  0.00    +0.049 C 
ATOM      3  C   UNL     1     -37.539  22.880   1.611  0.00  0.00    +0.122 C 
ATOM      4  C   UNL     1     -36.676  24.962   2.717  0.00  0.00    -0.018 A 
ATOM      5  C   UNL     1     -35.965  24.125   3.595  0.00  0.00    +0.063 A 
ATOM      6  C   UNL     1     -36.226  22.634   3.621  0.00  0.00    +0.259 C 
ATOM      7  C   UNL     1     -36.390  26.336   2.681  0.00  0.00    +0.008 A 
ATOM      8  C   UNL     1     -39.129  24.646   2.476  0.00  0.00    +0.007 C 
ATOM      9  C   UNL     1     -36.400  22.557   0.642  0.00  0.00    +0.032 C 
ATOM     10  C   UNL     1     -34.959  24.679   4.402  0.00  0.00    +0.143 A 
ATOM     11  C   UNL     1     -35.398  26.874   3.499  0.00  0.00    +0.138 A 
ATOM     12  C   UNL     1     -34.681  26.045   4.357  0.00  0.00    +0.142 A 
ATOM     13  C   UNL     1     -37.040  27.277   1.720  0.00  0.00    +0.034 C 
ENDROOT
BRANCH   6  14
ATOM     14  O   UNL     1     -36.393  22.229   4.979  0.00  0.00    -0.357 OA
ATOM     15  H   UNL     1     -37.338  22.102   5.163  0.00  0.00    +0.213 HD
ENDBRANCH   6  14
BRANCH  10  16
ATOM     16  O   UNL     1     -34.235  23.876   5.240  0.00  0.00    -0.505 OA
ATOM     17  H   UNL     1     -34.489  22.984   5.369  0.00  0.00    +0.292 HD
ENDBRANCH  10  16
BRANCH  11  18
ATOM     18  O   UNL     1     -35.114  28.207   3.450  0.00  0.00    -0.506 OA
ATOM     19  H   UNL     1     -35.808  28.833   3.383  0.00  0.00    +0.292 HD
ENDBRANCH  11  18
BRANCH  12  21
ATOM     20  O   UNL     1     -33.657  26.654   6.432  0.00  0.00    -0.245 OA
ATOM     21  C   UNL     1     -33.629  26.604   5.201  0.00  0.00    +0.344 C 
BRANCH  21  22
ATOM     22  O   UNL     1     -32.582  27.078   4.475  0.00  0.00    -0.477 OA
ATOM     23  H   UNL     1     -32.676  27.220   3.554  0.00  0.00    +0.295 HD
ENDBRANCH  21  22
ENDBRANCH  12  21
TORSDOF 5
ENDMDL
MODEL 9
REMARK VINA RESULT:      -5.5      1.999      5.161
REMARK  Name = 190886
REMARK  5 active torsions:
REMARK  status: ('A' for Active; 'I' for Inactive)
REMARK    1  A    between atoms: C_6  and  O_14
REMARK    2  A    between atoms: C_10  and  O_16
REMARK    3  A    between atoms: C_11  and  O_18
REMARK    4  A    between atoms: C_12  and  C_21
REMARK    5  A    between atoms: C_21  and  O_22
REMARK                            x       y       z     vdW  Elec       q    Type
REMARK                         _______ _______ _______ _____ _____    ______ ____
ROOT
ATOM      1  O   UNL     1     -36.312  24.208   5.044  0.00  0.00    -0.329 OA
ATOM      2  C   UNL     1     -35.217  25.135   3.087  0.00  0.00    +0.049 C 
ATOM      3  C   UNL     1     -36.402  25.242   4.063  0.00  0.00    +0.122 C 
ATOM      4  C   UNL     1     -35.104  23.732   2.533  0.00  0.00    -0.018 A 
ATOM      5  C   UNL     1     -35.650  22.649   3.244  0.00  0.00    +0.063 A 
ATOM      6  C   UNL     1     -36.411  22.875   4.533  0.00  0.00    +0.259 C 
ATOM      7  C   UNL     1     -34.438  23.504   1.320  0.00  0.00    +0.008 A 
ATOM      8  C   UNL     1     -33.903  25.510   3.787  0.00  0.00    +0.007 C 
ATOM      9  C   UNL     1     -37.769  25.267   3.375  0.00  0.00    +0.032 C 
ATOM     10  C   UNL     1     -35.540  21.356   2.708  0.00  0.00    +0.143 A 
ATOM     11  C   UNL     1     -34.324  22.212   0.808  0.00  0.00    +0.138 A 
ATOM     12  C   UNL     1     -34.877  21.139   1.500  0.00  0.00    +0.142 A 
ATOM     13  C   UNL     1     -33.904  24.605   0.465  0.00  0.00    +0.034 C 
ENDROOT
BRANCH   6  14
ATOM     14  O   UNL     1     -35.915  21.966   5.515  0.00  0.00    -0.357 OA
ATOM     15  H   UNL     1     -35.705  21.118   5.093  0.00  0.00    +0.213 HD
ENDBRANCH   6  14
BRANCH  10  16
ATOM     16  O   UNL     1     -36.091  20.293   3.368  0.00  0.00    -0.505 OA
ATOM     17  H   UNL     1     -35.748  19.431   3.237  0.00  0.00    +0.292 HD
ENDBRANCH  10  16
BRANCH  11  18
ATOM     18  O   UNL     1     -33.687  21.996  -0.380  0.00  0.00    -0.506 OA
ATOM     19  H   UNL     1     -34.142  22.133  -1.188  0.00  0.00    +0.292 HD
ENDBRANCH  11  18
BRANCH  12  21
ATOM     20  O   UNL     1     -35.318  19.395  -0.079  0.00  0.00    -0.245 OA
ATOM     21  C   UNL     1     -34.775  19.788   0.956  0.00  0.00    +0.344 C 
BRANCH  21  22
ATOM     22  O   UNL     1     -33.997  18.980   1.723  0.00  0.00    -0.477 OA
ATOM     23  H   UNL     1     -34.199  18.857   2.629  0.00  0.00    +0.295 HD
ENDBRANCH  21  22
ENDBRANCH  12  21
TORSDOF 5
ENDMDL
