MODEL 1
REMARK VINA RESULT:      -6.6      0.000      0.000
REMARK  Name = 193301
REMARK  9 active torsions:
REMARK  status: ('A' for Active; 'I' for Inactive)
REMARK    1  A    between atoms: N_3  and  C_20
REMARK    2  A    between atoms: C_20  and  C_21
REMARK    3  A    between atoms: C_21  and  O_22
REMARK    4  A    between atoms: C_21  and  C_24
REMARK    5  A    between atoms: C_24  and  O_25
REMARK    6  A    between atoms: C_24  and  C_27
REMARK    7  A    between atoms: C_27  and  O_28
REMARK    8  A    between atoms: C_27  and  C_30
REMARK    9  A    between atoms: C_30  and  O_31
REMARK                            x       y       z     vdW  Elec       q    Type
REMARK                         _______ _______ _______ _____ _____    ______ ____
ROOT
ATOM      1  O   UNL     1     -40.711  21.000   0.749  0.00  0.00    -0.266 OA
ATOM      2  O   UNL     1     -39.844  24.896   3.027  0.00  0.00    -0.193 OA
ATOM      3  N   UNL     1     -36.204  22.141   2.075  0.00  0.00    -0.270 N 
ATOM      4  N   UNL     1     -38.080  20.415   0.836  0.00  0.00    -0.396 NA
ATOM      5  N   UNL     1     -38.063  23.555   2.565  0.00  0.00    -0.303 NA
ATOM      6  N   UNL     1     -40.293  22.977   1.901  0.00  0.00    -0.196 N 
ATOM      7  C   UNL     1     -35.761  20.937   1.483  0.00  0.00    +0.150 C 
ATOM      8  C   UNL     1     -37.554  22.475   2.049  0.00  0.00    +0.232 C 
ATOM      9  C   UNL     1     -36.713  20.095   0.873  0.00  0.00    +0.131 C 
ATOM     10  C   UNL     1     -34.414  20.529   1.468  0.00  0.00    -0.004 C 
ATOM     11  C   UNL     1     -38.495  21.514   1.376  0.00  0.00    +0.230 C 
ATOM     12  C   UNL     1     -34.026  19.328   0.868  0.00  0.00    -0.028 C 
ATOM     13  C   UNL     1     -36.311  18.892   0.273  0.00  0.00    +0.025 C 
ATOM     14  C   UNL     1     -34.974  18.508   0.271  0.00  0.00    -0.024 C 
ATOM     15  C   UNL     1     -39.962  21.788   1.298  0.00  0.00    +0.293 C 
ATOM     16  C   UNL     1     -32.581  18.946   0.883  0.00  0.00    +0.030 C 
ATOM     17  C   UNL     1     -34.586  17.220  -0.375  0.00  0.00    +0.031 C 
ATOM     18  C   UNL     1     -39.407  23.858   2.523  0.00  0.00    +0.273 C 
ATOM     19  H   UNL     1     -41.244  23.232   1.894  0.00  0.00    +0.169 HD
ENDROOT
BRANCH   3  20
ATOM     20  C   UNL     1     -35.210  23.007   2.705  0.00  0.00    +0.126 C 
BRANCH  20  21
ATOM     21  C   UNL     1     -35.189  22.768   4.219  0.00  0.00    +0.159 C 
BRANCH  21  22
ATOM     22  O   UNL     1     -36.408  22.125   4.595  0.00  0.00    -0.380 OA
ATOM     23  H   UNL     1     -37.124  22.778   4.620  0.00  0.00    +0.211 HD
ENDBRANCH  21  22
BRANCH  21  24
ATOM     24  C   UNL     1     -35.032  24.073   5.025  0.00  0.00    +0.168 C 
BRANCH  24  25
ATOM     25  O   UNL     1     -33.657  24.446   5.071  0.00  0.00    -0.379 OA
ATOM     26  H   UNL     1     -33.566  25.294   5.534  0.00  0.00    +0.211 HD
ENDBRANCH  24  25
BRANCH  24  27
ATOM     27  C   UNL     1     -35.836  25.248   4.435  0.00  0.00    +0.169 C 
BRANCH  27  28
ATOM     28  O   UNL     1     -37.192  25.154   4.875  0.00  0.00    -0.379 OA
ATOM     29  H   UNL     1     -37.769  24.990   4.113  0.00  0.00    +0.211 HD
ENDBRANCH  27  28
BRANCH  27  30
ATOM     30  C   UNL     1     -35.280  26.605   4.865  0.00  0.00    +0.169 C 
BRANCH  30  31
ATOM     31  O   UNL     1     -35.563  27.559   3.844  0.00  0.00    -0.379 OA
ATOM     32  H   UNL     1     -36.519  27.587   3.685  0.00  0.00    +0.211 HD
ENDBRANCH  30  31
ENDBRANCH  27  30
ENDBRANCH  24  27
ENDBRANCH  21  24
ENDBRANCH  20  21
ENDBRANCH   3  20
TORSDOF 9
ENDMDL
MODEL 2
REMARK VINA RESULT:      -6.3      2.564      3.528
REMARK  Name = 193301
REMARK  9 active torsions:
REMARK  status: ('A' for Active; 'I' for Inactive)
REMARK    1  A    between atoms: N_3  and  C_20
REMARK    2  A    between atoms: C_20  and  C_21
REMARK    3  A    between atoms: C_21  and  O_22
REMARK    4  A    between atoms: C_21  and  C_24
REMARK    5  A    between atoms: C_24  and  O_25
REMARK    6  A    between atoms: C_24  and  C_27
REMARK    7  A    between atoms: C_27  and  O_28
REMARK    8  A    between atoms: C_27  and  C_30
REMARK    9  A    between atoms: C_30  and  O_31
REMARK                            x       y       z     vdW  Elec       q    Type
REMARK                         _______ _______ _______ _____ _____    ______ ____
ROOT
ATOM      1  O   UNL     1     -34.282  25.930  -1.174  0.00  0.00    -0.266 OA
ATOM      2  O   UNL     1     -37.503  26.389   2.072  0.00  0.00    -0.193 OA
ATOM      3  N   UNL     1     -35.294  22.290   1.843  0.00  0.00    -0.270 N 
ATOM      4  N   UNL     1     -33.844  23.409  -0.319  0.00  0.00    -0.396 NA
ATOM      5  N   UNL     1     -36.428  24.386   1.965  0.00  0.00    -0.303 NA
ATOM      6  N   UNL     1     -35.916  26.183   0.463  0.00  0.00    -0.196 N 
ATOM      7  C   UNL     1     -34.311  21.516   1.186  0.00  0.00    +0.150 C 
ATOM      8  C   UNL     1     -35.547  23.593   1.430  0.00  0.00    +0.232 C 
ATOM      9  C   UNL     1     -33.604  22.095   0.113  0.00  0.00    +0.131 C 
ATOM     10  C   UNL     1     -33.998  20.191   1.544  0.00  0.00    -0.004 C 
ATOM     11  C   UNL     1     -34.742  24.125   0.276  0.00  0.00    +0.230 C 
ATOM     12  C   UNL     1     -33.016  19.467   0.862  0.00  0.00    -0.028 C 
ATOM     13  C   UNL     1     -32.620  21.359  -0.564  0.00  0.00    +0.025 C 
ATOM     14  C   UNL     1     -32.327  20.050  -0.193  0.00  0.00    -0.024 C 
ATOM     15  C   UNL     1     -34.942  25.513  -0.238  0.00  0.00    +0.293 C 
ATOM     16  C   UNL     1     -32.726  18.064   1.287  0.00  0.00    +0.030 C 
ATOM     17  C   UNL     1     -31.275  19.298  -0.939  0.00  0.00    +0.031 C 
ATOM     18  C   UNL     1     -36.655  25.674   1.532  0.00  0.00    +0.273 C 
ATOM     19  H   UNL     1     -36.111  27.107   0.186  0.00  0.00    +0.169 HD
ENDROOT
BRANCH   3  20
ATOM     20  C   UNL     1     -36.022  21.681   2.954  0.00  0.00    +0.126 C 
BRANCH  20  21
ATOM     21  C   UNL     1     -35.259  21.900   4.266  0.00  0.00    +0.159 C 
BRANCH  21  22
ATOM     22  O   UNL     1     -35.103  20.639   4.918  0.00  0.00    -0.380 OA
ATOM     23  H   UNL     1     -35.688  20.600   5.691  0.00  0.00    +0.211 HD
ENDBRANCH  21  22
BRANCH  21  24
ATOM     24  C   UNL     1     -35.978  22.879   5.215  0.00  0.00    +0.168 C 
BRANCH  24  25
ATOM     25  O   UNL     1     -36.203  22.248   6.474  0.00  0.00    -0.379 OA
ATOM     26  H   UNL     1     -36.360  22.924   7.152  0.00  0.00    +0.211 HD
ENDBRANCH  24  25
BRANCH  24  27
ATOM     27  C   UNL     1     -35.187  24.179   5.456  0.00  0.00    +0.169 C 
BRANCH  27  28
ATOM     28  O   UNL     1     -34.186  24.310   4.445  0.00  0.00    -0.379 OA
ATOM     29  H   UNL     1     -34.267  25.178   4.020  0.00  0.00    +0.211 HD
ENDBRANCH  27  28
BRANCH  27  30
ATOM     30  C   UNL     1     -36.082  25.418   5.416  0.00  0.00    +0.169 C 
BRANCH  30  31
ATOM     31  O   UNL     1     -37.316  25.071   4.795  0.00  0.00    -0.379 OA
ATOM     32  H   UNL     1     -37.751  24.374   5.310  0.00  0.00    +0.211 HD
ENDBRANCH  30  31
ENDBRANCH  27  30
ENDBRANCH  24  27
ENDBRANCH  21  24
ENDBRANCH  20  21
ENDBRANCH   3  20
TORSDOF 9
ENDMDL
MODEL 3
REMARK VINA RESULT:      -6.2      2.906      7.124
REMARK  Name = 193301
REMARK  9 active torsions:
REMARK  status: ('A' for Active; 'I' for Inactive)
REMARK    1  A    between atoms: N_3  and  C_20
REMARK    2  A    between atoms: C_20  and  C_21
REMARK    3  A    between atoms: C_21  and  O_22
REMARK    4  A    between atoms: C_21  and  C_24
REMARK    5  A    between atoms: C_24  and  O_25
REMARK    6  A    between atoms: C_24  and  C_27
REMARK    7  A    between atoms: C_27  and  O_28
REMARK    8  A    between atoms: C_27  and  C_30
REMARK    9  A    between atoms: C_30  and  O_31
REMARK                            x       y       z     vdW  Elec       q    Type
REMARK                         _______ _______ _______ _____ _____    ______ ____
ROOT
ATOM      1  O   UNL     1     -33.375  25.664   4.926  0.00  0.00    -0.266 OA
ATOM      2  O   UNL     1     -35.787  21.949   6.151  0.00  0.00    -0.193 OA
ATOM      3  N   UNL     1     -37.642  24.694   2.871  0.00  0.00    -0.270 N 
ATOM      4  N   UNL     1     -35.327  26.299   3.175  0.00  0.00    -0.396 NA
ATOM      5  N   UNL     1     -36.698  23.285   4.549  0.00  0.00    -0.303 NA
ATOM      6  N   UNL     1     -34.581  23.778   5.561  0.00  0.00    -0.196 N 
ATOM      7  C   UNL     1     -37.494  25.861   2.090  0.00  0.00    +0.150 C 
ATOM      8  C   UNL     1     -36.657  24.336   3.784  0.00  0.00    +0.232 C 
ATOM      9  C   UNL     1     -36.334  26.643   2.259  0.00  0.00    +0.131 C 
ATOM     10  C   UNL     1     -38.446  26.291   1.146  0.00  0.00    -0.004 C 
ATOM     11  C   UNL     1     -35.454  25.232   3.895  0.00  0.00    +0.230 C 
ATOM     12  C   UNL     1     -38.252  27.454   0.396  0.00  0.00    -0.028 C 
ATOM     13  C   UNL     1     -36.149  27.810   1.501  0.00  0.00    +0.025 C 
ATOM     14  C   UNL     1     -37.104  28.215   0.574  0.00  0.00    -0.024 C 
ATOM     15  C   UNL     1     -34.344  24.928   4.848  0.00  0.00    +0.293 C 
ATOM     16  C   UNL     1     -39.297  27.862  -0.592  0.00  0.00    +0.030 C 
ATOM     17  C   UNL     1     -36.874  29.463  -0.213  0.00  0.00    +0.031 C 
ATOM     18  C   UNL     1     -35.703  22.957   5.446  0.00  0.00    +0.273 C 
ATOM     19  H   UNL     1     -33.895  23.507   6.213  0.00  0.00    +0.169 HD
ENDROOT
BRANCH   3  20
ATOM     20  C   UNL     1     -38.849  23.890   2.688  0.00  0.00    +0.126 C 
BRANCH  20  21
ATOM     21  C   UNL     1     -38.674  22.944   1.494  0.00  0.00    +0.159 C 
BRANCH  21  22
ATOM     22  O   UNL     1     -39.859  22.991   0.698  0.00  0.00    -0.380 OA
ATOM     23  H   UNL     1     -40.265  22.111   0.670  0.00  0.00    +0.211 HD
ENDBRANCH  21  22
BRANCH  21  24
ATOM     24  C   UNL     1     -38.407  21.487   1.925  0.00  0.00    +0.168 C 
BRANCH  24  25
ATOM     25  O   UNL     1     -39.205  20.602   1.141  0.00  0.00    -0.379 OA
ATOM     26  H   UNL     1     -39.950  20.281   1.673  0.00  0.00    +0.211 HD
ENDBRANCH  24  25
BRANCH  24  27
ATOM     27  C   UNL     1     -36.931  21.074   1.776  0.00  0.00    +0.169 C 
BRANCH  27  28
ATOM     28  O   UNL     1     -36.487  20.480   2.998  0.00  0.00    -0.379 OA
ATOM     29  H   UNL     1     -35.546  20.259   2.927  0.00  0.00    +0.211 HD
ENDBRANCH  27  28
BRANCH  27  30
ATOM     30  C   UNL     1     -36.721  20.068   0.645  0.00  0.00    +0.169 C 
BRANCH  30  31
ATOM     31  O   UNL     1     -36.994  18.760   1.139  0.00  0.00    -0.379 OA
ATOM     32  H   UNL     1     -37.917  18.529   0.946  0.00  0.00    +0.211 HD
ENDBRANCH  30  31
ENDBRANCH  27  30
ENDBRANCH  24  27
ENDBRANCH  21  24
ENDBRANCH  20  21
ENDBRANCH   3  20
TORSDOF 9
ENDMDL
MODEL 4
REMARK VINA RESULT:      -6.1      2.522      5.928
REMARK  Name = 193301
REMARK  9 active torsions:
REMARK  status: ('A' for Active; 'I' for Inactive)
REMARK    1  A    between atoms: N_3  and  C_20
REMARK    2  A    between atoms: C_20  and  C_21
REMARK    3  A    between atoms: C_21  and  O_22
REMARK    4  A    between atoms: C_21  and  C_24
REMARK    5  A    between atoms: C_24  and  O_25
REMARK    6  A    between atoms: C_24  and  C_27
REMARK    7  A    between atoms: C_27  and  O_28
REMARK    8  A    between atoms: C_27  and  C_30
REMARK    9  A    between atoms: C_30  and  O_31
REMARK                            x       y       z     vdW  Elec       q    Type
REMARK                         _______ _______ _______ _____ _____    ______ ____
ROOT
ATOM      1  O   UNL     1     -40.305  27.484   1.119  0.00  0.00    -0.266 OA
ATOM      2  O   UNL     1     -42.329  23.704  -0.536  0.00  0.00    -0.193 OA
ATOM      3  N   UNL     1     -38.737  23.085   2.372  0.00  0.00    -0.270 N 
ATOM      4  N   UNL     1     -38.597  25.913   2.495  0.00  0.00    -0.396 NA
ATOM      5  N   UNL     1     -40.576  23.396   0.883  0.00  0.00    -0.303 NA
ATOM      6  N   UNL     1     -41.344  25.583   0.270  0.00  0.00    -0.196 N 
ATOM      7  C   UNL     1     -37.750  23.701   3.172  0.00  0.00    +0.150 C 
ATOM      8  C   UNL     1     -39.634  23.863   1.648  0.00  0.00    +0.232 C 
ATOM      9  C   UNL     1     -37.701  25.109   3.218  0.00  0.00    +0.131 C 
ATOM     10  C   UNL     1     -36.807  22.984   3.932  0.00  0.00    -0.004 C 
ATOM     11  C   UNL     1     -39.505  25.358   1.759  0.00  0.00    +0.230 C 
ATOM     12  C   UNL     1     -35.850  23.641   4.710  0.00  0.00    -0.028 C 
ATOM     13  C   UNL     1     -36.735  25.759   4.002  0.00  0.00    +0.025 C 
ATOM     14  C   UNL     1     -35.813  25.029   4.745  0.00  0.00    -0.024 C 
ATOM     15  C   UNL     1     -40.423  26.275   1.020  0.00  0.00    +0.293 C 
ATOM     16  C   UNL     1     -34.873  22.828   5.496  0.00  0.00    +0.030 C 
ATOM     17  C   UNL     1     -34.799  25.755   5.566  0.00  0.00    +0.031 C 
ATOM     18  C   UNL     1     -41.451  24.194   0.178  0.00  0.00    +0.273 C 
ATOM     19  H   UNL     1     -41.988  26.115  -0.250  0.00  0.00    +0.169 HD
ENDROOT
BRANCH   3  20
ATOM     20  C   UNL     1     -38.780  21.625   2.332  0.00  0.00    +0.126 C 
BRANCH  20  21
ATOM     21  C   UNL     1     -38.075  21.113   1.070  0.00  0.00    +0.159 C 
BRANCH  21  22
ATOM     22  O   UNL     1     -38.956  20.217   0.389  0.00  0.00    -0.380 OA
ATOM     23  H   UNL     1     -39.839  20.268   0.785  0.00  0.00    +0.211 HD
ENDBRANCH  21  22
BRANCH  21  24
ATOM     24  C   UNL     1     -36.752  20.386   1.382  0.00  0.00    +0.168 C 
BRANCH  24  25
ATOM     25  O   UNL     1     -36.867  19.690   2.622  0.00  0.00    -0.379 OA
ATOM     26  H   UNL     1     -36.790  20.320   3.355  0.00  0.00    +0.211 HD
ENDBRANCH  24  25
BRANCH  24  27
ATOM     27  C   UNL     1     -36.345  19.376   0.292  0.00  0.00    +0.169 C 
BRANCH  27  28
ATOM     28  O   UNL     1     -36.630  19.934  -0.992  0.00  0.00    -0.379 OA
ATOM     29  H   UNL     1     -37.210  20.704  -0.888  0.00  0.00    +0.211 HD
ENDBRANCH  27  28
BRANCH  27  30
ATOM     30  C   UNL     1     -34.859  19.027   0.350  0.00  0.00    +0.169 C 
BRANCH  30  31
ATOM     31  O   UNL     1     -34.374  19.307   1.660  0.00  0.00    -0.379 OA
ATOM     32  H   UNL     1     -33.617  18.732   1.854  0.00  0.00    +0.211 HD
ENDBRANCH  30  31
ENDBRANCH  27  30
ENDBRANCH  24  27
ENDBRANCH  21  24
ENDBRANCH  20  21
ENDBRANCH   3  20
TORSDOF 9
ENDMDL
MODEL 5
REMARK VINA RESULT:      -6.1      3.159      6.701
REMARK  Name = 193301
REMARK  9 active torsions:
REMARK  status: ('A' for Active; 'I' for Inactive)
REMARK    1  A    between atoms: N_3  and  C_20
REMARK    2  A    between atoms: C_20  and  C_21
REMARK    3  A    between atoms: C_21  and  O_22
REMARK    4  A    between atoms: C_21  and  C_24
REMARK    5  A    between atoms: C_24  and  O_25
REMARK    6  A    between atoms: C_24  and  C_27
REMARK    7  A    between atoms: C_27  and  O_28
REMARK    8  A    between atoms: C_27  and  C_30
REMARK    9  A    between atoms: C_30  and  O_31
REMARK                            x       y       z     vdW  Elec       q    Type
REMARK                         _______ _______ _______ _____ _____    ______ ____
ROOT
ATOM      1  O   UNL     1     -35.873  22.537   6.308  0.00  0.00    -0.266 OA
ATOM      2  O   UNL     1     -36.827  21.480   1.937  0.00  0.00    -0.193 OA
ATOM      3  N   UNL     1     -34.327  25.344   2.688  0.00  0.00    -0.270 N 
ATOM      4  N   UNL     1     -34.546  24.720   5.443  0.00  0.00    -0.396 NA
ATOM      5  N   UNL     1     -35.606  23.367   2.298  0.00  0.00    -0.303 NA
ATOM      6  N   UNL     1     -36.367  21.984   4.102  0.00  0.00    -0.196 N 
ATOM      7  C   UNL     1     -33.729  26.192   3.645  0.00  0.00    +0.150 C 
ATOM      8  C   UNL     1     -35.020  24.210   3.096  0.00  0.00    +0.232 C 
ATOM      9  C   UNL     1     -33.851  25.861   5.010  0.00  0.00    +0.131 C 
ATOM     10  C   UNL     1     -33.013  27.357   3.312  0.00  0.00    -0.004 C 
ATOM     11  C   UNL     1     -35.098  23.937   4.574  0.00  0.00    +0.230 C 
ATOM     12  C   UNL     1     -32.437  28.164   4.298  0.00  0.00    -0.028 C 
ATOM     13  C   UNL     1     -33.270  26.678   5.991  0.00  0.00    +0.025 C 
ATOM     14  C   UNL     1     -32.566  27.825   5.638  0.00  0.00    -0.024 C 
ATOM     15  C   UNL     1     -35.819  22.743   5.108  0.00  0.00    +0.293 C 
ATOM     16  C   UNL     1     -31.688  29.389   3.884  0.00  0.00    +0.030 C 
ATOM     17  C   UNL     1     -31.963  28.670   6.711  0.00  0.00    +0.031 C 
ATOM     18  C   UNL     1     -36.286  22.250   2.734  0.00  0.00    +0.273 C 
ATOM     19  H   UNL     1     -36.862  21.177   4.370  0.00  0.00    +0.169 HD
ENDROOT
BRANCH   3  20
ATOM     20  C   UNL     1     -34.195  25.696   1.275  0.00  0.00    +0.126 C 
BRANCH  20  21
ATOM     21  C   UNL     1     -35.426  26.482   0.812  0.00  0.00    +0.159 C 
BRANCH  21  22
ATOM     22  O   UNL     1     -34.989  27.708   0.223  0.00  0.00    -0.380 OA
ATOM     23  H   UNL     1     -35.667  28.034  -0.388  0.00  0.00    +0.211 HD
ENDBRANCH  21  22
BRANCH  21  24
ATOM     24  C   UNL     1     -36.402  26.791   1.965  0.00  0.00    +0.168 C 
BRANCH  24  25
ATOM     25  O   UNL     1     -36.525  28.203   2.123  0.00  0.00    -0.379 OA
ATOM     26  H   UNL     1     -37.463  28.452   2.101  0.00  0.00    +0.211 HD
ENDBRANCH  24  25
BRANCH  24  27
ATOM     27  C   UNL     1     -37.808  26.202   1.741  0.00  0.00    +0.169 C 
BRANCH  27  28
ATOM     28  O   UNL     1     -37.708  25.071   0.875  0.00  0.00    -0.379 OA
ATOM     29  H   UNL     1     -38.147  24.309   1.285  0.00  0.00    +0.211 HD
ENDBRANCH  27  28
BRANCH  27  30
ATOM     30  C   UNL     1     -38.465  25.756   3.047  0.00  0.00    +0.169 C 
BRANCH  30  31
ATOM     31  O   UNL     1     -37.658  26.194   4.137  0.00  0.00    -0.379 OA
ATOM     32  H   UNL     1     -38.042  25.878   4.970  0.00  0.00    +0.211 HD
ENDBRANCH  30  31
ENDBRANCH  27  30
ENDBRANCH  24  27
ENDBRANCH  21  24
ENDBRANCH  20  21
ENDBRANCH   3  20
TORSDOF 9
ENDMDL
MODEL 6
REMARK VINA RESULT:      -6.0      3.958      7.121
REMARK  Name = 193301
REMARK  9 active torsions:
REMARK  status: ('A' for Active; 'I' for Inactive)
REMARK    1  A    between atoms: N_3  and  C_20
REMARK    2  A    between atoms: C_20  and  C_21
REMARK    3  A    between atoms: C_21  and  O_22
REMARK    4  A    between atoms: C_21  and  C_24
REMARK    5  A    between atoms: C_24  and  O_25
REMARK    6  A    between atoms: C_24  and  C_27
REMARK    7  A    between atoms: C_27  and  O_28
REMARK    8  A    between atoms: C_27  and  C_30
REMARK    9  A    between atoms: C_30  and  O_31
REMARK                            x       y       z     vdW  Elec       q    Type
REMARK                         _______ _______ _______ _____ _____    ______ ____
ROOT
ATOM      1  O   UNL     1     -32.190  28.573   6.482  0.00  0.00    -0.266 OA
ATOM      2  O   UNL     1     -31.713  30.393   2.289  0.00  0.00    -0.193 OA
ATOM      3  N   UNL     1     -33.783  26.225   2.568  0.00  0.00    -0.270 N 
ATOM      4  N   UNL     1     -33.386  26.428   5.367  0.00  0.00    -0.396 NA
ATOM      5  N   UNL     1     -32.724  28.358   2.419  0.00  0.00    -0.303 NA
ATOM      6  N   UNL     1     -31.939  29.512   4.368  0.00  0.00    -0.196 N 
ATOM      7  C   UNL     1     -34.219  25.180   3.413  0.00  0.00    +0.150 C 
ATOM      8  C   UNL     1     -33.162  27.346   3.108  0.00  0.00    +0.232 C 
ATOM      9  C   UNL     1     -34.011  25.304   4.802  0.00  0.00    +0.131 C 
ATOM     10  C   UNL     1     -34.854  24.015   2.944  0.00  0.00    -0.004 C 
ATOM     11  C   UNL     1     -32.983  27.390   4.601  0.00  0.00    +0.230 C 
ATOM     12  C   UNL     1     -35.268  23.009   3.822  0.00  0.00    -0.028 C 
ATOM     13  C   UNL     1     -34.430  24.289   5.674  0.00  0.00    +0.025 C 
ATOM     14  C   UNL     1     -35.056  23.145   5.188  0.00  0.00    -0.024 C 
ATOM     15  C   UNL     1     -32.328  28.552   5.271  0.00  0.00    +0.293 C 
ATOM     16  C   UNL     1     -35.937  21.794   3.266  0.00  0.00    +0.030 C 
ATOM     17  C   UNL     1     -35.487  22.085   6.146  0.00  0.00    +0.031 C 
ATOM     18  C   UNL     1     -32.113  29.456   2.985  0.00  0.00    +0.273 C 
ATOM     19  H   UNL     1     -31.497  30.314   4.730  0.00  0.00    +0.169 HD
ENDROOT
BRANCH   3  20
ATOM     20  C   UNL     1     -34.004  26.086   1.130  0.00  0.00    +0.126 C 
BRANCH  20  21
ATOM     21  C   UNL     1     -35.245  26.884   0.710  0.00  0.00    +0.159 C 
BRANCH  21  22
ATOM     22  O   UNL     1     -34.824  28.164   0.237  0.00  0.00    -0.380 OA
ATOM     23  H   UNL     1     -33.945  28.088  -0.165  0.00  0.00    +0.211 HD
ENDBRANCH  21  22
BRANCH  21  24
ATOM     24  C   UNL     1     -36.249  27.073   1.865  0.00  0.00    +0.168 C 
BRANCH  24  25
ATOM     25  O   UNL     1     -36.498  28.463   2.061  0.00  0.00    -0.379 OA
ATOM     26  H   UNL     1     -35.685  28.965   1.890  0.00  0.00    +0.211 HD
ENDBRANCH  24  25
BRANCH  24  27
ATOM     27  C   UNL     1     -37.595  26.366   1.617  0.00  0.00    +0.169 C 
BRANCH  27  28
ATOM     28  O   UNL     1     -37.379  25.229   0.780  0.00  0.00    -0.379 OA
ATOM     29  H   UNL     1     -38.233  24.879   0.483  0.00  0.00    +0.211 HD
ENDBRANCH  27  28
BRANCH  27  30
ATOM     30  C   UNL     1     -38.251  25.896   2.915  0.00  0.00    +0.169 C 
BRANCH  30  31
ATOM     31  O   UNL     1     -37.415  26.263   4.009  0.00  0.00    -0.379 OA
ATOM     32  H   UNL     1     -37.719  27.107   4.378  0.00  0.00    +0.211 HD
ENDBRANCH  30  31
ENDBRANCH  27  30
ENDBRANCH  24  27
ENDBRANCH  21  24
ENDBRANCH  20  21
ENDBRANCH   3  20
TORSDOF 9
ENDMDL
MODEL 7
REMARK VINA RESULT:      -5.9      4.709      7.875
REMARK  Name = 193301
REMARK  9 active torsions:
REMARK  status: ('A' for Active; 'I' for Inactive)
REMARK    1  A    between atoms: N_3  and  C_20
REMARK    2  A    between atoms: C_20  and  C_21
REMARK    3  A    between atoms: C_21  and  O_22
REMARK    4  A    between atoms: C_21  and  C_24
REMARK    5  A    between atoms: C_24  and  O_25
REMARK    6  A    between atoms: C_24  and  C_27
REMARK    7  A    between atoms: C_27  and  O_28
REMARK    8  A    between atoms: C_27  and  C_30
REMARK    9  A    between atoms: C_30  and  O_31
REMARK                            x       y       z     vdW  Elec       q    Type
REMARK                         _______ _______ _______ _____ _____    ______ ____
ROOT
ATOM      1  O   UNL     1     -31.075  28.225   6.525  0.00  0.00    -0.266 OA
ATOM      2  O   UNL     1     -31.664  31.100   2.988  0.00  0.00    -0.193 OA
ATOM      3  N   UNL     1     -34.248  27.219   3.018  0.00  0.00    -0.270 N 
ATOM      4  N   UNL     1     -32.935  26.593   5.450  0.00  0.00    -0.396 NA
ATOM      5  N   UNL     1     -32.928  29.207   2.997  0.00  0.00    -0.303 NA
ATOM      6  N   UNL     1     -31.358  29.694   4.743  0.00  0.00    -0.196 N 
ATOM      7  C   UNL     1     -34.567  26.022   3.696  0.00  0.00    +0.150 C 
ATOM      8  C   UNL     1     -33.294  28.084   3.542  0.00  0.00    +0.232 C 
ATOM      9  C   UNL     1     -33.901  25.732   4.904  0.00  0.00    +0.131 C 
ATOM     10  C   UNL     1     -35.519  25.095   3.231  0.00  0.00    -0.004 C 
ATOM     11  C   UNL     1     -32.635  27.692   4.836  0.00  0.00    +0.230 C 
ATOM     12  C   UNL     1     -35.800  23.924   3.939  0.00  0.00    -0.028 C 
ATOM     13  C   UNL     1     -34.191  24.553   5.607  0.00  0.00    +0.025 C 
ATOM     14  C   UNL     1     -35.136  23.652   5.128  0.00  0.00    -0.024 C 
ATOM     15  C   UNL     1     -31.600  28.557   5.476  0.00  0.00    +0.293 C 
ATOM     16  C   UNL     1     -36.821  22.977   3.396  0.00  0.00    +0.030 C 
ATOM     17  C   UNL     1     -35.416  22.407   5.903  0.00  0.00    +0.031 C 
ATOM     18  C   UNL     1     -31.978  30.044   3.543  0.00  0.00    +0.273 C 
ATOM     19  H   UNL     1     -30.686  30.319   5.097  0.00  0.00    +0.169 HD
ENDROOT
BRANCH   3  20
ATOM     20  C   UNL     1     -34.945  27.510   1.767  0.00  0.00    +0.126 C 
BRANCH  20  21
ATOM     21  C   UNL     1     -36.180  28.375   2.042  0.00  0.00    +0.159 C 
BRANCH  21  22
ATOM     22  O   UNL     1     -37.349  27.588   1.805  0.00  0.00    -0.380 OA
ATOM     23  H   UNL     1     -37.983  28.101   1.281  0.00  0.00    +0.211 HD
ENDBRANCH  21  22
BRANCH  21  24
ATOM     24  C   UNL     1     -36.229  29.639   1.161  0.00  0.00    +0.168 C 
BRANCH  24  25
ATOM     25  O   UNL     1     -37.510  29.743   0.542  0.00  0.00    -0.379 OA
ATOM     26  H   UNL     1     -37.441  29.488  -0.391  0.00  0.00    +0.211 HD
ENDBRANCH  24  25
BRANCH  24  27
ATOM     27  C   UNL     1     -35.962  30.936   1.948  0.00  0.00    +0.169 C 
BRANCH  27  28
ATOM     28  O   UNL     1     -35.593  30.602   3.287  0.00  0.00    -0.379 OA
ATOM     29  H   UNL     1     -34.784  30.068   3.276  0.00  0.00    +0.211 HD
ENDBRANCH  27  28
BRANCH  27  30
ATOM     30  C   UNL     1     -34.840  31.769   1.329  0.00  0.00    +0.169 C 
BRANCH  30  31
ATOM     31  O   UNL     1     -34.185  32.496   2.365  0.00  0.00    -0.379 OA
ATOM     32  H   UNL     1     -34.187  31.968   3.180  0.00  0.00    +0.211 HD
ENDBRANCH  30  31
ENDBRANCH  27  30
ENDBRANCH  24  27
ENDBRANCH  21  24
ENDBRANCH  20  21
ENDBRANCH   3  20
TORSDOF 9
ENDMDL
MODEL 8
REMARK VINA RESULT:      -5.9      1.620      2.321
REMARK  Name = 193301
REMARK  9 active torsions:
REMARK  status: ('A' for Active; 'I' for Inactive)
REMARK    1  A    between atoms: N_3  and  C_20
REMARK    2  A    between atoms: C_20  and  C_21
REMARK    3  A    between atoms: C_21  and  O_22
REMARK    4  A    between atoms: C_21  and  C_24
REMARK    5  A    between atoms: C_24  and  O_25
REMARK    6  A    between atoms: C_24  and  C_27
REMARK    7  A    between atoms: C_27  and  O_28
REMARK    8  A    between atoms: C_27  and  C_30
REMARK    9  A    between atoms: C_30  and  O_31
REMARK                            x       y       z     vdW  Elec       q    Type
REMARK                         _______ _______ _______ _____ _____    ______ ____
ROOT
ATOM      1  O   UNL     1     -41.473  23.244   0.418  0.00  0.00    -0.266 OA
ATOM      2  O   UNL     1     -40.465  26.575   3.420  0.00  0.00    -0.193 OA
ATOM      3  N   UNL     1     -37.243  23.271   2.760  0.00  0.00    -0.270 N 
ATOM      4  N   UNL     1     -39.069  22.128   0.919  0.00  0.00    -0.396 NA
ATOM      5  N   UNL     1     -38.889  24.965   3.102  0.00  0.00    -0.303 NA
ATOM      6  N   UNL     1     -40.982  24.940   1.934  0.00  0.00    -0.196 N 
ATOM      7  C   UNL     1     -36.896  22.083   2.079  0.00  0.00    +0.150 C 
ATOM      8  C   UNL     1     -38.474  23.874   2.528  0.00  0.00    +0.232 C 
ATOM      9  C   UNL     1     -37.821  21.534   1.168  0.00  0.00    +0.131 C 
ATOM     10  C   UNL     1     -35.672  21.412   2.260  0.00  0.00    -0.004 C 
ATOM     11  C   UNL     1     -39.395  23.215   1.538  0.00  0.00    +0.230 C 
ATOM     12  C   UNL     1     -35.376  20.240   1.560  0.00  0.00    -0.028 C 
ATOM     13  C   UNL     1     -37.513  20.355   0.471  0.00  0.00    +0.025 C 
ATOM     14  C   UNL     1     -36.296  19.710   0.666  0.00  0.00    -0.024 C 
ATOM     15  C   UNL     1     -40.738  23.790   1.223  0.00  0.00    +0.293 C 
ATOM     16  C   UNL     1     -34.059  19.571   1.793  0.00  0.00    +0.030 C 
ATOM     17  C   UNL     1     -36.005  18.457  -0.092  0.00  0.00    +0.031 C 
ATOM     18  C   UNL     1     -40.116  25.539   2.850  0.00  0.00    +0.273 C 
ATOM     19  H   UNL     1     -41.848  25.383   1.784  0.00  0.00    +0.169 HD
ENDROOT
BRANCH   3  20
ATOM     20  C   UNL     1     -36.277  23.833   3.702  0.00  0.00    +0.126 C 
BRANCH  20  21
ATOM     21  C   UNL     1     -35.467  24.944   3.025  0.00  0.00    +0.159 C 
BRANCH  21  22
ATOM     22  O   UNL     1     -34.114  24.504   2.892  0.00  0.00    -0.380 OA
ATOM     23  H   UNL     1     -33.536  25.272   2.763  0.00  0.00    +0.211 HD
ENDBRANCH  21  22
BRANCH  21  24
ATOM     24  C   UNL     1     -35.497  26.268   3.815  0.00  0.00    +0.168 C 
BRANCH  24  25
ATOM     25  O   UNL     1     -36.499  26.199   4.827  0.00  0.00    -0.379 OA
ATOM     26  H   UNL     1     -37.373  26.119   4.414  0.00  0.00    +0.211 HD
ENDBRANCH  24  25
BRANCH  24  27
ATOM     27  C   UNL     1     -34.151  26.604   4.483  0.00  0.00    +0.169 C 
BRANCH  27  28
ATOM     28  O   UNL     1     -33.915  28.009   4.378  0.00  0.00    -0.379 OA
ATOM     29  H   UNL     1     -34.596  28.489   4.873  0.00  0.00    +0.211 HD
ENDBRANCH  27  28
BRANCH  27  30
ATOM     30  C   UNL     1     -34.124  26.217   5.961  0.00  0.00    +0.169 C 
BRANCH  30  31
ATOM     31  O   UNL     1     -33.132  26.998   6.620  0.00  0.00    -0.379 OA
ATOM     32  H   UNL     1     -32.388  27.151   6.017  0.00  0.00    +0.211 HD
ENDBRANCH  30  31
ENDBRANCH  27  30
ENDBRANCH  24  27
ENDBRANCH  21  24
ENDBRANCH  20  21
ENDBRANCH   3  20
TORSDOF 9
ENDMDL
MODEL 9
REMARK VINA RESULT:      -5.8      2.426      5.933
REMARK  Name = 193301
REMARK  9 active torsions:
REMARK  status: ('A' for Active; 'I' for Inactive)
REMARK    1  A    between atoms: N_3  and  C_20
REMARK    2  A    between atoms: C_20  and  C_21
REMARK    3  A    between atoms: C_21  and  O_22
REMARK    4  A    between atoms: C_21  and  C_24
REMARK    5  A    between atoms: C_24  and  O_25
REMARK    6  A    between atoms: C_24  and  C_27
REMARK    7  A    between atoms: C_27  and  O_28
REMARK    8  A    between atoms: C_27  and  C_30
REMARK    9  A    between atoms: C_30  and  O_31
REMARK                            x       y       z     vdW  Elec       q    Type
REMARK                         _______ _______ _______ _____ _____    ______ ____
ROOT
ATOM      1  O   UNL     1     -40.691  25.492   0.727  0.00  0.00    -0.266 OA
ATOM      2  O   UNL     1     -40.437  21.000   1.665  0.00  0.00    -0.193 OA
ATOM      3  N   UNL     1     -36.715  23.601   2.723  0.00  0.00    -0.270 N 
ATOM      4  N   UNL     1     -38.194  25.792   1.703  0.00  0.00    -0.396 NA
ATOM      5  N   UNL     1     -38.617  22.265   2.184  0.00  0.00    -0.303 NA
ATOM      6  N   UNL     1     -40.583  23.216   1.194  0.00  0.00    -0.196 N 
ATOM      7  C   UNL     1     -36.140  24.891   2.720  0.00  0.00    +0.150 C 
ATOM      8  C   UNL     1     -37.999  23.408   2.227  0.00  0.00    +0.232 C 
ATOM      9  C   UNL     1     -36.895  25.965   2.208  0.00  0.00    +0.131 C 
ATOM     10  C   UNL     1     -34.847  25.167   3.203  0.00  0.00    -0.004 C 
ATOM     11  C   UNL     1     -38.729  24.614   1.701  0.00  0.00    +0.230 C 
ATOM     12  C   UNL     1     -34.323  26.462   3.179  0.00  0.00    -0.028 C 
ATOM     13  C   UNL     1     -36.359  27.261   2.189  0.00  0.00    +0.025 C 
ATOM     14  C   UNL     1     -35.079  27.510   2.671  0.00  0.00    -0.024 C 
ATOM     15  C   UNL     1     -40.113  24.506   1.149  0.00  0.00    +0.293 C 
ATOM     16  C   UNL     1     -32.943  26.695   3.706  0.00  0.00    +0.030 C 
ATOM     17  C   UNL     1     -34.542  28.902   2.633  0.00  0.00    +0.031 C 
ATOM     18  C   UNL     1     -39.893  22.107   1.686  0.00  0.00    +0.273 C 
ATOM     19  H   UNL     1     -41.490  23.058   0.847  0.00  0.00    +0.169 HD
ENDROOT
BRANCH   3  20
ATOM     20  C   UNL     1     -35.923  22.494   3.257  0.00  0.00    +0.126 C 
BRANCH  20  21
ATOM     21  C   UNL     1     -35.210  21.760   2.115  0.00  0.00    +0.159 C 
BRANCH  21  22
ATOM     22  O   UNL     1     -35.699  22.268   0.873  0.00  0.00    -0.380 OA
ATOM     23  H   UNL     1     -35.377  23.173   0.745  0.00  0.00    +0.211 HD
ENDBRANCH  21  22
BRANCH  21  24
ATOM     24  C   UNL     1     -35.429  20.234   2.162  0.00  0.00    +0.168 C 
BRANCH  24  25
ATOM     25  O   UNL     1     -36.683  19.948   2.778  0.00  0.00    -0.379 OA
ATOM     26  H   UNL     1     -36.867  20.611   3.461  0.00  0.00    +0.211 HD
ENDBRANCH  24  25
BRANCH  24  27
ATOM     27  C   UNL     1     -35.409  19.577   0.769  0.00  0.00    +0.169 C 
BRANCH  27  28
ATOM     28  O   UNL     1     -34.453  18.515   0.767  0.00  0.00    -0.379 OA
ATOM     29  H   UNL     1     -33.561  18.882   0.859  0.00  0.00    +0.211 HD
ENDBRANCH  27  28
BRANCH  27  30
ATOM     30  C   UNL     1     -36.771  19.005   0.377  0.00  0.00    +0.169 C 
BRANCH  30  31
ATOM     31  O   UNL     1     -37.699  20.079   0.254  0.00  0.00    -0.379 OA
ATOM     32  H   UNL     1     -37.227  20.923   0.328  0.00  0.00    +0.211 HD
ENDBRANCH  30  31
ENDBRANCH  27  30
ENDBRANCH  24  27
ENDBRANCH  21  24
ENDBRANCH  20  21
ENDBRANCH   3  20
TORSDOF 9
ENDMDL
