MODEL 1
REMARK VINA RESULT:      -6.1      0.000      0.000
REMARK  Name = 196743
REMARK  6 active torsions:
REMARK  status: ('A' for Active; 'I' for Inactive)
REMARK    1  A    between atoms: C_1  and  C_14
REMARK    2  A    between atoms: C_2  and  N_9
REMARK    3  A    between atoms: C_4  and  O_10
REMARK    4  A    between atoms: C_6  and  O_12
REMARK    5  A    between atoms: C_15  and  C_17
REMARK    6  A    between atoms: C_15  and  C_20
REMARK                            x       y       z     vdW  Elec       q    Type
REMARK                         _______ _______ _______ _____ _____    ______ ____
ROOT
ATOM      1  C   UNL     1     -34.606  25.892   5.471  0.00  0.00    +0.005 C 
ATOM      2  C   UNL     1     -35.614  23.738   5.130  0.00  0.00    +0.180 C 
ATOM      3  C   UNL     1     -34.585  24.519   5.660  0.00  0.00    +0.027 C 
ATOM      4  C   UNL     1     -36.652  24.342   4.420  0.00  0.00    +0.194 C 
ATOM      5  C   UNL     1     -35.632  26.504   4.766  0.00  0.00    +0.040 C 
ATOM      6  C   UNL     1     -36.660  25.724   4.238  0.00  0.00    +0.169 C 
ENDROOT
BRANCH   2   9
ATOM      7  O   UNL     1     -35.962  21.866   6.430  0.00  0.00    -0.126 OA
ATOM      8  O   UNL     1     -35.192  21.595   4.392  0.00  0.00    -0.126 OA
ATOM      9  N   UNL     1     -35.588  22.330   5.327  0.00  0.00    +0.061 N 
ENDBRANCH   2   9
BRANCH   4  10
ATOM     10  O   UNL     1     -37.662  23.589   3.898  0.00  0.00    -0.467 OA
ATOM     11  C   UNL     1     -37.547  23.214   2.527  0.00  0.00    +0.253 C 
ENDBRANCH   4  10
BRANCH   6  12
ATOM     12  O   UNL     1     -37.667  26.327   3.545  0.00  0.00    -0.503 OA
ATOM     13  H   UNL     1     -38.035  27.130   3.858  0.00  0.00    +0.292 HD
ENDBRANCH   6  12
BRANCH   1  14
ATOM     14  C   UNL     1     -33.522  26.715   6.028  0.00  0.00    +0.006 C 
ATOM     15  C   UNL     1     -32.610  27.418   5.330  0.00  0.00    +0.069 C 
BRANCH  15  17
ATOM     16  O   UNL     1     -30.483  27.687   6.335  0.00  0.00    -0.291 OA
ATOM     17  C   UNL     1     -31.556  28.216   6.042  0.00  0.00    +0.176 C 
ATOM     18  C   UNL     1     -31.821  29.656   6.404  0.00  0.00    +0.077 C 
ENDBRANCH  15  17
BRANCH  15  20
ATOM     19  O   UNL     1     -32.186  26.426   3.208  0.00  0.00    -0.291 OA
ATOM     20  C   UNL     1     -32.635  27.385   3.832  0.00  0.00    +0.176 C 
ATOM     21  C   UNL     1     -33.207  28.584   3.123  0.00  0.00    +0.077 C 
ENDBRANCH  15  20
ENDBRANCH   1  14
TORSDOF 6
ENDMDL
MODEL 2
REMARK VINA RESULT:      -5.8      1.721      2.994
REMARK  Name = 196743
REMARK  6 active torsions:
REMARK  status: ('A' for Active; 'I' for Inactive)
REMARK    1  A    between atoms: C_1  and  C_14
REMARK    2  A    between atoms: C_2  and  N_9
REMARK    3  A    between atoms: C_4  and  O_10
REMARK    4  A    between atoms: C_6  and  O_12
REMARK    5  A    between atoms: C_15  and  C_17
REMARK    6  A    between atoms: C_15  and  C_20
REMARK                            x       y       z     vdW  Elec       q    Type
REMARK                         _______ _______ _______ _____ _____    ______ ____
ROOT
ATOM      1  C   UNL     1     -35.455  24.686   4.925  0.00  0.00    +0.005 C 
ATOM      2  C   UNL     1     -37.462  24.360   3.647  0.00  0.00    +0.180 C 
ATOM      3  C   UNL     1     -36.637  25.191   4.405  0.00  0.00    +0.027 C 
ATOM      4  C   UNL     1     -37.095  23.034   3.417  0.00  0.00    +0.194 C 
ATOM      5  C   UNL     1     -35.079  23.369   4.705  0.00  0.00    +0.040 C 
ATOM      6  C   UNL     1     -35.904  22.539   3.947  0.00  0.00    +0.169 C 
ENDROOT
BRANCH   2   9
ATOM      7  O   UNL     1     -39.738  24.718   3.756  0.00  0.00    -0.126 OA
ATOM      8  O   UNL     1     -38.641  25.493   2.019  0.00  0.00    -0.126 OA
ATOM      9  N   UNL     1     -38.673  24.883   3.114  0.00  0.00    +0.061 N 
ENDBRANCH   2   9
BRANCH   4  10
ATOM     10  O   UNL     1     -37.895  22.213   2.678  0.00  0.00    -0.467 OA
ATOM     11  C   UNL     1     -37.622  22.132   1.281  0.00  0.00    +0.253 C 
ENDBRANCH   4  10
BRANCH   6  12
ATOM     12  O   UNL     1     -35.533  21.246   3.731  0.00  0.00    -0.503 OA
ATOM     13  H   UNL     1     -35.648  20.861   2.884  0.00  0.00    +0.292 HD
ENDBRANCH   6  12
BRANCH   1  14
ATOM     14  C   UNL     1     -34.585  25.561   5.725  0.00  0.00    +0.006 C 
ATOM     15  C   UNL     1     -33.657  26.415   5.254  0.00  0.00    +0.069 C 
BRANCH  15  17
ATOM     16  O   UNL     1     -32.894  27.029   7.411  0.00  0.00    -0.291 OA
ATOM     17  C   UNL     1     -32.840  27.248   6.200  0.00  0.00    +0.176 C 
ATOM     18  C   UNL     1     -31.967  28.355   5.664  0.00  0.00    +0.077 C 
ENDBRANCH  15  17
BRANCH  15  20
ATOM     19  O   UNL     1     -32.589  25.812   3.214  0.00  0.00    -0.291 OA
ATOM     20  C   UNL     1     -33.422  26.518   3.779  0.00  0.00    +0.176 C 
ATOM     21  C   UNL     1     -34.229  27.537   3.019  0.00  0.00    +0.077 C 
ENDBRANCH  15  20
ENDBRANCH   1  14
TORSDOF 6
ENDMDL
MODEL 3
REMARK VINA RESULT:      -5.7      2.675      6.157
REMARK  Name = 196743
REMARK  6 active torsions:
REMARK  status: ('A' for Active; 'I' for Inactive)
REMARK    1  A    between atoms: C_1  and  C_14
REMARK    2  A    between atoms: C_2  and  N_9
REMARK    3  A    between atoms: C_4  and  O_10
REMARK    4  A    between atoms: C_6  and  O_12
REMARK    5  A    between atoms: C_15  and  C_17
REMARK    6  A    between atoms: C_15  and  C_20
REMARK                            x       y       z     vdW  Elec       q    Type
REMARK                         _______ _______ _______ _____ _____    ______ ____
ROOT
ATOM      1  C   UNL     1     -34.739  25.088   2.499  0.00  0.00    +0.005 C 
ATOM      2  C   UNL     1     -33.736  26.929   3.670  0.00  0.00    +0.180 C 
ATOM      3  C   UNL     1     -33.736  25.579   3.320  0.00  0.00    +0.027 C 
ATOM      4  C   UNL     1     -34.740  27.773   3.194  0.00  0.00    +0.194 C 
ATOM      5  C   UNL     1     -35.743  25.915   2.019  0.00  0.00    +0.040 C 
ATOM      6  C   UNL     1     -35.743  27.265   2.369  0.00  0.00    +0.169 C 
ENDROOT
BRANCH   2   9
ATOM      7  O   UNL     1     -31.569  27.633   4.022  0.00  0.00    -0.126 OA
ATOM      8  O   UNL     1     -32.960  27.648   5.720  0.00  0.00    -0.126 OA
ATOM      9  N   UNL     1     -32.704  27.428   4.512  0.00  0.00    +0.061 N 
ENDBRANCH   2   9
BRANCH   4  10
ATOM     10  O   UNL     1     -34.751  29.095   3.530  0.00  0.00    -0.467 OA
ATOM     11  C   UNL     1     -34.054  29.987   2.665  0.00  0.00    +0.253 C 
ENDBRANCH   4  10
BRANCH   6  12
ATOM     12  O   UNL     1     -36.731  28.077   1.897  0.00  0.00    -0.503 OA
ATOM     13  H   UNL     1     -36.587  29.001   1.834  0.00  0.00    +0.292 HD
ENDBRANCH   6  12
BRANCH   1  14
ATOM     14  C   UNL     1     -34.739  23.664   2.130  0.00  0.00    +0.006 C 
ATOM     15  C   UNL     1     -35.324  22.660   2.810  0.00  0.00    +0.069 C 
BRANCH  15  17
ATOM     16  O   UNL     1     -35.826  20.348   2.908  0.00  0.00    -0.291 OA
ATOM     17  C   UNL     1     -35.239  21.248   2.306  0.00  0.00    +0.176 C 
ATOM     18  C   UNL     1     -34.427  20.938   1.074  0.00  0.00    +0.077 C 
ENDBRANCH  15  17
BRANCH  15  20
ATOM     19  O   UNL     1     -37.217  23.327   4.091  0.00  0.00    -0.291 OA
ATOM     20  C   UNL     1     -36.046  22.952   4.090  0.00  0.00    +0.176 C 
ATOM     21  C   UNL     1     -35.273  22.792   5.372  0.00  0.00    +0.077 C 
ENDBRANCH  15  20
ENDBRANCH   1  14
TORSDOF 6
ENDMDL
MODEL 4
REMARK VINA RESULT:      -5.3      5.171      7.054
REMARK  Name = 196743
REMARK  6 active torsions:
REMARK  status: ('A' for Active; 'I' for Inactive)
REMARK    1  A    between atoms: C_1  and  C_14
REMARK    2  A    between atoms: C_2  and  N_9
REMARK    3  A    between atoms: C_4  and  O_10
REMARK    4  A    between atoms: C_6  and  O_12
REMARK    5  A    between atoms: C_15  and  C_17
REMARK    6  A    between atoms: C_15  and  C_20
REMARK                            x       y       z     vdW  Elec       q    Type
REMARK                         _______ _______ _______ _____ _____    ______ ____
ROOT
ATOM      1  C   UNL     1     -35.293  20.335   1.911  0.00  0.00    +0.005 C 
ATOM      2  C   UNL     1     -36.464  22.261   2.740  0.00  0.00    +0.180 C 
ATOM      3  C   UNL     1     -35.292  21.510   2.646  0.00  0.00    +0.027 C 
ATOM      4  C   UNL     1     -37.623  21.828   2.096  0.00  0.00    +0.194 C 
ATOM      5  C   UNL     1     -36.439  19.892   1.268  0.00  0.00    +0.040 C 
ATOM      6  C   UNL     1     -37.610  20.643   1.360  0.00  0.00    +0.169 C 
ENDROOT
BRANCH   2   9
ATOM      7  O   UNL     1     -36.180  24.543   2.914  0.00  0.00    -0.126 OA
ATOM      8  O   UNL     1     -36.727  23.418   4.718  0.00  0.00    -0.126 OA
ATOM      9  N   UNL     1     -36.457  23.467   3.494  0.00  0.00    +0.061 N 
ENDBRANCH   2   9
BRANCH   4  10
ATOM     10  O   UNL     1     -38.775  22.554   2.181  0.00  0.00    -0.467 OA
ATOM     11  C   UNL     1     -39.031  23.484   1.132  0.00  0.00    +0.253 C 
ENDBRANCH   4  10
BRANCH   6  12
ATOM     12  O   UNL     1     -38.736  20.207   0.727  0.00  0.00    -0.503 OA
ATOM     13  H   UNL     1     -38.815  20.298  -0.202  0.00  0.00    +0.292 HD
ENDBRANCH   6  12
BRANCH   1  14
ATOM     14  C   UNL     1     -34.058  19.542   1.813  0.00  0.00    +0.006 C 
ATOM     15  C   UNL     1     -33.156  19.584   0.815  0.00  0.00    +0.069 C 
BRANCH  15  17
ATOM     16  O   UNL     1     -31.934  17.693   1.550  0.00  0.00    -0.291 OA
ATOM     17  C   UNL     1     -31.936  18.710   0.853  0.00  0.00    +0.176 C 
ATOM     18  C   UNL     1     -30.717  19.085   0.049  0.00  0.00    +0.077 C 
ENDBRANCH  15  17
BRANCH  15  20
ATOM     19  O   UNL     1     -33.912  20.088  -1.386  0.00  0.00    -0.291 OA
ATOM     20  C   UNL     1     -33.383  20.494  -0.353  0.00  0.00    +0.176 C 
ATOM     21  C   UNL     1     -32.915  21.920  -0.222  0.00  0.00    +0.077 C 
ENDBRANCH  15  20
ENDBRANCH   1  14
TORSDOF 6
ENDMDL
MODEL 5
REMARK VINA RESULT:      -5.3      4.774      6.792
REMARK  Name = 196743
REMARK  6 active torsions:
REMARK  status: ('A' for Active; 'I' for Inactive)
REMARK    1  A    between atoms: C_1  and  C_14
REMARK    2  A    between atoms: C_2  and  N_9
REMARK    3  A    between atoms: C_4  and  O_10
REMARK    4  A    between atoms: C_6  and  O_12
REMARK    5  A    between atoms: C_15  and  C_17
REMARK    6  A    between atoms: C_15  and  C_20
REMARK                            x       y       z     vdW  Elec       q    Type
REMARK                         _______ _______ _______ _____ _____    ______ ____
ROOT
ATOM      1  C   UNL     1     -35.915  21.140   2.376  0.00  0.00    +0.005 C 
ATOM      2  C   UNL     1     -38.159  21.946   2.088  0.00  0.00    +0.180 C 
ATOM      3  C   UNL     1     -37.174  20.997   1.814  0.00  0.00    +0.027 C 
ATOM      4  C   UNL     1     -37.872  23.027   2.922  0.00  0.00    +0.194 C 
ATOM      5  C   UNL     1     -35.617  22.210   3.207  0.00  0.00    +0.040 C 
ATOM      6  C   UNL     1     -36.601  23.158   3.481  0.00  0.00    +0.169 C 
ENDROOT
BRANCH   2   9
ATOM      7  O   UNL     1     -39.680  22.326   0.397  0.00  0.00    -0.126 OA
ATOM      8  O   UNL     1     -40.318  21.137   2.129  0.00  0.00    -0.126 OA
ATOM      9  N   UNL     1     -39.449  21.795   1.509  0.00  0.00    +0.061 N 
ENDBRANCH   2   9
BRANCH   4  10
ATOM     10  O   UNL     1     -38.827  23.962   3.197  0.00  0.00    -0.467 OA
ATOM     11  C   UNL     1     -38.832  25.137   2.391  0.00  0.00    +0.253 C 
ENDBRANCH   4  10
BRANCH   6  12
ATOM     12  O   UNL     1     -36.307  24.210   4.297  0.00  0.00    -0.503 OA
ATOM     13  H   UNL     1     -35.420  24.497   4.389  0.00  0.00    +0.292 HD
ENDBRANCH   6  12
BRANCH   1  14
ATOM     14  C   UNL     1     -34.876  20.140   2.087  0.00  0.00    +0.006 C 
ATOM     15  C   UNL     1     -34.006  20.162   1.059  0.00  0.00    +0.069 C 
BRANCH  15  17
ATOM     16  O   UNL     1     -33.307  17.902   1.159  0.00  0.00    -0.291 OA
ATOM     17  C   UNL     1     -32.996  19.064   0.893  0.00  0.00    +0.176 C 
ATOM     18  C   UNL     1     -31.604  19.389   0.412  0.00  0.00    +0.077 C 
ENDBRANCH  15  17
BRANCH  15  20
ATOM     19  O   UNL     1     -33.507  22.355   0.278  0.00  0.00    -0.291 OA
ATOM     20  C   UNL     1     -34.062  21.279   0.063  0.00  0.00    +0.176 C 
ATOM     21  C   UNL     1     -34.846  21.041  -1.201  0.00  0.00    +0.077 C 
ENDBRANCH  15  20
ENDBRANCH   1  14
TORSDOF 6
ENDMDL
MODEL 6
REMARK VINA RESULT:      -5.1      1.329      1.580
REMARK  Name = 196743
REMARK  6 active torsions:
REMARK  status: ('A' for Active; 'I' for Inactive)
REMARK    1  A    between atoms: C_1  and  C_14
REMARK    2  A    between atoms: C_2  and  N_9
REMARK    3  A    between atoms: C_4  and  O_10
REMARK    4  A    between atoms: C_6  and  O_12
REMARK    5  A    between atoms: C_15  and  C_17
REMARK    6  A    between atoms: C_15  and  C_20
REMARK                            x       y       z     vdW  Elec       q    Type
REMARK                         _______ _______ _______ _____ _____    ______ ____
ROOT
ATOM      1  C   UNL     1     -34.565  26.172   4.338  0.00  0.00    +0.005 C 
ATOM      2  C   UNL     1     -35.709  24.071   4.549  0.00  0.00    +0.180 C 
ATOM      3  C   UNL     1     -34.564  24.845   4.739  0.00  0.00    +0.027 C 
ATOM      4  C   UNL     1     -36.842  24.633   3.961  0.00  0.00    +0.194 C 
ATOM      5  C   UNL     1     -35.685  26.743   3.751  0.00  0.00    +0.040 C 
ATOM      6  C   UNL     1     -36.829  25.969   3.562  0.00  0.00    +0.169 C 
ENDROOT
BRANCH   2   9
ATOM      7  O   UNL     1     -36.020  22.435   6.144  0.00  0.00    -0.126 OA
ATOM      8  O   UNL     1     -35.378  21.826   4.135  0.00  0.00    -0.126 OA
ATOM      9  N   UNL     1     -35.702  22.710   4.963  0.00  0.00    +0.061 N 
ENDBRANCH   2   9
BRANCH   4  10
ATOM     10  O   UNL     1     -37.966  23.885   3.770  0.00  0.00    -0.467 OA
ATOM     11  C   UNL     1     -38.101  23.230   2.511  0.00  0.00    +0.253 C 
ENDBRANCH   4  10
BRANCH   6  12
ATOM     12  O   UNL     1     -37.928  26.532   2.985  0.00  0.00    -0.503 OA
ATOM     13  H   UNL     1     -38.584  25.986   2.597  0.00  0.00    +0.292 HD
ENDBRANCH   6  12
BRANCH   1  14
ATOM     14  C   UNL     1     -33.358  26.989   4.536  0.00  0.00    +0.006 C 
ATOM     15  C   UNL     1     -32.517  27.422   3.579  0.00  0.00    +0.069 C 
BRANCH  15  17
ATOM     16  O   UNL     1     -30.515  27.838   4.773  0.00  0.00    -0.291 OA
ATOM     17  C   UNL     1     -31.319  28.253   3.937  0.00  0.00    +0.176 C 
ATOM     18  C   UNL     1     -31.112  29.595   3.280  0.00  0.00    +0.077 C 
ENDBRANCH  15  17
BRANCH  15  20
ATOM     19  O   UNL     1     -33.462  27.757   1.419  0.00  0.00    -0.291 OA
ATOM     20  C   UNL     1     -32.766  27.052   2.148  0.00  0.00    +0.176 C 
ATOM     21  C   UNL     1     -32.153  25.772   1.647  0.00  0.00    +0.077 C 
ENDBRANCH  15  20
ENDBRANCH   1  14
TORSDOF 6
ENDMDL
MODEL 7
REMARK VINA RESULT:      -5.1      4.457      6.557
REMARK  Name = 196743
REMARK  6 active torsions:
REMARK  status: ('A' for Active; 'I' for Inactive)
REMARK    1  A    between atoms: C_1  and  C_14
REMARK    2  A    between atoms: C_2  and  N_9
REMARK    3  A    between atoms: C_4  and  O_10
REMARK    4  A    between atoms: C_6  and  O_12
REMARK    5  A    between atoms: C_15  and  C_17
REMARK    6  A    between atoms: C_15  and  C_20
REMARK                            x       y       z     vdW  Elec       q    Type
REMARK                         _______ _______ _______ _____ _____    ______ ____
ROOT
ATOM      1  C   UNL     1     -35.503  20.472   2.437  0.00  0.00    +0.005 C 
ATOM      2  C   UNL     1     -34.397  19.128   0.782  0.00  0.00    +0.180 C 
ATOM      3  C   UNL     1     -34.338  19.915   1.933  0.00  0.00    +0.027 C 
ATOM      4  C   UNL     1     -35.621  18.908   0.150  0.00  0.00    +0.194 C 
ATOM      5  C   UNL     1     -36.726  20.263   1.817  0.00  0.00    +0.040 C 
ATOM      6  C   UNL     1     -36.785  19.476   0.668  0.00  0.00    +0.169 C 
ENDROOT
BRANCH   2   9
ATOM      7  O   UNL     1     -32.801  17.465   0.737  0.00  0.00    -0.126 OA
ATOM      8  O   UNL     1     -32.576  19.165  -0.633  0.00  0.00    -0.126 OA
ATOM      9  N   UNL     1     -33.199  18.558   0.270  0.00  0.00    +0.061 N 
ENDBRANCH   2   9
BRANCH   4  10
ATOM     10  O   UNL     1     -35.690  18.141  -0.976  0.00  0.00    -0.467 OA
ATOM     11  C   UNL     1     -35.950  16.751  -0.796  0.00  0.00    +0.253 C 
ENDBRANCH   4  10
BRANCH   6  12
ATOM     12  O   UNL     1     -37.987  19.270   0.059  0.00  0.00    -0.503 OA
ATOM     13  H   UNL     1     -38.065  18.626  -0.617  0.00  0.00    +0.292 HD
ENDBRANCH   6  12
BRANCH   1  14
ATOM     14  C   UNL     1     -35.442  21.303   3.650  0.00  0.00    +0.006 C 
ATOM     15  C   UNL     1     -35.435  22.648   3.700  0.00  0.00    +0.069 C 
BRANCH  15  17
ATOM     16  O   UNL     1     -35.955  22.892   5.998  0.00  0.00    -0.291 OA
ATOM     17  C   UNL     1     -35.369  23.360   5.020  0.00  0.00    +0.176 C 
ATOM     18  C   UNL     1     -34.594  24.649   5.141  0.00  0.00    +0.077 C 
ENDBRANCH  15  17
BRANCH  15  20
ATOM     19  O   UNL     1     -34.451  23.639   1.772  0.00  0.00    -0.291 OA
ATOM     20  C   UNL     1     -35.471  23.439   2.428  0.00  0.00    +0.176 C 
ATOM     21  C   UNL     1     -36.801  24.001   2.001  0.00  0.00    +0.077 C 
ENDBRANCH  15  20
ENDBRANCH   1  14
TORSDOF 6
ENDMDL
MODEL 8
REMARK VINA RESULT:      -5.1      3.079      5.435
REMARK  Name = 196743
REMARK  6 active torsions:
REMARK  status: ('A' for Active; 'I' for Inactive)
REMARK    1  A    between atoms: C_1  and  C_14
REMARK    2  A    between atoms: C_2  and  N_9
REMARK    3  A    between atoms: C_4  and  O_10
REMARK    4  A    between atoms: C_6  and  O_12
REMARK    5  A    between atoms: C_15  and  C_17
REMARK    6  A    between atoms: C_15  and  C_20
REMARK                            x       y       z     vdW  Elec       q    Type
REMARK                         _______ _______ _______ _____ _____    ______ ____
ROOT
ATOM      1  C   UNL     1     -35.643  22.762   2.036  0.00  0.00    +0.005 C 
ATOM      2  C   UNL     1     -37.773  22.036   1.197  0.00  0.00    +0.180 C 
ATOM      3  C   UNL     1     -36.959  23.047   1.710  0.00  0.00    +0.027 C 
ATOM      4  C   UNL     1     -37.258  20.752   1.015  0.00  0.00    +0.194 C 
ATOM      5  C   UNL     1     -35.119  21.489   1.861  0.00  0.00    +0.040 C 
ATOM      6  C   UNL     1     -35.931  20.479   1.347  0.00  0.00    +0.169 C 
ENDROOT
BRANCH   2   9
ATOM      7  O   UNL     1     -39.377  22.796  -0.274  0.00  0.00    -0.126 OA
ATOM      8  O   UNL     1     -40.018  22.125   1.715  0.00  0.00    -0.126 OA
ATOM      9  N   UNL     1     -39.123  22.333   0.863  0.00  0.00    +0.061 N 
ENDBRANCH   2   9
BRANCH   4  10
ATOM     10  O   UNL     1     -38.044  19.756   0.514  0.00  0.00    -0.467 OA
ATOM     11  C   UNL     1     -38.016  19.559  -0.898  0.00  0.00    +0.253 C 
ENDBRANCH   4  10
BRANCH   6  12
ATOM     12  O   UNL     1     -35.416  19.229   1.176  0.00  0.00    -0.503 OA
ATOM     13  H   UNL     1     -35.124  18.738   1.919  0.00  0.00    +0.292 HD
ENDBRANCH   6  12
BRANCH   1  14
ATOM     14  C   UNL     1     -34.785  23.827   2.578  0.00  0.00    +0.006 C 
ATOM     15  C   UNL     1     -34.720  24.226   3.862  0.00  0.00    +0.069 C 
BRANCH  15  17
ATOM     16  O   UNL     1     -32.840  25.632   3.542  0.00  0.00    -0.291 OA
ATOM     17  C   UNL     1     -33.790  25.334   4.268  0.00  0.00    +0.176 C 
ATOM     18  C   UNL     1     -34.018  26.068   5.566  0.00  0.00    +0.077 C 
ENDBRANCH  15  17
BRANCH  15  20
ATOM     19  O   UNL     1     -36.751  23.956   5.074  0.00  0.00    -0.291 OA
ATOM     20  C   UNL     1     -35.596  23.577   4.889  0.00  0.00    +0.176 C 
ATOM     21  C   UNL     1     -34.999  22.458   5.701  0.00  0.00    +0.077 C 
ENDBRANCH  15  20
ENDBRANCH   1  14
TORSDOF 6
ENDMDL
MODEL 9
REMARK VINA RESULT:      -5.0      3.042      6.521
REMARK  Name = 196743
REMARK  6 active torsions:
REMARK  status: ('A' for Active; 'I' for Inactive)
REMARK    1  A    between atoms: C_1  and  C_14
REMARK    2  A    between atoms: C_2  and  N_9
REMARK    3  A    between atoms: C_4  and  O_10
REMARK    4  A    between atoms: C_6  and  O_12
REMARK    5  A    between atoms: C_15  and  C_17
REMARK    6  A    between atoms: C_15  and  C_20
REMARK                            x       y       z     vdW  Elec       q    Type
REMARK                         _______ _______ _______ _____ _____    ______ ____
ROOT
ATOM      1  C   UNL     1     -34.721  25.023   2.462  0.00  0.00    +0.005 C 
ATOM      2  C   UNL     1     -35.460  27.257   1.982  0.00  0.00    +0.180 C 
ATOM      3  C   UNL     1     -35.430  25.901   1.657  0.00  0.00    +0.027 C 
ATOM      4  C   UNL     1     -34.782  27.719   3.110  0.00  0.00    +0.194 C 
ATOM      5  C   UNL     1     -34.041  25.469   3.586  0.00  0.00    +0.040 C 
ATOM      6  C   UNL     1     -34.072  26.825   3.912  0.00  0.00    +0.169 C 
ENDROOT
BRANCH   2   9
ATOM      7  O   UNL     1     -37.427  28.265   1.323  0.00  0.00    -0.126 OA
ATOM      8  O   UNL     1     -35.574  28.805   0.277  0.00  0.00    -0.126 OA
ATOM      9  N   UNL     1     -36.190  28.154   1.154  0.00  0.00    +0.061 N 
ENDBRANCH   2   9
BRANCH   4  10
ATOM     10  O   UNL     1     -34.804  29.043   3.438  0.00  0.00    -0.467 OA
ATOM     11  C   UNL     1     -33.691  29.830   3.022  0.00  0.00    +0.253 C 
ENDBRANCH   4  10
BRANCH   6  12
ATOM     12  O   UNL     1     -33.404  27.262   5.016  0.00  0.00    -0.503 OA
ATOM     13  H   UNL     1     -33.662  28.061   5.433  0.00  0.00    +0.292 HD
ENDBRANCH   6  12
BRANCH   1  14
ATOM     14  C   UNL     1     -34.688  23.593   2.119  0.00  0.00    +0.006 C 
ATOM     15  C   UNL     1     -35.350  22.603   2.747  0.00  0.00    +0.069 C 
BRANCH  15  17
ATOM     16  O   UNL     1     -35.771  20.278   2.905  0.00  0.00    -0.291 OA
ATOM     17  C   UNL     1     -35.216  21.182   2.279  0.00  0.00    +0.176 C 
ATOM     18  C   UNL     1     -34.394  20.869   1.054  0.00  0.00    +0.077 C 
ENDBRANCH  15  17
BRANCH  15  20
ATOM     19  O   UNL     1     -37.353  23.343   3.799  0.00  0.00    -0.291 OA
ATOM     20  C   UNL     1     -36.207  22.918   3.934  0.00  0.00    +0.176 C 
ATOM     21  C   UNL     1     -35.601  22.719   5.298  0.00  0.00    +0.077 C 
ENDBRANCH  15  20
ENDBRANCH   1  14
TORSDOF 6
ENDMDL
