MODEL 1
REMARK VINA RESULT:      -6.4      0.000      0.000
REMARK  Name = 21606566
REMARK  3 active torsions:
REMARK  status: ('A' for Active; 'I' for Inactive)
REMARK    1  A    between atoms: C_17  and  O_26
REMARK    2  A    between atoms: C_19  and  C_24
REMARK    3  A    between atoms: O_26  and  C_28
REMARK                            x       y       z     vdW  Elec       q    Type
REMARK                         _______ _______ _______ _____ _____    ______ ____
ROOT
ATOM      1  O   UNL     1     -40.437  21.221   1.234  0.00  0.00    -0.242 OA
ATOM      2  O   UNL     1     -37.568  22.026   0.826  0.00  0.00    -0.449 OA
ATOM      3  O   UNL     1     -37.972  24.228   2.413  0.00  0.00    -0.446 OA
ATOM      4  O   UNL     1     -36.124  21.172  -0.770  0.00  0.00    -0.245 OA
ATOM      5  O   UNL     1     -37.062  23.885   4.500  0.00  0.00    -0.246 OA
ATOM      6  N   UNL     1     -40.939  22.813  -0.604  0.00  0.00    +0.411 N 
ATOM      7  C   UNL     1     -40.019  22.316   0.626  0.00  0.00    +0.134 C 
ATOM      8  C   UNL     1     -39.941  23.228  -1.722  0.00  0.00    -0.066 C 
ATOM      9  C   UNL     1     -38.672  22.059  -0.090  0.00  0.00    +0.178 C 
ATOM     10  C   UNL     1     -38.573  23.214  -1.074  0.00  0.00    +0.022 C 
ATOM     11  C   UNL     1     -41.684  24.032  -0.017  0.00  0.00    -0.069 C 
ATOM     12  C   UNL     1     -40.078  23.483   1.612  0.00  0.00    +0.056 C 
ATOM     13  C   UNL     1     -41.924  21.795  -1.156  0.00  0.00    -0.092 C 
ATOM     14  C   UNL     1     -41.000  24.388   1.254  0.00  0.00    -0.018 C 
ATOM     15  C   UNL     1     -39.210  23.625   2.822  0.00  0.00    +0.209 C 
ATOM     16  C   UNL     1     -36.382  21.556   0.360  0.00  0.00    +0.341 C 
ATOM     17  C   UNL     1     -35.726  24.920   2.739  0.00  0.00    +0.227 C 
ATOM     18  C   UNL     1     -36.978  24.284   3.345  0.00  0.00    +0.354 C 
ATOM     19  C   UNL     1     -35.419  21.498   1.483  0.00  0.00    +0.072 C 
ATOM     20  C   UNL     1     -35.165  24.062   1.566  0.00  0.00    +0.069 C 
ATOM     21  C   UNL     1     -34.900  22.629   1.997  0.00  0.00    -0.016 C 
ATOM     22  C   UNL     1     -36.053  26.356   2.311  0.00  0.00    +0.056 C 
ATOM     23  C   UNL     1     -33.859  24.627   0.989  0.00  0.00    +0.009 C 
ENDROOT
BRANCH  19  24
ATOM     24  C   UNL     1     -35.048  20.196   1.973  0.00  0.00    +0.006 C 
ATOM     25  C   UNL     1     -34.014  19.500   1.500  0.00  0.00    +0.000 C 
ENDBRANCH  19  24
BRANCH  17  26
ATOM     26  O   UNL     1     -34.750  24.991   3.777  0.00  0.00    -0.444 OA
BRANCH  26  28
ATOM     27  O   UNL     1     -35.457  26.625   5.248  0.00  0.00    -0.250 OA
ATOM     28  C   UNL     1     -34.665  26.190   4.425  0.00  0.00    +0.318 C 
ATOM     29  C   UNL     1     -33.434  26.919   3.975  0.00  0.00    +0.121 C 
ENDBRANCH  26  28
ENDBRANCH  17  26
TORSDOF 3
ENDMDL
MODEL 2
REMARK VINA RESULT:      -6.3      2.497      5.331
REMARK  Name = 21606566
REMARK  3 active torsions:
REMARK  status: ('A' for Active; 'I' for Inactive)
REMARK    1  A    between atoms: C_17  and  O_26
REMARK    2  A    between atoms: C_19  and  C_24
REMARK    3  A    between atoms: O_26  and  C_28
REMARK                            x       y       z     vdW  Elec       q    Type
REMARK                         _______ _______ _______ _____ _____    ______ ____
ROOT
ATOM      1  O   UNL     1     -35.578  20.454   3.249  0.00  0.00    -0.242 OA
ATOM      2  O   UNL     1     -35.627  23.431   2.824  0.00  0.00    -0.449 OA
ATOM      3  O   UNL     1     -38.137  23.223   1.734  0.00  0.00    -0.446 OA
ATOM      4  O   UNL     1     -33.808  24.858   2.944  0.00  0.00    -0.245 OA
ATOM      5  O   UNL     1     -39.726  23.911   3.253  0.00  0.00    -0.246 OA
ATOM      6  N   UNL     1     -34.854  20.327   0.877  0.00  0.00    +0.411 N 
ATOM      7  C   UNL     1     -35.631  21.069   2.082  0.00  0.00    +0.134 C 
ATOM      8  C   UNL     1     -34.111  21.456   0.109  0.00  0.00    -0.066 C 
ATOM      9  C   UNL     1     -34.875  22.417   2.143  0.00  0.00    +0.178 C 
ATOM     10  C   UNL     1     -34.643  22.755   0.679  0.00  0.00    +0.022 C 
ATOM     11  C   UNL     1     -36.000  19.719   0.038  0.00  0.00    -0.069 C 
ATOM     12  C   UNL     1     -37.083  21.101   1.604  0.00  0.00    +0.056 C 
ATOM     13  C   UNL     1     -33.858  19.252   1.286  0.00  0.00    -0.092 C 
ATOM     14  C   UNL     1     -37.262  20.346   0.510  0.00  0.00    -0.018 C 
ATOM     15  C   UNL     1     -38.181  21.884   2.254  0.00  0.00    +0.209 C 
ATOM     16  C   UNL     1     -34.973  24.571   3.168  0.00  0.00    +0.341 C 
ATOM     17  C   UNL     1     -38.758  25.512   1.686  0.00  0.00    +0.227 C 
ATOM     18  C   UNL     1     -38.951  24.140   2.332  0.00  0.00    +0.354 C 
ATOM     19  C   UNL     1     -35.890  25.427   3.954  0.00  0.00    +0.072 C 
ATOM     20  C   UNL     1     -37.304  26.035   1.887  0.00  0.00    +0.069 C 
ATOM     21  C   UNL     1     -36.916  26.060   3.356  0.00  0.00    -0.016 C 
ATOM     22  C   UNL     1     -39.150  25.427   0.205  0.00  0.00    +0.056 C 
ATOM     23  C   UNL     1     -37.098  27.448   1.323  0.00  0.00    +0.009 C 
ENDROOT
BRANCH  19  24
ATOM     24  C   UNL     1     -35.620  25.570   5.362  0.00  0.00    +0.006 C 
ATOM     25  C   UNL     1     -34.477  26.057   5.845  0.00  0.00    +0.000 C 
ENDBRANCH  19  24
BRANCH  17  26
ATOM     26  O   UNL     1     -39.670  26.406   2.323  0.00  0.00    -0.444 OA
BRANCH  26  28
ATOM     27  O   UNL     1     -40.561  27.795   0.707  0.00  0.00    -0.250 OA
ATOM     28  C   UNL     1     -40.667  26.895   1.528  0.00  0.00    +0.318 C 
ATOM     29  C   UNL     1     -41.942  26.158   1.810  0.00  0.00    +0.121 C 
ENDBRANCH  26  28
ENDBRANCH  17  26
TORSDOF 3
ENDMDL
MODEL 3
REMARK VINA RESULT:      -6.1      2.831      7.038
REMARK  Name = 21606566
REMARK  3 active torsions:
REMARK  status: ('A' for Active; 'I' for Inactive)
REMARK    1  A    between atoms: C_17  and  O_26
REMARK    2  A    between atoms: C_19  and  C_24
REMARK    3  A    between atoms: O_26  and  C_28
REMARK                            x       y       z     vdW  Elec       q    Type
REMARK                         _______ _______ _______ _____ _____    ______ ____
ROOT
ATOM      1  O   UNL     1     -31.826  26.545   3.278  0.00  0.00    -0.242 OA
ATOM      2  O   UNL     1     -34.602  25.522   3.816  0.00  0.00    -0.449 OA
ATOM      3  O   UNL     1     -34.740  24.575   1.244  0.00  0.00    -0.446 OA
ATOM      4  O   UNL     1     -35.937  26.079   5.625  0.00  0.00    -0.245 OA
ATOM      5  O   UNL     1     -34.437  22.292   1.217  0.00  0.00    -0.246 OA
ATOM      6  N   UNL     1     -32.959  28.526   2.301  0.00  0.00    +0.411 N 
ATOM      7  C   UNL     1     -32.932  26.959   2.688  0.00  0.00    +0.134 C 
ATOM      8  C   UNL     1     -34.383  29.021   2.686  0.00  0.00    -0.066 C 
ATOM      9  C   UNL     1     -34.133  26.868   3.659  0.00  0.00    +0.178 C 
ATOM     10  C   UNL     1     -35.173  27.772   3.016  0.00  0.00    +0.022 C 
ATOM     11  C   UNL     1     -32.749  28.516   0.770  0.00  0.00    -0.069 C 
ATOM     12  C   UNL     1     -33.067  26.255   1.337  0.00  0.00    +0.056 C 
ATOM     13  C   UNL     1     -31.918  29.401   2.981  0.00  0.00    -0.092 C 
ATOM     14  C   UNL     1     -32.944  27.115   0.315  0.00  0.00    -0.018 C 
ATOM     15  C   UNL     1     -33.323  24.792   1.157  0.00  0.00    +0.209 C 
ATOM     16  C   UNL     1     -35.474  25.277   4.829  0.00  0.00    +0.341 C 
ATOM     17  C   UNL     1     -36.685  23.226   1.404  0.00  0.00    +0.227 C 
ATOM     18  C   UNL     1     -35.162  23.278   1.277  0.00  0.00    +0.354 C 
ATOM     19  C   UNL     1     -35.740  23.821   4.887  0.00  0.00    +0.072 C 
ATOM     20  C   UNL     1     -37.166  23.866   2.740  0.00  0.00    +0.069 C 
ATOM     21  C   UNL     1     -36.492  23.226   3.943  0.00  0.00    -0.016 C 
ATOM     22  C   UNL     1     -37.312  23.895   0.175  0.00  0.00    +0.056 C 
ATOM     23  C   UNL     1     -38.684  23.755   2.940  0.00  0.00    +0.009 C 
ENDROOT
BRANCH  19  24
ATOM     24  C   UNL     1     -35.188  23.090   5.998  0.00  0.00    +0.006 C 
ATOM     25  C   UNL     1     -35.187  21.759   6.073  0.00  0.00    +0.000 C 
ENDBRANCH  19  24
BRANCH  17  26
ATOM     26  O   UNL     1     -37.058  21.849   1.383  0.00  0.00    -0.444 OA
BRANCH  26  28
ATOM     27  O   UNL     1     -36.961  21.262  -0.849  0.00  0.00    -0.250 OA
ATOM     28  C   UNL     1     -37.572  21.396   0.202  0.00  0.00    +0.318 C 
ATOM     29  C   UNL     1     -39.027  21.077   0.375  0.00  0.00    +0.121 C 
ENDBRANCH  26  28
ENDBRANCH  17  26
TORSDOF 3
ENDMDL
MODEL 4
REMARK VINA RESULT:      -5.8      2.873      7.112
REMARK  Name = 21606566
REMARK  3 active torsions:
REMARK  status: ('A' for Active; 'I' for Inactive)
REMARK    1  A    between atoms: C_17  and  O_26
REMARK    2  A    between atoms: C_19  and  C_24
REMARK    3  A    between atoms: O_26  and  C_28
REMARK                            x       y       z     vdW  Elec       q    Type
REMARK                         _______ _______ _______ _____ _____    ______ ____
ROOT
ATOM      1  O   UNL     1     -31.413  25.711   2.696  0.00  0.00    -0.242 OA
ATOM      2  O   UNL     1     -34.231  25.159   3.590  0.00  0.00    -0.449 OA
ATOM      3  O   UNL     1     -35.006  24.929   0.967  0.00  0.00    -0.446 OA
ATOM      4  O   UNL     1     -35.082  25.503   5.716  0.00  0.00    -0.245 OA
ATOM      5  O   UNL     1     -35.275  22.711   0.407  0.00  0.00    -0.246 OA
ATOM      6  N   UNL     1     -32.173  28.057   2.412  0.00  0.00    +0.411 N 
ATOM      7  C   UNL     1     -32.465  26.470   2.453  0.00  0.00    +0.134 C 
ATOM      8  C   UNL     1     -33.353  28.714   3.184  0.00  0.00    -0.066 C 
ATOM      9  C   UNL     1     -33.480  26.381   3.617  0.00  0.00    +0.178 C 
ATOM     10  C   UNL     1     -34.359  27.605   3.410  0.00  0.00    +0.022 C 
ATOM     11  C   UNL     1     -32.220  28.387   0.903  0.00  0.00    -0.069 C 
ATOM     12  C   UNL     1     -32.982  26.165   1.047  0.00  0.00    +0.056 C 
ATOM     13  C   UNL     1     -30.855  28.511   3.020  0.00  0.00    -0.092 C 
ATOM     14  C   UNL     1     -32.820  27.210   0.221  0.00  0.00    -0.018 C 
ATOM     15  C   UNL     1     -33.611  24.874   0.628  0.00  0.00    +0.209 C 
ATOM     16  C   UNL     1     -34.961  24.848   4.692  0.00  0.00    +0.341 C 
ATOM     17  C   UNL     1     -37.168  23.997   1.256  0.00  0.00    +0.227 C 
ATOM     18  C   UNL     1     -35.719  23.775   0.822  0.00  0.00    +0.354 C 
ATOM     19  C   UNL     1     -35.560  23.507   4.504  0.00  0.00    +0.072 C 
ATOM     20  C   UNL     1     -37.258  24.367   2.767  0.00  0.00    +0.069 C 
ATOM     21  C   UNL     1     -36.576  23.327   3.640  0.00  0.00    -0.016 C 
ATOM     22  C   UNL     1     -37.803  25.061   0.353  0.00  0.00    +0.056 C 
ATOM     23  C   UNL     1     -38.706  24.514   3.257  0.00  0.00    +0.009 C 
ENDROOT
BRANCH  19  24
ATOM     24  C   UNL     1     -35.031  22.428   5.298  0.00  0.00    +0.006 C 
ATOM     25  C   UNL     1     -35.466  22.136   6.524  0.00  0.00    +0.000 C 
ENDBRANCH  19  24
BRANCH  17  26
ATOM     26  O   UNL     1     -37.863  22.771   1.032  0.00  0.00    -0.444 OA
BRANCH  26  28
ATOM     27  O   UNL     1     -38.215  22.713  -1.250  0.00  0.00    -0.250 OA
ATOM     28  C   UNL     1     -38.627  22.725  -0.099  0.00  0.00    +0.318 C 
ATOM     29  C   UNL     1     -40.079  22.691   0.275  0.00  0.00    +0.121 C 
ENDBRANCH  26  28
ENDBRANCH  17  26
TORSDOF 3
ENDMDL
MODEL 5
REMARK VINA RESULT:      -5.4      1.973      5.043
REMARK  Name = 21606566
REMARK  3 active torsions:
REMARK  status: ('A' for Active; 'I' for Inactive)
REMARK    1  A    between atoms: C_17  and  O_26
REMARK    2  A    between atoms: C_19  and  C_24
REMARK    3  A    between atoms: O_26  and  C_28
REMARK                            x       y       z     vdW  Elec       q    Type
REMARK                         _______ _______ _______ _____ _____    ______ ____
ROOT
ATOM      1  O   UNL     1     -38.843  27.233   0.892  0.00  0.00    -0.242 OA
ATOM      2  O   UNL     1     -37.267  25.385   2.665  0.00  0.00    -0.449 OA
ATOM      3  O   UNL     1     -37.347  23.459   0.711  0.00  0.00    -0.446 OA
ATOM      4  O   UNL     1     -36.885  25.664   4.932  0.00  0.00    -0.245 OA
ATOM      5  O   UNL     1     -35.321  23.342  -0.377  0.00  0.00    -0.246 OA
ATOM      6  N   UNL     1     -40.840  26.033   1.750  0.00  0.00    +0.411 N 
ATOM      7  C   UNL     1     -39.268  26.085   1.386  0.00  0.00    +0.134 C 
ATOM      8  C   UNL     1     -40.922  25.302   3.120  0.00  0.00    -0.066 C 
ATOM      9  C   UNL     1     -38.630  25.820   2.770  0.00  0.00    +0.178 C 
ATOM     10  C   UNL     1     -39.532  24.756   3.374  0.00  0.00    +0.022 C 
ATOM     11  C   UNL     1     -41.439  25.182   0.608  0.00  0.00    -0.069 C 
ATOM     12  C   UNL     1     -39.111  24.998   0.322  0.00  0.00    +0.056 C 
ATOM     13  C   UNL     1     -41.549  27.375   1.849  0.00  0.00    -0.092 C 
ATOM     14  C   UNL     1     -40.299  24.540  -0.098  0.00  0.00    -0.018 C 
ATOM     15  C   UNL     1     -37.802  24.483  -0.188  0.00  0.00    +0.209 C 
ATOM     16  C   UNL     1     -36.525  25.370   3.803  0.00  0.00    +0.341 C 
ATOM     17  C   UNL     1     -35.747  21.933   1.570  0.00  0.00    +0.227 C 
ATOM     18  C   UNL     1     -36.083  22.985   0.513  0.00  0.00    +0.354 C 
ATOM     19  C   UNL     1     -35.132  25.005   3.458  0.00  0.00    +0.072 C 
ATOM     20  C   UNL     1     -35.754  22.545   3.003  0.00  0.00    +0.069 C 
ATOM     21  C   UNL     1     -34.824  23.743   3.104  0.00  0.00    -0.016 C 
ATOM     22  C   UNL     1     -36.720  20.756   1.431  0.00  0.00    +0.056 C 
ATOM     23  C   UNL     1     -35.337  21.536   4.082  0.00  0.00    +0.009 C 
ENDROOT
BRANCH  19  24
ATOM     24  C   UNL     1     -34.134  26.039   3.545  0.00  0.00    +0.006 C 
ATOM     25  C   UNL     1     -33.706  26.553   4.698  0.00  0.00    +0.000 C 
ENDBRANCH  19  24
BRANCH  17  26
ATOM     26  O   UNL     1     -34.438  21.447   1.274  0.00  0.00    -0.444 OA
BRANCH  26  28
ATOM     27  O   UNL     1     -34.808  20.018  -0.503  0.00  0.00    -0.250 OA
ATOM     28  C   UNL     1     -34.388  20.248   0.623  0.00  0.00    +0.318 C 
ATOM     29  C   UNL     1     -33.733  19.225   1.501  0.00  0.00    +0.121 C 
ENDBRANCH  26  28
ENDBRANCH  17  26
TORSDOF 3
ENDMDL
MODEL 6
REMARK VINA RESULT:      -5.4      2.659      5.439
REMARK  Name = 21606566
REMARK  3 active torsions:
REMARK  status: ('A' for Active; 'I' for Inactive)
REMARK    1  A    between atoms: C_17  and  O_26
REMARK    2  A    between atoms: C_19  and  C_24
REMARK    3  A    between atoms: O_26  and  C_28
REMARK                            x       y       z     vdW  Elec       q    Type
REMARK                         _______ _______ _______ _____ _____    ______ ____
ROOT
ATOM      1  O   UNL     1     -34.797  20.727  -1.792  0.00  0.00    -0.242 OA
ATOM      2  O   UNL     1     -35.706  21.241   1.028  0.00  0.00    -0.449 OA
ATOM      3  O   UNL     1     -34.217  23.545   1.077  0.00  0.00    -0.446 OA
ATOM      4  O   UNL     1     -36.749  19.717   2.426  0.00  0.00    -0.245 OA
ATOM      5  O   UNL     1     -35.583  25.383   0.828  0.00  0.00    -0.246 OA
ATOM      6  N   UNL     1     -32.771  19.740  -0.749  0.00  0.00    +0.411 N 
ATOM      7  C   UNL     1     -34.024  20.759  -0.722  0.00  0.00    +0.134 C 
ATOM      8  C   UNL     1     -32.712  19.123   0.678  0.00  0.00    -0.066 C 
ATOM      9  C   UNL     1     -34.795  20.257   0.521  0.00  0.00    +0.178 C 
ATOM     10  C   UNL     1     -33.688  19.929   1.510  0.00  0.00    +0.022 C 
ATOM     11  C   UNL     1     -31.567  20.667  -1.024  0.00  0.00    -0.069 C 
ATOM     12  C   UNL     1     -33.363  22.135  -0.629  0.00  0.00    +0.056 C 
ATOM     13  C   UNL     1     -32.838  18.625  -1.781  0.00  0.00    -0.092 C 
ATOM     14  C   UNL     1     -32.037  22.062  -0.816  0.00  0.00    -0.018 C 
ATOM     15  C   UNL     1     -34.087  23.414  -0.347  0.00  0.00    +0.209 C 
ATOM     16  C   UNL     1     -36.619  20.833   1.948  0.00  0.00    +0.341 C 
ATOM     17  C   UNL     1     -35.061  24.540   3.059  0.00  0.00    +0.227 C 
ATOM     18  C   UNL     1     -35.003  24.564   1.531  0.00  0.00    +0.354 C 
ATOM     19  C   UNL     1     -37.527  21.963   2.251  0.00  0.00    +0.072 C 
ATOM     20  C   UNL     1     -35.719  23.228   3.581  0.00  0.00    +0.069 C 
ATOM     21  C   UNL     1     -37.096  23.012   2.975  0.00  0.00    -0.016 C 
ATOM     22  C   UNL     1     -33.648  24.750   3.616  0.00  0.00    +0.056 C 
ATOM     23  C   UNL     1     -35.871  23.208   5.109  0.00  0.00    +0.009 C 
ENDROOT
BRANCH  19  24
ATOM     24  C   UNL     1     -38.880  21.875   1.765  0.00  0.00    +0.006 C 
ATOM     25  C   UNL     1     -39.765  22.866   1.872  0.00  0.00    +0.000 C 
ENDBRANCH  19  24
BRANCH  17  26
ATOM     26  O   UNL     1     -35.854  25.655   3.463  0.00  0.00    -0.444 OA
BRANCH  26  28
ATOM     27  O   UNL     1     -34.934  26.625   5.347  0.00  0.00    -0.250 OA
ATOM     28  C   UNL     1     -35.191  26.631   4.151  0.00  0.00    +0.318 C 
ATOM     29  C   UNL     1     -34.813  27.739   3.215  0.00  0.00    +0.121 C 
ENDBRANCH  26  28
ENDBRANCH  17  26
TORSDOF 3
ENDMDL
MODEL 7
REMARK VINA RESULT:      -5.3      2.673      5.210
REMARK  Name = 21606566
REMARK  3 active torsions:
REMARK  status: ('A' for Active; 'I' for Inactive)
REMARK    1  A    between atoms: C_17  and  O_26
REMARK    2  A    between atoms: C_19  and  C_24
REMARK    3  A    between atoms: O_26  and  C_28
REMARK                            x       y       z     vdW  Elec       q    Type
REMARK                         _______ _______ _______ _____ _____    ______ ____
ROOT
ATOM      1  O   UNL     1     -36.170  21.783  -0.897  0.00  0.00    -0.242 OA
ATOM      2  O   UNL     1     -36.638  23.376   1.611  0.00  0.00    -0.449 OA
ATOM      3  O   UNL     1     -34.246  24.664   1.226  0.00  0.00    -0.446 OA
ATOM      4  O   UNL     1     -38.222  22.926   3.238  0.00  0.00    -0.245 OA
ATOM      5  O   UNL     1     -34.605  26.784   0.402  0.00  0.00    -0.246 OA
ATOM      6  N   UNL     1     -34.803  20.291   0.542  0.00  0.00    +0.411 N 
ATOM      7  C   UNL     1     -35.435  21.737   0.199  0.00  0.00    +0.134 C 
ATOM      8  C   UNL     1     -34.989  20.114   2.076  0.00  0.00    -0.066 C 
ATOM      9  C   UNL     1     -36.308  21.989   1.450  0.00  0.00    +0.178 C 
ATOM     10  C   UNL     1     -35.448  21.464   2.589  0.00  0.00    +0.022 C 
ATOM     11  C   UNL     1     -33.316  20.455   0.159  0.00  0.00    -0.069 C 
ATOM     12  C   UNL     1     -34.206  22.627   0.009  0.00  0.00    +0.056 C 
ATOM     13  C   UNL     1     -35.418  19.103  -0.182  0.00  0.00    -0.092 C 
ATOM     14  C   UNL     1     -33.074  21.909  -0.030  0.00  0.00    -0.018 C 
ATOM     15  C   UNL     1     -34.240  24.119  -0.103  0.00  0.00    +0.209 C 
ATOM     16  C   UNL     1     -37.603  23.689   2.513  0.00  0.00    +0.341 C 
ATOM     17  C   UNL     1     -34.460  26.416   2.811  0.00  0.00    +0.227 C 
ATOM     18  C   UNL     1     -34.450  26.008   1.337  0.00  0.00    +0.354 C 
ATOM     19  C   UNL     1     -37.869  25.144   2.440  0.00  0.00    +0.072 C 
ATOM     20  C   UNL     1     -35.635  25.740   3.579  0.00  0.00    +0.069 C 
ATOM     21  C   UNL     1     -36.974  26.027   2.919  0.00  0.00    -0.016 C 
ATOM     22  C   UNL     1     -33.094  26.093   3.428  0.00  0.00    +0.056 C 
ATOM     23  C   UNL     1     -35.727  26.194   5.043  0.00  0.00    +0.009 C 
ENDROOT
BRANCH  19  24
ATOM     24  C   UNL     1     -39.123  25.561   1.867  0.00  0.00    +0.006 C 
ATOM     25  C   UNL     1     -40.176  25.932   2.595  0.00  0.00    +0.000 C 
ENDBRANCH  19  24
BRANCH  17  26
ATOM     26  O   UNL     1     -34.628  27.833   2.851  0.00  0.00    -0.444 OA
BRANCH  26  28
ATOM     27  O   UNL     1     -33.217  28.638   4.493  0.00  0.00    -0.250 OA
ATOM     28  C   UNL     1     -33.559  28.539   3.323  0.00  0.00    +0.318 C 
ATOM     29  C   UNL     1     -32.844  29.195   2.179  0.00  0.00    +0.121 C 
ENDBRANCH  26  28
ENDBRANCH  17  26
TORSDOF 3
ENDMDL
MODEL 8
REMARK VINA RESULT:      -5.3      2.418      6.355
REMARK  Name = 21606566
REMARK  3 active torsions:
REMARK  status: ('A' for Active; 'I' for Inactive)
REMARK    1  A    between atoms: C_17  and  O_26
REMARK    2  A    between atoms: C_19  and  C_24
REMARK    3  A    between atoms: O_26  and  C_28
REMARK                            x       y       z     vdW  Elec       q    Type
REMARK                         _______ _______ _______ _____ _____    ______ ____
ROOT
ATOM      1  O   UNL     1     -33.016  25.316   2.591  0.00  0.00    -0.242 OA
ATOM      2  O   UNL     1     -35.280  23.347   2.792  0.00  0.00    -0.449 OA
ATOM      3  O   UNL     1     -36.582  24.654   0.760  0.00  0.00    -0.446 OA
ATOM      4  O   UNL     1     -35.646  21.859   4.528  0.00  0.00    -0.245 OA
ATOM      5  O   UNL     1     -36.382  23.470  -1.206  0.00  0.00    -0.246 OA
ATOM      6  N   UNL     1     -34.415  26.773   4.033  0.00  0.00    +0.411 N 
ATOM      7  C   UNL     1     -34.258  25.597   2.938  0.00  0.00    +0.134 C 
ATOM      8  C   UNL     1     -35.501  26.268   5.026  0.00  0.00    -0.066 C 
ATOM      9  C   UNL     1     -34.896  24.402   3.685  0.00  0.00    +0.178 C 
ATOM     10  C   UNL     1     -36.091  25.028   4.388  0.00  0.00    +0.022 C 
ATOM     11  C   UNL     1     -34.915  27.971   3.196  0.00  0.00    -0.069 C 
ATOM     12  C   UNL     1     -35.002  26.142   1.719  0.00  0.00    +0.056 C 
ATOM     13  C   UNL     1     -33.157  27.142   4.804  0.00  0.00    -0.092 C 
ATOM     14  C   UNL     1     -35.329  27.433   1.874  0.00  0.00    -0.018 C 
ATOM     15  C   UNL     1     -35.349  25.344   0.502  0.00  0.00    +0.209 C 
ATOM     16  C   UNL     1     -35.610  22.150   3.343  0.00  0.00    +0.341 C 
ATOM     17  C   UNL     1     -38.282  23.072   0.275  0.00  0.00    +0.227 C 
ATOM     18  C   UNL     1     -36.977  23.735  -0.168  0.00  0.00    +0.354 C 
ATOM     19  C   UNL     1     -35.859  21.178   2.255  0.00  0.00    +0.072 C 
ATOM     20  C   UNL     1     -38.095  22.283   1.605  0.00  0.00    +0.069 C 
ATOM     21  C   UNL     1     -36.970  21.266   1.500  0.00  0.00    -0.016 C 
ATOM     22  C   UNL     1     -39.377  24.141   0.376  0.00  0.00    +0.056 C 
ATOM     23  C   UNL     1     -39.365  21.534   2.034  0.00  0.00    +0.009 C 
ENDROOT
BRANCH  19  24
ATOM     24  C   UNL     1     -34.887  20.133   2.063  0.00  0.00    +0.006 C 
ATOM     25  C   UNL     1     -33.961  20.158   1.104  0.00  0.00    +0.000 C 
ENDBRANCH  19  24
BRANCH  17  26
ATOM     26  O   UNL     1     -38.660  22.164  -0.760  0.00  0.00    -0.444 OA
BRANCH  26  28
ATOM     27  O   UNL     1     -39.639  23.452  -2.409  0.00  0.00    -0.250 OA
ATOM     28  C   UNL     1     -39.690  22.576  -1.557  0.00  0.00    +0.318 C 
ATOM     29  C   UNL     1     -40.923  21.787  -1.235  0.00  0.00    +0.121 C 
ENDBRANCH  26  28
ENDBRANCH  17  26
TORSDOF 3
ENDMDL
MODEL 9
REMARK VINA RESULT:      -5.3      2.865      6.882
REMARK  Name = 21606566
REMARK  3 active torsions:
REMARK  status: ('A' for Active; 'I' for Inactive)
REMARK    1  A    between atoms: C_17  and  O_26
REMARK    2  A    between atoms: C_19  and  C_24
REMARK    3  A    between atoms: O_26  and  C_28
REMARK                            x       y       z     vdW  Elec       q    Type
REMARK                         _______ _______ _______ _____ _____    ______ ____
ROOT
ATOM      1  O   UNL     1     -31.619  25.540   1.503  0.00  0.00    -0.242 OA
ATOM      2  O   UNL     1     -34.383  26.240   2.460  0.00  0.00    -0.449 OA
ATOM      3  O   UNL     1     -35.410  24.181   0.964  0.00  0.00    -0.446 OA
ATOM      4  O   UNL     1     -35.002  28.197   3.531  0.00  0.00    -0.245 OA
ATOM      5  O   UNL     1     -35.930  22.393   2.319  0.00  0.00    -0.246 OA
ATOM      6  N   UNL     1     -32.185  26.892  -0.501  0.00  0.00    +0.411 N 
ATOM      7  C   UNL     1     -32.616  25.964   0.748  0.00  0.00    +0.134 C 
ATOM      8  C   UNL     1     -33.224  28.048  -0.534  0.00  0.00    -0.066 C 
ATOM      9  C   UNL     1     -33.524  26.932   1.542  0.00  0.00    +0.178 C 
ATOM     10  C   UNL     1     -34.303  27.654   0.454  0.00  0.00    +0.022 C 
ATOM     11  C   UNL     1     -32.339  25.947  -1.713  0.00  0.00    -0.069 C 
ATOM     12  C   UNL     1     -33.284  24.760   0.085  0.00  0.00    +0.056 C 
ATOM     13  C   UNL     1     -30.781  27.474  -0.449  0.00  0.00    -0.092 C 
ATOM     14  C   UNL     1     -33.103  24.761  -1.244  0.00  0.00    -0.018 C 
ATOM     15  C   UNL     1     -34.063  23.708   0.809  0.00  0.00    +0.209 C 
ATOM     16  C   UNL     1     -35.035  26.985   3.390  0.00  0.00    +0.341 C 
ATOM     17  C   UNL     1     -37.614  24.095   1.839  0.00  0.00    +0.227 C 
ATOM     18  C   UNL     1     -36.236  23.436   1.754  0.00  0.00    +0.354 C 
ATOM     19  C   UNL     1     -35.768  26.075   4.299  0.00  0.00    +0.072 C 
ATOM     20  C   UNL     1     -37.532  25.499   2.510  0.00  0.00    +0.069 C 
ATOM     21  C   UNL     1     -36.870  25.429   3.877  0.00  0.00    -0.016 C 
ATOM     22  C   UNL     1     -38.228  24.151   0.435  0.00  0.00    +0.056 C 
ATOM     23  C   UNL     1     -38.909  26.153   2.689  0.00  0.00    +0.009 C 
ENDROOT
BRANCH  19  24
ATOM     24  C   UNL     1     -35.270  25.939   5.644  0.00  0.00    +0.006 C 
ATOM     25  C   UNL     1     -33.988  26.096   5.972  0.00  0.00    +0.000 C 
ENDBRANCH  19  24
BRANCH  17  26
ATOM     26  O   UNL     1     -38.435  23.242   2.636  0.00  0.00    -0.444 OA
BRANCH  26  28
ATOM     27  O   UNL     1     -40.580  23.296   1.781  0.00  0.00    -0.250 OA
ATOM     28  C   UNL     1     -39.526  22.718   2.004  0.00  0.00    +0.318 C 
ATOM     29  C   UNL     1     -39.247  21.297   1.612  0.00  0.00    +0.121 C 
ENDBRANCH  26  28
ENDBRANCH  17  26
TORSDOF 3
ENDMDL
