MODEL 1
REMARK VINA RESULT:      -6.4      0.000      0.000
REMARK  Name = 57238181
REMARK  6 active torsions:
REMARK  status: ('A' for Active; 'I' for Inactive)
REMARK    1  A    between atoms: C_2  and  O_17
REMARK    2  A    between atoms: C_2  and  O_19
REMARK    3  A    between atoms: C_3  and  C_11
REMARK    4  A    between atoms: C_3  and  O_21
REMARK    5  A    between atoms: C_4  and  O_23
REMARK    6  A    between atoms: C_4  and  O_25
REMARK                            x       y       z     vdW  Elec       q    Type
REMARK                         _______ _______ _______ _____ _____    ______ ____
ROOT
ATOM      1  O   UNL     1     -33.022  26.661   5.171  0.00  0.00    -0.450 OA
ATOM      2  C   UNL     1     -34.330  27.338   3.180  0.00  0.00    +0.297 C 
ATOM      3  C   UNL     1     -33.477  26.230   3.871  0.00  0.00    +0.298 C 
ATOM      4  C   UNL     1     -33.512  28.644   3.040  0.00  0.00    +0.259 C 
ATOM      5  C   UNL     1     -32.791  28.950   4.330  0.00  0.00    +0.067 C 
ATOM      6  C   UNL     1     -32.586  27.952   5.293  0.00  0.00    +0.142 C 
ATOM      7  C   UNL     1     -32.279  30.235   4.576  0.00  0.00    +0.004 C 
ATOM      8  C   UNL     1     -31.922  28.248   6.488  0.00  0.00    +0.037 C 
ATOM      9  C   UNL     1     -31.608  30.524   5.764  0.00  0.00    +0.000 C 
ATOM     10  C   UNL     1     -31.434  29.532   6.723  0.00  0.00    +0.003 C 
ENDROOT
BRANCH   3  11
ATOM     11  C   UNL     1     -34.282  24.943   4.106  0.00  0.00    +0.046 C 
ATOM     12  C   UNL     1     -34.662  24.586   5.400  0.00  0.00    +0.002 C 
ATOM     13  C   UNL     1     -34.632  24.133   3.027  0.00  0.00    +0.002 C 
ATOM     14  C   UNL     1     -35.393  23.417   5.614  0.00  0.00    -0.000 C 
ATOM     15  C   UNL     1     -35.362  22.964   3.241  0.00  0.00    -0.000 C 
ATOM     16  C   UNL     1     -35.742  22.605   4.535  0.00  0.00    -0.000 C 
ENDBRANCH   3  11
BRANCH   2  17
ATOM     17  O   UNL     1     -35.488  27.597   3.985  0.00  0.00    -0.355 OA
ATOM     18  H   UNL     1     -36.085  28.197   3.510  0.00  0.00    +0.213 HD
ENDBRANCH   2  17
BRANCH   2  19
ATOM     19  O   UNL     1     -34.739  26.952   1.868  0.00  0.00    -0.355 OA
ATOM     20  H   UNL     1     -34.050  26.402   1.462  0.00  0.00    +0.213 HD
ENDBRANCH   2  19
BRANCH   3  21
ATOM     21  O   UNL     1     -32.333  25.877   3.083  0.00  0.00    -0.348 OA
ATOM     22  H   UNL     1     -31.778  25.255   3.579  0.00  0.00    +0.214 HD
ENDBRANCH   3  21
BRANCH   4  23
ATOM     23  O   UNL     1     -32.495  28.516   2.044  0.00  0.00    -0.357 OA
ATOM     24  H   UNL     1     -31.843  29.225   2.156  0.00  0.00    +0.213 HD
ENDBRANCH   4  23
BRANCH   4  25
ATOM     25  O   UNL     1     -34.375  29.727   2.696  0.00  0.00    -0.357 OA
ATOM     26  H   UNL     1     -34.970  29.915   3.439  0.00  0.00    +0.213 HD
ENDBRANCH   4  25
TORSDOF 6
ENDMDL
MODEL 2
REMARK VINA RESULT:      -6.2      3.893      6.028
REMARK  Name = 57238181
REMARK  6 active torsions:
REMARK  status: ('A' for Active; 'I' for Inactive)
REMARK    1  A    between atoms: C_2  and  O_17
REMARK    2  A    between atoms: C_2  and  O_19
REMARK    3  A    between atoms: C_3  and  C_11
REMARK    4  A    between atoms: C_3  and  O_21
REMARK    5  A    between atoms: C_4  and  O_23
REMARK    6  A    between atoms: C_4  and  O_25
REMARK                            x       y       z     vdW  Elec       q    Type
REMARK                         _______ _______ _______ _____ _____    ______ ____
ROOT
ATOM      1  O   UNL     1     -37.102  23.127   2.623  0.00  0.00    -0.450 OA
ATOM      2  C   UNL     1     -37.624  25.472   3.225  0.00  0.00    +0.297 C 
ATOM      3  C   UNL     1     -37.338  24.446   2.086  0.00  0.00    +0.298 C 
ATOM      4  C   UNL     1     -36.441  25.518   4.223  0.00  0.00    +0.259 C 
ATOM      5  C   UNL     1     -35.996  24.118   4.570  0.00  0.00    +0.067 C 
ATOM      6  C   UNL     1     -36.341  23.032   3.755  0.00  0.00    +0.142 C 
ATOM      7  C   UNL     1     -35.195  23.882   5.701  0.00  0.00    +0.004 C 
ATOM      8  C   UNL     1     -35.928  21.737   4.090  0.00  0.00    +0.037 C 
ATOM      9  C   UNL     1     -34.777  22.592   6.026  0.00  0.00    +0.000 C 
ATOM     10  C   UNL     1     -35.147  21.518   5.223  0.00  0.00    +0.003 C 
ENDROOT
BRANCH   3  11
ATOM     11  C   UNL     1     -38.525  24.308   1.122  0.00  0.00    +0.046 C 
ATOM     12  C   UNL     1     -39.453  23.282   1.301  0.00  0.00    +0.002 C 
ATOM     13  C   UNL     1     -38.675  25.207   0.067  0.00  0.00    +0.002 C 
ATOM     14  C   UNL     1     -40.531  23.156   0.425  0.00  0.00    -0.000 C 
ATOM     15  C   UNL     1     -39.752  25.082  -0.809  0.00  0.00    -0.000 C 
ATOM     16  C   UNL     1     -40.681  24.055  -0.631  0.00  0.00    -0.000 C 
ENDBRANCH   3  11
BRANCH   2  17
ATOM     17  O   UNL     1     -38.808  25.067   3.925  0.00  0.00    -0.355 OA
ATOM     18  H   UNL     1     -39.513  25.715   3.771  0.00  0.00    +0.213 HD
ENDBRANCH   2  17
BRANCH   2  19
ATOM     19  O   UNL     1     -37.799  26.795   2.717  0.00  0.00    -0.355 OA
ATOM     20  H   UNL     1     -38.149  27.367   3.419  0.00  0.00    +0.213 HD
ENDBRANCH   2  19
BRANCH   3  21
ATOM     21  O   UNL     1     -36.198  24.829   1.305  0.00  0.00    -0.348 OA
ATOM     22  H   UNL     1     -35.629  24.055   1.164  0.00  0.00    +0.214 HD
ENDBRANCH   3  21
BRANCH   4  23
ATOM     23  O   UNL     1     -35.301  26.160   3.649  0.00  0.00    -0.357 OA
ATOM     24  H   UNL     1     -35.335  26.076   2.683  0.00  0.00    +0.213 HD
ENDBRANCH   4  23
BRANCH   4  25
ATOM     25  O   UNL     1     -36.826  26.214   5.407  0.00  0.00    -0.357 OA
ATOM     26  H   UNL     1     -36.377  27.075   5.438  0.00  0.00    +0.213 HD
ENDBRANCH   4  25
TORSDOF 6
ENDMDL
MODEL 3
REMARK VINA RESULT:      -6.1      2.121      5.627
REMARK  Name = 57238181
REMARK  6 active torsions:
REMARK  status: ('A' for Active; 'I' for Inactive)
REMARK    1  A    between atoms: C_2  and  O_17
REMARK    2  A    between atoms: C_2  and  O_19
REMARK    3  A    between atoms: C_3  and  C_11
REMARK    4  A    between atoms: C_3  and  O_21
REMARK    5  A    between atoms: C_4  and  O_23
REMARK    6  A    between atoms: C_4  and  O_25
REMARK                            x       y       z     vdW  Elec       q    Type
REMARK                         _______ _______ _______ _____ _____    ______ ____
ROOT
ATOM      1  O   UNL     1     -33.996  25.319   3.208  0.00  0.00    -0.450 OA
ATOM      2  C   UNL     1     -35.941  26.308   4.379  0.00  0.00    +0.297 C 
ATOM      3  C   UNL     1     -34.523  25.672   4.505  0.00  0.00    +0.298 C 
ATOM      4  C   UNL     1     -36.912  25.333   3.670  0.00  0.00    +0.259 C 
ATOM      5  C   UNL     1     -36.251  24.731   2.453  0.00  0.00    +0.067 C 
ATOM      6  C   UNL     1     -34.857  24.753   2.308  0.00  0.00    +0.142 C 
ATOM      7  C   UNL     1     -37.020  24.105   1.457  0.00  0.00    +0.004 C 
ATOM      8  C   UNL     1     -34.255  24.198   1.174  0.00  0.00    +0.037 C 
ATOM      9  C   UNL     1     -36.415  23.543   0.333  0.00  0.00    +0.000 C 
ATOM     10  C   UNL     1     -35.033  23.594   0.189  0.00  0.00    +0.003 C 
ENDROOT
BRANCH   3  11
ATOM     11  C   UNL     1     -33.508  26.642   5.128  0.00  0.00    +0.046 C 
ATOM     12  C   UNL     1     -33.294  26.636   6.506  0.00  0.00    +0.002 C 
ATOM     13  C   UNL     1     -32.802  27.528   4.316  0.00  0.00    +0.002 C 
ATOM     14  C   UNL     1     -32.372  27.516   7.072  0.00  0.00    -0.000 C 
ATOM     15  C   UNL     1     -31.881  28.409   4.881  0.00  0.00    -0.000 C 
ATOM     16  C   UNL     1     -31.665  28.404   6.260  0.00  0.00    -0.000 C 
ENDBRANCH   3  11
BRANCH   2  17
ATOM     17  O   UNL     1     -35.841  27.511   3.606  0.00  0.00    -0.355 OA
ATOM     18  H   UNL     1     -36.285  27.385   2.752  0.00  0.00    +0.213 HD
ENDBRANCH   2  17
BRANCH   2  19
ATOM     19  O   UNL     1     -36.504  26.608   5.656  0.00  0.00    -0.355 OA
ATOM     20  H   UNL     1     -35.962  27.279   6.100  0.00  0.00    +0.213 HD
ENDBRANCH   2  19
BRANCH   3  21
ATOM     21  O   UNL     1     -34.543  24.495   5.323  0.00  0.00    -0.348 OA
ATOM     22  H   UNL     1     -35.401  24.051   5.230  0.00  0.00    +0.214 HD
ENDBRANCH   3  21
BRANCH   4  23
ATOM     23  O   UNL     1     -37.254  24.232   4.514  0.00  0.00    -0.357 OA
ATOM     24  H   UNL     1     -36.825  24.341   5.376  0.00  0.00    +0.213 HD
ENDBRANCH   4  23
BRANCH   4  25
ATOM     25  O   UNL     1     -38.103  26.020   3.286  0.00  0.00    -0.357 OA
ATOM     26  H   UNL     1     -38.787  25.373   3.048  0.00  0.00    +0.213 HD
ENDBRANCH   4  25
TORSDOF 6
ENDMDL
MODEL 4
REMARK VINA RESULT:      -6.1      5.145      7.581
REMARK  Name = 57238181
REMARK  6 active torsions:
REMARK  status: ('A' for Active; 'I' for Inactive)
REMARK    1  A    between atoms: C_2  and  O_17
REMARK    2  A    between atoms: C_2  and  O_19
REMARK    3  A    between atoms: C_3  and  C_11
REMARK    4  A    between atoms: C_3  and  O_21
REMARK    5  A    between atoms: C_4  and  O_23
REMARK    6  A    between atoms: C_4  and  O_25
REMARK                            x       y       z     vdW  Elec       q    Type
REMARK                         _______ _______ _______ _____ _____    ______ ____
ROOT
ATOM      1  O   UNL     1     -34.954  21.578   1.725  0.00  0.00    -0.450 OA
ATOM      2  C   UNL     1     -37.012  20.250   1.364  0.00  0.00    +0.297 C 
ATOM      3  C   UNL     1     -35.610  20.663   0.821  0.00  0.00    +0.298 C 
ATOM      4  C   UNL     1     -37.901  21.499   1.578  0.00  0.00    +0.259 C 
ATOM      5  C   UNL     1     -37.118  22.583   2.278  0.00  0.00    +0.067 C 
ATOM      6  C   UNL     1     -35.716  22.559   2.297  0.00  0.00    +0.142 C 
ATOM      7  C   UNL     1     -37.779  23.658   2.895  0.00  0.00    +0.004 C 
ATOM      8  C   UNL     1     -35.000  23.565   2.953  0.00  0.00    +0.037 C 
ATOM      9  C   UNL     1     -37.061  24.666   3.540  0.00  0.00    +0.000 C 
ATOM     10  C   UNL     1     -35.671  24.617   3.573  0.00  0.00    +0.003 C 
ENDROOT
BRANCH   3  11
ATOM     11  C   UNL     1     -34.669  19.459   0.675  0.00  0.00    +0.046 C 
ATOM     12  C   UNL     1     -33.599  19.300   1.556  0.00  0.00    +0.002 C 
ATOM     13  C   UNL     1     -34.883  18.525  -0.337  0.00  0.00    +0.002 C 
ATOM     14  C   UNL     1     -32.743  18.206   1.424  0.00  0.00    -0.000 C 
ATOM     15  C   UNL     1     -34.028  17.432  -0.471  0.00  0.00    -0.000 C 
ATOM     16  C   UNL     1     -32.957  17.272   0.410  0.00  0.00    -0.000 C 
ENDBRANCH   3  11
BRANCH   2  17
ATOM     17  O   UNL     1     -36.842  19.578   2.619  0.00  0.00    -0.355 OA
ATOM     18  H   UNL     1     -37.588  19.788   3.203  0.00  0.00    +0.213 HD
ENDBRANCH   2  17
BRANCH   2  19
ATOM     19  O   UNL     1     -37.703  19.393   0.454  0.00  0.00    -0.355 OA
ATOM     20  H   UNL     1     -37.202  18.569   0.342  0.00  0.00    +0.213 HD
ENDBRANCH   2  19
BRANCH   3  21
ATOM     21  O   UNL     1     -35.705  21.287  -0.466  0.00  0.00    -0.348 OA
ATOM     22  H   UNL     1     -36.437  20.889  -0.965  0.00  0.00    +0.214 HD
ENDBRANCH   3  21
BRANCH   4  23
ATOM     23  O   UNL     1     -38.320  22.060   0.333  0.00  0.00    -0.357 OA
ATOM     24  H   UNL     1     -37.643  21.891  -0.341  0.00  0.00    +0.213 HD
ENDBRANCH   4  23
BRANCH   4  25
ATOM     25  O   UNL     1     -39.051  21.155   2.350  0.00  0.00    -0.357 OA
ATOM     26  H   UNL     1     -39.622  20.564   1.833  0.00  0.00    +0.213 HD
ENDBRANCH   4  25
TORSDOF 6
ENDMDL
MODEL 5
REMARK VINA RESULT:      -6.1      2.722      4.587
REMARK  Name = 57238181
REMARK  6 active torsions:
REMARK  status: ('A' for Active; 'I' for Inactive)
REMARK    1  A    between atoms: C_2  and  O_17
REMARK    2  A    between atoms: C_2  and  O_19
REMARK    3  A    between atoms: C_3  and  C_11
REMARK    4  A    between atoms: C_3  and  O_21
REMARK    5  A    between atoms: C_4  and  O_23
REMARK    6  A    between atoms: C_4  and  O_25
REMARK                            x       y       z     vdW  Elec       q    Type
REMARK                         _______ _______ _______ _____ _____    ______ ____
ROOT
ATOM      1  O   UNL     1     -37.010  25.250   2.897  0.00  0.00    -0.450 OA
ATOM      2  C   UNL     1     -34.718  26.080   3.331  0.00  0.00    +0.297 C 
ATOM      3  C   UNL     1     -36.001  25.414   3.916  0.00  0.00    +0.298 C 
ATOM      4  C   UNL     1     -35.057  27.455   2.707  0.00  0.00    +0.259 C 
ATOM      5  C   UNL     1     -36.299  27.351   1.856  0.00  0.00    +0.067 C 
ATOM      6  C   UNL     1     -37.187  26.277   2.011  0.00  0.00    +0.142 C 
ATOM      7  C   UNL     1     -36.608  28.348   0.916  0.00  0.00    +0.004 C 
ATOM      8  C   UNL     1     -38.333  26.187   1.213  0.00  0.00    +0.037 C 
ATOM      9  C   UNL     1     -37.757  28.260   0.129  0.00  0.00    +0.000 C 
ATOM     10  C   UNL     1     -38.617  27.176   0.274  0.00  0.00    +0.003 C 
ENDROOT
BRANCH   3  11
ATOM     11  C   UNL     1     -35.722  24.009   4.469  0.00  0.00    +0.046 C 
ATOM     12  C   UNL     1     -35.479  23.832   5.831  0.00  0.00    +0.002 C 
ATOM     13  C   UNL     1     -35.712  22.911   3.610  0.00  0.00    +0.002 C 
ATOM     14  C   UNL     1     -35.226  22.555   6.334  0.00  0.00    -0.000 C 
ATOM     15  C   UNL     1     -35.458  21.635   4.112  0.00  0.00    -0.000 C 
ATOM     16  C   UNL     1     -35.215  21.457   5.475  0.00  0.00    -0.000 C 
ENDBRANCH   3  11
BRANCH   2  17
ATOM     17  O   UNL     1     -34.177  25.227   2.314  0.00  0.00    -0.355 OA
ATOM     18  H   UNL     1     -34.104  25.721   1.483  0.00  0.00    +0.213 HD
ENDBRANCH   2  17
BRANCH   2  19
ATOM     19  O   UNL     1     -33.731  26.306   4.338  0.00  0.00    -0.355 OA
ATOM     20  H   UNL     1     -34.053  26.975   4.963  0.00  0.00    +0.213 HD
ENDBRANCH   2  19
BRANCH   3  21
ATOM     21  O   UNL     1     -36.558  26.189   4.985  0.00  0.00    -0.348 OA
ATOM     22  H   UNL     1     -35.891  26.813   5.314  0.00  0.00    +0.214 HD
ENDBRANCH   3  21
BRANCH   4  23
ATOM     23  O   UNL     1     -35.352  28.426   3.714  0.00  0.00    -0.357 OA
ATOM     24  H   UNL     1     -35.363  29.310   3.317  0.00  0.00    +0.213 HD
ENDBRANCH   4  23
BRANCH   4  25
ATOM     25  O   UNL     1     -33.963  27.916   1.916  0.00  0.00    -0.357 OA
ATOM     26  H   UNL     1     -33.613  27.181   1.387  0.00  0.00    +0.213 HD
ENDBRANCH   4  25
TORSDOF 6
ENDMDL
MODEL 6
REMARK VINA RESULT:      -6.0      2.164      5.760
REMARK  Name = 57238181
REMARK  6 active torsions:
REMARK  status: ('A' for Active; 'I' for Inactive)
REMARK    1  A    between atoms: C_2  and  O_17
REMARK    2  A    between atoms: C_2  and  O_19
REMARK    3  A    between atoms: C_3  and  C_11
REMARK    4  A    between atoms: C_3  and  O_21
REMARK    5  A    between atoms: C_4  and  O_23
REMARK    6  A    between atoms: C_4  and  O_25
REMARK                            x       y       z     vdW  Elec       q    Type
REMARK                         _______ _______ _______ _____ _____    ______ ____
ROOT
ATOM      1  O   UNL     1     -34.037  25.144   3.153  0.00  0.00    -0.450 OA
ATOM      2  C   UNL     1     -36.027  26.183   4.198  0.00  0.00    +0.297 C 
ATOM      3  C   UNL     1     -34.619  25.547   4.411  0.00  0.00    +0.298 C 
ATOM      4  C   UNL     1     -36.970  25.185   3.483  0.00  0.00    +0.259 C 
ATOM      5  C   UNL     1     -36.259  24.537   2.320  0.00  0.00    +0.067 C 
ATOM      6  C   UNL     1     -34.860  24.549   2.236  0.00  0.00    +0.142 C 
ATOM      7  C   UNL     1     -36.986  23.877   1.314  0.00  0.00    +0.004 C 
ATOM      8  C   UNL     1     -34.211  23.950   1.151  0.00  0.00    +0.037 C 
ATOM      9  C   UNL     1     -36.335  23.272   0.239  0.00  0.00    +0.000 C 
ATOM     10  C   UNL     1     -34.947  23.313   0.155  0.00  0.00    +0.003 C 
ENDROOT
BRANCH   3  11
ATOM     11  C   UNL     1     -33.628  26.535   5.042  0.00  0.00    +0.046 C 
ATOM     12  C   UNL     1     -32.928  27.432   4.235  0.00  0.00    +0.002 C 
ATOM     13  C   UNL     1     -33.427  26.536   6.422  0.00  0.00    +0.002 C 
ATOM     14  C   UNL     1     -32.028  28.330   4.808  0.00  0.00    -0.000 C 
ATOM     15  C   UNL     1     -32.527  27.432   6.996  0.00  0.00    -0.000 C 
ATOM     16  C   UNL     1     -31.826  28.330   6.189  0.00  0.00    -0.000 C 
ENDBRANCH   3  11
BRANCH   2  17
ATOM     17  O   UNL     1     -35.886  27.356   3.387  0.00  0.00    -0.355 OA
ATOM     18  H   UNL     1     -36.734  27.827   3.349  0.00  0.00    +0.213 HD
ENDBRANCH   2  17
BRANCH   2  19
ATOM     19  O   UNL     1     -36.645  26.531   5.438  0.00  0.00    -0.355 OA
ATOM     20  H   UNL     1     -37.165  25.780   5.763  0.00  0.00    +0.213 HD
ENDBRANCH   2  19
BRANCH   3  21
ATOM     21  O   UNL     1     -34.682  24.400   5.269  0.00  0.00    -0.348 OA
ATOM     22  H   UNL     1     -35.473  23.880   5.057  0.00  0.00    +0.214 HD
ENDBRANCH   3  21
BRANCH   4  23
ATOM     23  O   UNL     1     -37.355  24.118   4.351  0.00  0.00    -0.357 OA
ATOM     24  H   UNL     1     -36.647  23.952   4.992  0.00  0.00    +0.213 HD
ENDBRANCH   4  23
BRANCH   4  25
ATOM     25  O   UNL     1     -38.139  25.862   3.021  0.00  0.00    -0.357 OA
ATOM     26  H   UNL     1     -38.172  25.826   2.051  0.00  0.00    +0.213 HD
ENDBRANCH   4  25
TORSDOF 6
ENDMDL
MODEL 7
REMARK VINA RESULT:      -6.0      4.998      7.556
REMARK  Name = 57238181
REMARK  6 active torsions:
REMARK  status: ('A' for Active; 'I' for Inactive)
REMARK    1  A    between atoms: C_2  and  O_17
REMARK    2  A    between atoms: C_2  and  O_19
REMARK    3  A    between atoms: C_3  and  C_11
REMARK    4  A    between atoms: C_3  and  O_21
REMARK    5  A    between atoms: C_4  and  O_23
REMARK    6  A    between atoms: C_4  and  O_25
REMARK                            x       y       z     vdW  Elec       q    Type
REMARK                         _______ _______ _______ _____ _____    ______ ____
ROOT
ATOM      1  O   UNL     1     -34.686  22.905   0.968  0.00  0.00    -0.450 OA
ATOM      2  C   UNL     1     -36.658  22.044   2.192  0.00  0.00    +0.297 C 
ATOM      3  C   UNL     1     -35.659  23.223   1.986  0.00  0.00    +0.298 C 
ATOM      4  C   UNL     1     -35.900  20.751   2.581  0.00  0.00    +0.259 C 
ATOM      5  C   UNL     1     -34.696  20.565   1.689  0.00  0.00    +0.067 C 
ATOM      6  C   UNL     1     -34.168  21.639   0.960  0.00  0.00    +0.142 C 
ATOM      7  C   UNL     1     -34.058  19.315   1.601  0.00  0.00    +0.004 C 
ATOM      8  C   UNL     1     -33.056  21.454   0.132  0.00  0.00    +0.037 C 
ATOM      9  C   UNL     1     -32.943  19.137   0.782  0.00  0.00    +0.000 C 
ATOM     10  C   UNL     1     -32.444  20.205   0.044  0.00  0.00    +0.003 C 
ENDROOT
BRANCH   3  11
ATOM     11  C   UNL     1     -36.364  24.503   1.516  0.00  0.00    +0.046 C 
ATOM     12  C   UNL     1     -36.934  25.368   2.451  0.00  0.00    +0.002 C 
ATOM     13  C   UNL     1     -36.436  24.801   0.156  0.00  0.00    +0.002 C 
ATOM     14  C   UNL     1     -37.576  26.531   2.025  0.00  0.00    -0.000 C 
ATOM     15  C   UNL     1     -37.077  25.963  -0.270  0.00  0.00    -0.000 C 
ATOM     16  C   UNL     1     -37.648  26.829   0.664  0.00  0.00    -0.000 C 
ENDBRANCH   3  11
BRANCH   2  17
ATOM     17  O   UNL     1     -37.366  21.818   0.966  0.00  0.00    -0.355 OA
ATOM     18  H   UNL     1     -38.291  22.091   1.072  0.00  0.00    +0.213 HD
ENDBRANCH   2  17
BRANCH   2  19
ATOM     19  O   UNL     1     -37.591  22.315   3.239  0.00  0.00    -0.355 OA
ATOM     20  H   UNL     1     -37.968  23.201   3.115  0.00  0.00    +0.213 HD
ENDBRANCH   2  19
BRANCH   3  21
ATOM     21  O   UNL     1     -34.961  23.542   3.197  0.00  0.00    -0.348 OA
ATOM     22  H   UNL     1     -34.032  23.275   3.115  0.00  0.00    +0.214 HD
ENDBRANCH   3  21
BRANCH   4  23
ATOM     23  O   UNL     1     -35.391  20.826   3.914  0.00  0.00    -0.357 OA
ATOM     24  H   UNL     1     -36.117  20.698   4.544  0.00  0.00    +0.213 HD
ENDBRANCH   4  23
BRANCH   4  25
ATOM     25  O   UNL     1     -36.766  19.623   2.470  0.00  0.00    -0.357 OA
ATOM     26  H   UNL     1     -36.257  18.852   2.170  0.00  0.00    +0.213 HD
ENDBRANCH   4  25
TORSDOF 6
ENDMDL
MODEL 8
REMARK VINA RESULT:      -6.0      5.120      7.870
REMARK  Name = 57238181
REMARK  6 active torsions:
REMARK  status: ('A' for Active; 'I' for Inactive)
REMARK    1  A    between atoms: C_2  and  O_17
REMARK    2  A    between atoms: C_2  and  O_19
REMARK    3  A    between atoms: C_3  and  C_11
REMARK    4  A    between atoms: C_3  and  O_21
REMARK    5  A    between atoms: C_4  and  O_23
REMARK    6  A    between atoms: C_4  and  O_25
REMARK                            x       y       z     vdW  Elec       q    Type
REMARK                         _______ _______ _______ _____ _____    ______ ____
ROOT
ATOM      1  O   UNL     1     -36.334  23.089   1.402  0.00  0.00    -0.450 OA
ATOM      2  C   UNL     1     -37.156  20.810   1.911  0.00  0.00    +0.297 C 
ATOM      3  C   UNL     1     -36.007  21.852   2.070  0.00  0.00    +0.298 C 
ATOM      4  C   UNL     1     -37.437  20.536   0.414  0.00  0.00    +0.259 C 
ATOM      5  C   UNL     1     -37.494  21.835  -0.353  0.00  0.00    +0.067 C 
ATOM      6  C   UNL     1     -36.938  23.007   0.177  0.00  0.00    +0.142 C 
ATOM      7  C   UNL     1     -38.076  21.886  -1.631  0.00  0.00    +0.004 C 
ATOM      8  C   UNL     1     -37.001  24.207  -0.539  0.00  0.00    +0.037 C 
ATOM      9  C   UNL     1     -38.128  23.082  -2.347  0.00  0.00    +0.000 C 
ATOM     10  C   UNL     1     -37.595  24.244  -1.799  0.00  0.00    +0.003 C 
ENDROOT
BRANCH   3  11
ATOM     11  C   UNL     1     -35.755  22.215   3.540  0.00  0.00    +0.046 C 
ATOM     12  C   UNL     1     -36.024  23.506   3.996  0.00  0.00    +0.002 C 
ATOM     13  C   UNL     1     -35.257  21.255   4.420  0.00  0.00    +0.002 C 
ATOM     14  C   UNL     1     -35.795  23.836   5.332  0.00  0.00    -0.000 C 
ATOM     15  C   UNL     1     -35.028  21.584   5.755  0.00  0.00    -0.000 C 
ATOM     16  C   UNL     1     -35.296  22.875   6.212  0.00  0.00    -0.000 C 
ENDBRANCH   3  11
BRANCH   2  17
ATOM     17  O   UNL     1     -38.343  21.335   2.520  0.00  0.00    -0.355 OA
ATOM     18  H   UNL     1     -38.233  22.286   2.677  0.00  0.00    +0.213 HD
ENDBRANCH   2  17
BRANCH   2  19
ATOM     19  O   UNL     1     -36.825  19.558   2.514  0.00  0.00    -0.355 OA
ATOM     20  H   UNL     1     -36.036  19.190   2.085  0.00  0.00    +0.213 HD
ENDBRANCH   2  19
BRANCH   3  21
ATOM     21  O   UNL     1     -34.771  21.360   1.536  0.00  0.00    -0.348 OA
ATOM     22  H   UNL     1     -34.216  22.108   1.264  0.00  0.00    +0.214 HD
ENDBRANCH   3  21
BRANCH   4  23
ATOM     23  O   UNL     1     -36.385  19.775  -0.183  0.00  0.00    -0.357 OA
ATOM     24  H   UNL     1     -36.526  18.833  -0.002  0.00  0.00    +0.213 HD
ENDBRANCH   4  23
BRANCH   4  25
ATOM     25  O   UNL     1     -38.670  19.831   0.268  0.00  0.00    -0.357 OA
ATOM     26  H   UNL     1     -38.524  18.886   0.439  0.00  0.00    +0.213 HD
ENDBRANCH   4  25
TORSDOF 6
ENDMDL
MODEL 9
REMARK VINA RESULT:      -5.9      5.197      8.277
REMARK  Name = 57238181
REMARK  6 active torsions:
REMARK  status: ('A' for Active; 'I' for Inactive)
REMARK    1  A    between atoms: C_2  and  O_17
REMARK    2  A    between atoms: C_2  and  O_19
REMARK    3  A    between atoms: C_3  and  C_11
REMARK    4  A    between atoms: C_3  and  O_21
REMARK    5  A    between atoms: C_4  and  O_23
REMARK    6  A    between atoms: C_4  and  O_25
REMARK                            x       y       z     vdW  Elec       q    Type
REMARK                         _______ _______ _______ _____ _____    ______ ____
ROOT
ATOM      1  O   UNL     1     -34.417  19.954   2.538  0.00  0.00    -0.450 OA
ATOM      2  C   UNL     1     -35.754  21.537   1.182  0.00  0.00    +0.297 C 
ATOM      3  C   UNL     1     -35.631  20.735   2.513  0.00  0.00    +0.298 C 
ATOM      4  C   UNL     1     -35.726  20.579  -0.033  0.00  0.00    +0.259 C 
ATOM      5  C   UNL     1     -34.621  19.563   0.128  0.00  0.00    +0.067 C 
ATOM      6  C   UNL     1     -34.054  19.312   1.385  0.00  0.00    +0.142 C 
ATOM      7  C   UNL     1     -34.163  18.822  -0.975  0.00  0.00    +0.004 C 
ATOM      8  C   UNL     1     -33.027  18.373   1.523  0.00  0.00    +0.037 C 
ATOM      9  C   UNL     1     -33.146  17.879  -0.832  0.00  0.00    +0.000 C 
ATOM     10  C   UNL     1     -32.574  17.657   0.416  0.00  0.00    +0.003 C 
ENDROOT
BRANCH   3  11
ATOM     11  C   UNL     1     -35.570  21.656   3.740  0.00  0.00    +0.046 C 
ATOM     12  C   UNL     1     -36.037  22.967   3.651  0.00  0.00    +0.002 C 
ATOM     13  C   UNL     1     -35.047  21.182   4.943  0.00  0.00    +0.002 C 
ATOM     14  C   UNL     1     -35.981  23.805   4.766  0.00  0.00    -0.000 C 
ATOM     15  C   UNL     1     -34.991  22.018   6.057  0.00  0.00    -0.000 C 
ATOM     16  C   UNL     1     -35.458  23.331   5.969  0.00  0.00    -0.000 C 
ENDBRANCH   3  11
BRANCH   2  17
ATOM     17  O   UNL     1     -34.649  22.445   1.086  0.00  0.00    -0.355 OA
ATOM     18  H   UNL     1     -34.667  23.058   1.838  0.00  0.00    +0.213 HD
ENDBRANCH   2  17
BRANCH   2  19
ATOM     19  O   UNL     1     -36.979  22.268   1.114  0.00  0.00    -0.355 OA
ATOM     20  H   UNL     1     -36.860  23.138   1.527  0.00  0.00    +0.213 HD
ENDBRANCH   2  19
BRANCH   3  21
ATOM     21  O   UNL     1     -36.743  19.850   2.701  0.00  0.00    -0.348 OA
ATOM     22  H   UNL     1     -37.163  19.672   1.845  0.00  0.00    +0.214 HD
ENDBRANCH   3  21
BRANCH   4  23
ATOM     23  O   UNL     1     -36.937  19.828  -0.133  0.00  0.00    -0.357 OA
ATOM     24  H   UNL     1     -36.727  18.884  -0.200  0.00  0.00    +0.213 HD
ENDBRANCH   4  23
BRANCH   4  25
ATOM     25  O   UNL     1     -35.532  21.321  -1.237  0.00  0.00    -0.357 OA
ATOM     26  H   UNL     1     -36.313  21.224  -1.806  0.00  0.00    +0.213 HD
ENDBRANCH   4  25
TORSDOF 6
ENDMDL
