MODEL 1
REMARK VINA RESULT:      -6.0      0.000      0.000
REMARK  Name = 5459129
REMARK  4 active torsions:
REMARK  status: ('A' for Active; 'I' for Inactive)
REMARK    1  A    between atoms: C_3  and  O_18
REMARK    2  A    between atoms: C_6  and  O_20
REMARK    3  A    between atoms: C_14  and  O_22
REMARK    4  A    between atoms: C_16  and  O_24
REMARK                            x       y       z     vdW  Elec       q    Type
REMARK                         _______ _______ _______ _____ _____    ______ ____
ROOT
ATOM      1  O   UNL     1     -39.731  21.909  -0.257  0.00  0.00    -0.287 OA
ATOM      2  O   UNL     1     -37.913  24.915   3.765  0.00  0.00    -0.287 OA
ATOM      3  C   UNL     1     -36.162  20.564   1.758  0.00  0.00    +0.095 C 
ATOM      4  C   UNL     1     -35.360  21.754   2.302  0.00  0.00    +0.061 C 
ATOM      5  C   UNL     1     -37.294  21.056   0.838  0.00  0.00    +0.056 C 
ATOM      6  C   UNL     1     -36.251  22.759   3.049  0.00  0.00    +0.138 C 
ATOM      7  C   UNL     1     -38.033  22.269   1.359  0.00  0.00    +0.020 C 
ATOM      8  C   UNL     1     -37.571  23.027   2.369  0.00  0.00    +0.043 C 
ATOM      9  C   UNL     1     -35.243  19.594   1.010  0.00  0.00    +0.030 C 
ATOM     10  C   UNL     1     -39.322  22.582   0.682  0.00  0.00    +0.192 C 
ATOM     11  C   UNL     1     -38.336  24.212   2.855  0.00  0.00    +0.197 C 
ATOM     12  C   UNL     1     -39.626  24.519   2.215  0.00  0.00    +0.076 C 
ATOM     13  C   UNL     1     -40.101  23.734   1.167  0.00  0.00    +0.048 C 
ATOM     14  C   UNL     1     -40.377  25.613   2.665  0.00  0.00    +0.140 C 
ATOM     15  C   UNL     1     -41.330  24.040   0.567  0.00  0.00    +0.040 C 
ATOM     16  C   UNL     1     -42.075  25.130   1.018  0.00  0.00    +0.142 C 
ATOM     17  C   UNL     1     -41.599  25.915   2.065  0.00  0.00    +0.074 C 
ENDROOT
BRANCH   3  18
ATOM     18  O   UNL     1     -36.730  19.850   2.860  0.00  0.00    -0.386 OA
ATOM     19  H   UNL     1     -36.278  18.997   2.961  0.00  0.00    +0.210 HD
ENDBRANCH   3  18
BRANCH   6  20
ATOM     20  O   UNL     1     -36.522  22.280   4.367  0.00  0.00    -0.380 OA
ATOM     21  H   UNL     1     -36.798  23.020   4.929  0.00  0.00    +0.211 HD
ENDBRANCH   6  20
BRANCH  14  22
ATOM     22  O   UNL     1     -39.970  26.420   3.686  0.00  0.00    -0.505 OA
ATOM     23  H   UNL     1     -40.530  27.106   3.992  0.00  0.00    +0.292 HD
ENDBRANCH  14  22
BRANCH  16  24
ATOM     24  O   UNL     1     -43.267  25.427   0.432  0.00  0.00    -0.471 OA
ATOM     25  C   UNL     1     -44.449  25.055   1.140  0.00  0.00    +0.252 C 
ENDBRANCH  16  24
TORSDOF 4
ENDMDL
MODEL 2
REMARK VINA RESULT:      -6.0      4.804      5.862
REMARK  Name = 5459129
REMARK  4 active torsions:
REMARK  status: ('A' for Active; 'I' for Inactive)
REMARK    1  A    between atoms: C_3  and  O_18
REMARK    2  A    between atoms: C_6  and  O_20
REMARK    3  A    between atoms: C_14  and  O_22
REMARK    4  A    between atoms: C_16  and  O_24
REMARK                            x       y       z     vdW  Elec       q    Type
REMARK                         _______ _______ _______ _____ _____    ______ ____
ROOT
ATOM      1  O   UNL     1     -34.576  24.518   0.614  0.00  0.00    -0.287 OA
ATOM      2  O   UNL     1     -35.421  21.067   4.602  0.00  0.00    -0.287 OA
ATOM      3  C   UNL     1     -35.812  20.526  -0.456  0.00  0.00    +0.095 C 
ATOM      4  C   UNL     1     -35.317  19.505   0.577  0.00  0.00    +0.061 C 
ATOM      5  C   UNL     1     -35.167  21.901  -0.203  0.00  0.00    +0.056 C 
ATOM      6  C   UNL     1     -35.590  19.961   2.019  0.00  0.00    +0.138 C 
ATOM      7  C   UNL     1     -35.104  22.296   1.256  0.00  0.00    +0.020 C 
ATOM      8  C   UNL     1     -35.313  21.425   2.258  0.00  0.00    +0.043 C 
ATOM      9  C   UNL     1     -35.510  20.043  -1.877  0.00  0.00    +0.030 C 
ATOM     10  C   UNL     1     -34.794  23.728   1.526  0.00  0.00    +0.192 C 
ATOM     11  C   UNL     1     -35.247  21.860   3.684  0.00  0.00    +0.197 C 
ATOM     12  C   UNL     1     -34.969  23.278   3.968  0.00  0.00    +0.076 C 
ATOM     13  C   UNL     1     -34.749  24.179   2.927  0.00  0.00    +0.048 C 
ATOM     14  C   UNL     1     -34.921  23.720   5.296  0.00  0.00    +0.140 C 
ATOM     15  C   UNL     1     -34.484  25.525   3.213  0.00  0.00    +0.040 C 
ATOM     16  C   UNL     1     -34.438  25.961   4.538  0.00  0.00    +0.142 C 
ATOM     17  C   UNL     1     -34.656  25.061   5.577  0.00  0.00    +0.074 C 
ENDROOT
BRANCH   3  18
ATOM     18  O   UNL     1     -37.233  20.646  -0.339  0.00  0.00    -0.386 OA
ATOM     19  H   UNL     1     -37.565  19.975   0.279  0.00  0.00    +0.210 HD
ENDBRANCH   3  18
BRANCH   6  20
ATOM     20  O   UNL     1     -36.955  19.709   2.356  0.00  0.00    -0.380 OA
ATOM     21  H   UNL     1     -37.027  19.543   3.309  0.00  0.00    +0.211 HD
ENDBRANCH   6  20
BRANCH  14  22
ATOM     22  O   UNL     1     -35.127  22.892   6.359  0.00  0.00    -0.505 OA
ATOM     23  H   UNL     1     -35.812  22.253   6.329  0.00  0.00    +0.292 HD
ENDBRANCH  14  22
BRANCH  16  24
ATOM     24  O   UNL     1     -34.179  27.268   4.813  0.00  0.00    -0.471 OA
ATOM     25  C   UNL     1     -32.925  27.788   4.375  0.00  0.00    +0.252 C 
ENDBRANCH  16  24
TORSDOF 4
ENDMDL
MODEL 3
REMARK VINA RESULT:      -5.9      2.111      5.971
REMARK  Name = 5459129
REMARK  4 active torsions:
REMARK  status: ('A' for Active; 'I' for Inactive)
REMARK    1  A    between atoms: C_3  and  O_18
REMARK    2  A    between atoms: C_6  and  O_20
REMARK    3  A    between atoms: C_14  and  O_22
REMARK    4  A    between atoms: C_16  and  O_24
REMARK                            x       y       z     vdW  Elec       q    Type
REMARK                         _______ _______ _______ _____ _____    ______ ____
ROOT
ATOM      1  O   UNL     1     -38.589  26.602   2.206  0.00  0.00    -0.287 OA
ATOM      2  O   UNL     1     -37.477  21.382   2.434  0.00  0.00    -0.287 OA
ATOM      3  C   UNL     1     -40.972  23.965  -0.241  0.00  0.00    +0.095 C 
ATOM      4  C   UNL     1     -40.160  22.734  -0.668  0.00  0.00    +0.061 C 
ATOM      5  C   UNL     1     -40.053  25.009   0.420  0.00  0.00    +0.056 C 
ATOM      6  C   UNL     1     -39.400  22.103   0.510  0.00  0.00    +0.138 C 
ATOM      7  C   UNL     1     -39.037  24.424   1.376  0.00  0.00    +0.020 C 
ATOM      8  C   UNL     1     -38.755  23.111   1.429  0.00  0.00    +0.043 C 
ATOM      9  C   UNL     1     -41.701  24.571  -1.441  0.00  0.00    +0.030 C 
ATOM     10  C   UNL     1     -38.354  25.400   2.271  0.00  0.00    +0.192 C 
ATOM     11  C   UNL     1     -37.749  22.577   2.392  0.00  0.00    +0.197 C 
ATOM     12  C   UNL     1     -37.085  23.524   3.303  0.00  0.00    +0.076 C 
ATOM     13  C   UNL     1     -37.376  24.885   3.245  0.00  0.00    +0.048 C 
ATOM     14  C   UNL     1     -36.152  23.049   4.233  0.00  0.00    +0.140 C 
ATOM     15  C   UNL     1     -36.735  25.774   4.118  0.00  0.00    +0.040 C 
ATOM     16  C   UNL     1     -35.806  25.297   5.043  0.00  0.00    +0.142 C 
ATOM     17  C   UNL     1     -35.515  23.937   5.101  0.00  0.00    +0.074 C 
ENDROOT
BRANCH   3  18
ATOM     18  O   UNL     1     -41.967  23.554   0.701  0.00  0.00    -0.386 OA
ATOM     19  H   UNL     1     -41.578  22.925   1.330  0.00  0.00    +0.210 HD
ENDBRANCH   3  18
BRANCH   6  20
ATOM     20  O   UNL     1     -40.292  21.303   1.286  0.00  0.00    -0.380 OA
ATOM     21  H   UNL     1     -39.892  20.432   1.440  0.00  0.00    +0.211 HD
ENDBRANCH   6  20
BRANCH  14  22
ATOM     22  O   UNL     1     -35.823  21.730   4.343  0.00  0.00    -0.505 OA
ATOM     23  H   UNL     1     -36.470  21.071   4.185  0.00  0.00    +0.292 HD
ENDBRANCH  14  22
BRANCH  16  24
ATOM     24  O   UNL     1     -35.184  26.163   5.889  0.00  0.00    -0.471 OA
ATOM     25  C   UNL     1     -33.769  26.289   5.763  0.00  0.00    +0.252 C 
ENDBRANCH  16  24
TORSDOF 4
ENDMDL
MODEL 4
REMARK VINA RESULT:      -5.9      6.215      9.872
REMARK  Name = 5459129
REMARK  4 active torsions:
REMARK  status: ('A' for Active; 'I' for Inactive)
REMARK    1  A    between atoms: C_3  and  O_18
REMARK    2  A    between atoms: C_6  and  O_20
REMARK    3  A    between atoms: C_14  and  O_22
REMARK    4  A    between atoms: C_16  and  O_24
REMARK                            x       y       z     vdW  Elec       q    Type
REMARK                         _______ _______ _______ _____ _____    ______ ____
ROOT
ATOM      1  O   UNL     1     -47.145  27.417   5.446  0.00  0.00    -0.287 OA
ATOM      2  O   UNL     1     -42.142  29.162   4.775  0.00  0.00    -0.287 OA
ATOM      3  C   UNL     1     -45.941  30.883   7.714  0.00  0.00    +0.095 C 
ATOM      4  C   UNL     1     -44.439  30.837   8.025  0.00  0.00    +0.061 C 
ATOM      5  C   UNL     1     -46.407  29.540   7.123  0.00  0.00    +0.056 C 
ATOM      6  C   UNL     1     -43.601  30.484   6.787  0.00  0.00    +0.138 C 
ATOM      7  C   UNL     1     -45.457  28.948   6.105  0.00  0.00    +0.020 C 
ATOM      8  C   UNL     1     -44.197  29.386   5.941  0.00  0.00    +0.043 C 
ATOM      9  C   UNL     1     -46.741  31.225   8.973  0.00  0.00    +0.030 C 
ATOM     10  C   UNL     1     -46.005  27.836   5.279  0.00  0.00    +0.192 C 
ATOM     11  C   UNL     1     -43.297  28.777   4.919  0.00  0.00    +0.197 C 
ATOM     12  C   UNL     1     -43.831  27.695   4.075  0.00  0.00    +0.076 C 
ATOM     13  C   UNL     1     -45.137  27.241   4.249  0.00  0.00    +0.048 C 
ATOM     14  C   UNL     1     -43.016  27.119   3.093  0.00  0.00    +0.140 C 
ATOM     15  C   UNL     1     -45.630  26.209   3.439  0.00  0.00    +0.040 C 
ATOM     16  C   UNL     1     -44.815  25.638   2.462  0.00  0.00    +0.142 C 
ATOM     17  C   UNL     1     -43.510  26.091   2.289  0.00  0.00    +0.074 C 
ENDROOT
BRANCH   3  18
ATOM     18  O   UNL     1     -46.181  31.923   6.760  0.00  0.00    -0.386 OA
ATOM     19  H   UNL     1     -45.341  32.351   6.530  0.00  0.00    +0.210 HD
ENDBRANCH   3  18
BRANCH   6  20
ATOM     20  O   UNL     1     -43.442  31.640   5.964  0.00  0.00    -0.380 OA
ATOM     21  H   UNL     1     -44.315  31.983   5.717  0.00  0.00    +0.211 HD
ENDBRANCH   6  20
BRANCH  14  22
ATOM     22  O   UNL     1     -41.731  27.517   2.870  0.00  0.00    -0.505 OA
ATOM     23  H   UNL     1     -41.185  27.760   3.592  0.00  0.00    +0.292 HD
ENDBRANCH  14  22
BRANCH  16  24
ATOM     24  O   UNL     1     -45.297  24.635   1.677  0.00  0.00    -0.471 OA
ATOM     25  C   UNL     1     -46.430  23.918   2.163  0.00  0.00    +0.252 C 
ENDBRANCH  16  24
TORSDOF 4
ENDMDL
MODEL 5
REMARK VINA RESULT:      -5.8      5.651      8.463
REMARK  Name = 5459129
REMARK  4 active torsions:
REMARK  status: ('A' for Active; 'I' for Inactive)
REMARK    1  A    between atoms: C_3  and  O_18
REMARK    2  A    between atoms: C_6  and  O_20
REMARK    3  A    between atoms: C_14  and  O_22
REMARK    4  A    between atoms: C_16  and  O_24
REMARK                            x       y       z     vdW  Elec       q    Type
REMARK                         _______ _______ _______ _____ _____    ______ ____
ROOT
ATOM      1  O   UNL     1     -33.187  26.625   6.644  0.00  0.00    -0.287 OA
ATOM      2  O   UNL     1     -34.348  26.717   1.431  0.00  0.00    -0.287 OA
ATOM      3  C   UNL     1     -32.006  30.126   4.418  0.00  0.00    +0.095 C 
ATOM      4  C   UNL     1     -31.701  29.768   2.957  0.00  0.00    +0.061 C 
ATOM      5  C   UNL     1     -32.187  28.848   5.257  0.00  0.00    +0.056 C 
ATOM      6  C   UNL     1     -32.790  28.878   2.339  0.00  0.00    +0.138 C 
ATOM      7  C   UNL     1     -32.999  27.769   4.574  0.00  0.00    +0.020 C 
ATOM      8  C   UNL     1     -33.286  27.792   3.262  0.00  0.00    +0.043 C 
ATOM      9  C   UNL     1     -30.893  31.000   5.001  0.00  0.00    +0.030 C 
ATOM     10  C   UNL     1     -33.472  26.662   5.452  0.00  0.00    +0.192 C 
ATOM     11  C   UNL     1     -34.096  26.709   2.631  0.00  0.00    +0.197 C 
ATOM     12  C   UNL     1     -34.594  25.622   3.489  0.00  0.00    +0.076 C 
ATOM     13  C   UNL     1     -34.293  25.598   4.849  0.00  0.00    +0.048 C 
ATOM     14  C   UNL     1     -35.375  24.602   2.929  0.00  0.00    +0.140 C 
ATOM     15  C   UNL     1     -34.773  24.555   5.653  0.00  0.00    +0.040 C 
ATOM     16  C   UNL     1     -35.550  23.542   5.092  0.00  0.00    +0.142 C 
ATOM     17  C   UNL     1     -35.851  23.565   3.732  0.00  0.00    +0.074 C 
ENDROOT
BRANCH   3  18
ATOM     18  O   UNL     1     -33.216  30.890   4.460  0.00  0.00    -0.386 OA
ATOM     19  H   UNL     1     -33.616  30.910   3.577  0.00  0.00    +0.210 HD
ENDBRANCH   3  18
BRANCH   6  20
ATOM     20  O   UNL     1     -33.909  29.679   1.956  0.00  0.00    -0.380 OA
ATOM     21  H   UNL     1     -34.588  29.638   2.649  0.00  0.00    +0.211 HD
ENDBRANCH   6  20
BRANCH  14  22
ATOM     22  O   UNL     1     -35.707  24.566   1.607  0.00  0.00    -0.505 OA
ATOM     23  H   UNL     1     -35.606  25.333   1.078  0.00  0.00    +0.292 HD
ENDBRANCH  14  22
BRANCH  16  24
ATOM     24  O   UNL     1     -36.015  22.530   5.874  0.00  0.00    -0.471 OA
ATOM     25  C   UNL     1     -35.187  21.375   6.000  0.00  0.00    +0.252 C 
ENDBRANCH  16  24
TORSDOF 4
ENDMDL
MODEL 6
REMARK VINA RESULT:      -5.7      3.117      7.074
REMARK  Name = 5459129
REMARK  4 active torsions:
REMARK  status: ('A' for Active; 'I' for Inactive)
REMARK    1  A    between atoms: C_3  and  O_18
REMARK    2  A    between atoms: C_6  and  O_20
REMARK    3  A    between atoms: C_14  and  O_22
REMARK    4  A    between atoms: C_16  and  O_24
REMARK                            x       y       z     vdW  Elec       q    Type
REMARK                         _______ _______ _______ _____ _____    ______ ____
ROOT
ATOM      1  O   UNL     1     -33.526  24.247   0.303  0.00  0.00    -0.287 OA
ATOM      2  O   UNL     1     -37.711  22.144   2.871  0.00  0.00    -0.287 OA
ATOM      3  C   UNL     1     -36.298  26.993   2.144  0.00  0.00    +0.095 C 
ATOM      4  C   UNL     1     -37.715  26.405   2.166  0.00  0.00    +0.061 C 
ATOM      5  C   UNL     1     -35.371  26.122   1.275  0.00  0.00    +0.056 C 
ATOM      6  C   UNL     1     -37.732  24.951   2.665  0.00  0.00    +0.138 C 
ATOM      7  C   UNL     1     -35.552  24.633   1.476  0.00  0.00    +0.020 C 
ATOM      8  C   UNL     1     -36.608  24.107   2.119  0.00  0.00    +0.043 C 
ATOM      9  C   UNL     1     -36.321  28.434   1.629  0.00  0.00    +0.030 C 
ATOM     10  C   UNL     1     -34.476  23.769   0.913  0.00  0.00    +0.192 C 
ATOM     11  C   UNL     1     -36.743  22.632   2.299  0.00  0.00    +0.197 C 
ATOM     12  C   UNL     1     -35.675  21.765   1.774  0.00  0.00    +0.076 C 
ATOM     13  C   UNL     1     -34.582  22.313   1.105  0.00  0.00    +0.048 C 
ATOM     14  C   UNL     1     -35.764  20.377   1.946  0.00  0.00    +0.140 C 
ATOM     15  C   UNL     1     -33.575  21.475   0.609  0.00  0.00    +0.040 C 
ATOM     16  C   UNL     1     -33.667  20.094   0.783  0.00  0.00    +0.142 C 
ATOM     17  C   UNL     1     -34.759  19.546   1.451  0.00  0.00    +0.074 C 
ENDROOT
BRANCH   3  18
ATOM     18  O   UNL     1     -35.792  27.025   3.482  0.00  0.00    -0.386 OA
ATOM     19  H   UNL     1     -34.824  26.971   3.463  0.00  0.00    +0.210 HD
ENDBRANCH   3  18
BRANCH   6  20
ATOM     20  O   UNL     1     -37.650  24.929   4.091  0.00  0.00    -0.380 OA
ATOM     21  H   UNL     1     -36.739  24.731   4.359  0.00  0.00    +0.211 HD
ENDBRANCH   6  20
BRANCH  14  22
ATOM     22  O   UNL     1     -36.804  19.778   2.592  0.00  0.00    -0.505 OA
ATOM     23  H   UNL     1     -37.370  20.285   3.140  0.00  0.00    +0.292 HD
ENDBRANCH  14  22
BRANCH  16  24
ATOM     24  O   UNL     1     -32.688  19.281   0.299  0.00  0.00    -0.471 OA
ATOM     25  C   UNL     1     -32.138  18.320   1.199  0.00  0.00    +0.252 C 
ENDBRANCH  16  24
TORSDOF 4
ENDMDL
MODEL 7
REMARK VINA RESULT:      -5.7      2.228      6.361
REMARK  Name = 5459129
REMARK  4 active torsions:
REMARK  status: ('A' for Active; 'I' for Inactive)
REMARK    1  A    between atoms: C_3  and  O_18
REMARK    2  A    between atoms: C_6  and  O_20
REMARK    3  A    between atoms: C_14  and  O_22
REMARK    4  A    between atoms: C_16  and  O_24
REMARK                            x       y       z     vdW  Elec       q    Type
REMARK                         _______ _______ _______ _____ _____    ______ ____
ROOT
ATOM      1  O   UNL     1     -37.580  22.939  -0.784  0.00  0.00    -0.287 OA
ATOM      2  O   UNL     1     -36.823  23.073   4.502  0.00  0.00    -0.287 OA
ATOM      3  C   UNL     1     -39.247  26.287   1.367  0.00  0.00    +0.095 C 
ATOM      4  C   UNL     1     -39.625  25.883   2.798  0.00  0.00    +0.061 C 
ATOM      5  C   UNL     1     -38.885  25.042   0.537  0.00  0.00    +0.056 C 
ATOM      6  C   UNL     1     -38.505  25.091   3.492  0.00  0.00    +0.138 C 
ATOM      7  C   UNL     1     -38.028  24.035   1.273  0.00  0.00    +0.020 C 
ATOM      8  C   UNL     1     -37.843  24.068   2.603  0.00  0.00    +0.043 C 
ATOM      9  C   UNL     1     -40.390  27.061   0.707  0.00  0.00    +0.030 C 
ATOM     10  C   UNL     1     -37.390  22.987   0.426  0.00  0.00    +0.192 C 
ATOM     11  C   UNL     1     -36.984  23.057   3.287  0.00  0.00    +0.197 C 
ATOM     12  C   UNL     1     -36.323  22.032   2.462  0.00  0.00    +0.076 C 
ATOM     13  C   UNL     1     -36.520  21.997   1.083  0.00  0.00    +0.048 C 
ATOM     14  C   UNL     1     -35.494  21.082   3.073  0.00  0.00    +0.140 C 
ATOM     15  C   UNL     1     -35.886  21.014   0.312  0.00  0.00    +0.040 C 
ATOM     16  C   UNL     1     -35.060  20.070   0.924  0.00  0.00    +0.142 C 
ATOM     17  C   UNL     1     -34.865  20.104   2.303  0.00  0.00    +0.074 C 
ENDROOT
BRANCH   3  18
ATOM     18  O   UNL     1     -38.115  27.161   1.420  0.00  0.00    -0.386 OA
ATOM     19  H   UNL     1     -38.126  27.753   0.651  0.00  0.00    +0.210 HD
ENDBRANCH   3  18
BRANCH   6  20
ATOM     20  O   UNL     1     -37.498  25.988   3.961  0.00  0.00    -0.380 OA
ATOM     21  H   UNL     1     -36.681  25.494   4.134  0.00  0.00    +0.211 HD
ENDBRANCH   6  20
BRANCH  14  22
ATOM     22  O   UNL     1     -35.259  21.061   4.416  0.00  0.00    -0.505 OA
ATOM     23  H   UNL     1     -35.249  20.245   4.877  0.00  0.00    +0.292 HD
ENDBRANCH  14  22
BRANCH  16  24
ATOM     24  O   UNL     1     -34.446  19.116   0.173  0.00  0.00    -0.471 OA
ATOM     25  C   UNL     1     -33.486  18.291   0.830  0.00  0.00    +0.252 C 
ENDBRANCH  16  24
TORSDOF 4
ENDMDL
MODEL 8
REMARK VINA RESULT:      -5.7      4.972      7.070
REMARK  Name = 5459129
REMARK  4 active torsions:
REMARK  status: ('A' for Active; 'I' for Inactive)
REMARK    1  A    between atoms: C_3  and  O_18
REMARK    2  A    between atoms: C_6  and  O_20
REMARK    3  A    between atoms: C_14  and  O_22
REMARK    4  A    between atoms: C_16  and  O_24
REMARK                            x       y       z     vdW  Elec       q    Type
REMARK                         _______ _______ _______ _____ _____    ______ ____
ROOT
ATOM      1  O   UNL     1     -36.731  28.218   1.526  0.00  0.00    -0.287 OA
ATOM      2  O   UNL     1     -33.618  25.373   4.805  0.00  0.00    -0.287 OA
ATOM      3  C   UNL     1     -38.214  24.380   2.823  0.00  0.00    +0.095 C 
ATOM      4  C   UNL     1     -37.056  23.407   3.084  0.00  0.00    +0.061 C 
ATOM      5  C   UNL     1     -37.696  25.655   2.133  0.00  0.00    +0.056 C 
ATOM      6  C   UNL     1     -35.939  24.047   3.922  0.00  0.00    +0.138 C 
ATOM      7  C   UNL     1     -36.398  26.185   2.703  0.00  0.00    +0.020 C 
ATOM      8  C   UNL     1     -35.615  25.466   3.524  0.00  0.00    +0.043 C 
ATOM      9  C   UNL     1     -39.299  23.711   1.975  0.00  0.00    +0.030 C 
ATOM     10  C   UNL     1     -36.031  27.571   2.297  0.00  0.00    +0.192 C 
ATOM     11  C   UNL     1     -34.345  26.030   4.067  0.00  0.00    +0.197 C 
ATOM     12  C   UNL     1     -33.981  27.408   3.699  0.00  0.00    +0.076 C 
ATOM     13  C   UNL     1     -34.793  28.151   2.844  0.00  0.00    +0.048 C 
ATOM     14  C   UNL     1     -32.805  27.973   4.210  0.00  0.00    +0.140 C 
ATOM     15  C   UNL     1     -34.433  29.461   2.501  0.00  0.00    +0.040 C 
ATOM     16  C   UNL     1     -33.261  30.020   3.013  0.00  0.00    +0.142 C 
ATOM     17  C   UNL     1     -32.449  29.277   3.866  0.00  0.00    +0.074 C 
ENDROOT
BRANCH   3  18
ATOM     18  O   UNL     1     -38.809  24.733   4.076  0.00  0.00    -0.386 OA
ATOM     19  H   UNL     1     -38.655  24.022   4.719  0.00  0.00    +0.210 HD
ENDBRANCH   3  18
BRANCH   6  20
ATOM     20  O   UNL     1     -36.309  24.048   5.301  0.00  0.00    -0.380 OA
ATOM     21  H   UNL     1     -37.047  23.433   5.438  0.00  0.00    +0.211 HD
ENDBRANCH   6  20
BRANCH  14  22
ATOM     22  O   UNL     1     -31.968  27.301   5.051  0.00  0.00    -0.505 OA
ATOM     23  H   UNL     1     -31.245  27.748   5.446  0.00  0.00    +0.292 HD
ENDBRANCH  14  22
BRANCH  16  24
ATOM     24  O   UNL     1     -32.913  31.291   2.678  0.00  0.00    -0.471 OA
ATOM     25  C   UNL     1     -33.971  32.190   2.350  0.00  0.00    +0.252 C 
ENDBRANCH  16  24
TORSDOF 4
ENDMDL
MODEL 9
REMARK VINA RESULT:      -5.7      4.734      6.719
REMARK  Name = 5459129
REMARK  4 active torsions:
REMARK  status: ('A' for Active; 'I' for Inactive)
REMARK    1  A    between atoms: C_3  and  O_18
REMARK    2  A    between atoms: C_6  and  O_20
REMARK    3  A    between atoms: C_14  and  O_22
REMARK    4  A    between atoms: C_16  and  O_24
REMARK                            x       y       z     vdW  Elec       q    Type
REMARK                         _______ _______ _______ _____ _____    ______ ____
ROOT
ATOM      1  O   UNL     1     -34.349  25.078   0.620  0.00  0.00    -0.287 OA
ATOM      2  O   UNL     1     -33.794  25.629   5.904  0.00  0.00    -0.287 OA
ATOM      3  C   UNL     1     -36.017  21.979   3.116  0.00  0.00    +0.095 C 
ATOM      4  C   UNL     1     -35.212  21.832   4.414  0.00  0.00    +0.061 C 
ATOM      5  C   UNL     1     -35.280  22.906   2.132  0.00  0.00    +0.056 C 
ATOM      6  C   UNL     1     -34.927  23.189   5.077  0.00  0.00    +0.138 C 
ATOM      7  C   UNL     1     -34.678  24.137   2.773  0.00  0.00    +0.020 C 
ATOM      8  C   UNL     1     -34.535  24.272   4.103  0.00  0.00    +0.043 C 
ATOM      9  C   UNL     1     -36.268  20.610   2.480  0.00  0.00    +0.030 C 
ATOM     10  C   UNL     1     -34.245  25.210   1.834  0.00  0.00    +0.192 C 
ATOM     11  C   UNL     1     -33.941  25.507   4.693  0.00  0.00    +0.197 C 
ATOM     12  C   UNL     1     -33.533  26.588   3.781  0.00  0.00    +0.076 C 
ATOM     13  C   UNL     1     -33.679  26.446   2.403  0.00  0.00    +0.048 C 
ATOM     14  C   UNL     1     -32.992  27.768   4.307  0.00  0.00    +0.140 C 
ATOM     15  C   UNL     1     -33.286  27.483   1.547  0.00  0.00    +0.040 C 
ATOM     16  C   UNL     1     -32.747  28.657   2.075  0.00  0.00    +0.142 C 
ATOM     17  C   UNL     1     -32.600  28.799   3.453  0.00  0.00    +0.074 C 
ENDROOT
BRANCH   3  18
ATOM     18  O   UNL     1     -37.293  22.546   3.428  0.00  0.00    -0.386 OA
ATOM     19  H   UNL     1     -37.463  22.456   4.380  0.00  0.00    +0.210 HD
ENDBRANCH   3  18
BRANCH   6  20
ATOM     20  O   UNL     1     -36.083  23.631   5.789  0.00  0.00    -0.380 OA
ATOM     21  H   UNL     1     -36.563  22.862   6.136  0.00  0.00    +0.211 HD
ENDBRANCH   6  20
BRANCH  14  22
ATOM     22  O   UNL     1     -32.823  27.972   5.644  0.00  0.00    -0.505 OA
ATOM     23  H   UNL     1     -32.943  27.263   6.245  0.00  0.00    +0.292 HD
ENDBRANCH  14  22
BRANCH  16  24
ATOM     24  O   UNL     1     -32.364  29.663   1.243  0.00  0.00    -0.471 OA
ATOM     25  C   UNL     1     -32.317  30.978   1.792  0.00  0.00    +0.252 C 
ENDBRANCH  16  24
TORSDOF 4
ENDMDL
