MODEL 1
REMARK VINA RESULT:      -5.3      0.000      0.000
REMARK  Name = 21119819
REMARK  11 active torsions:
REMARK  status: ('A' for Active; 'I' for Inactive)
REMARK    1  A    between atoms: C_2  and  O_7
REMARK    2  A    between atoms: C_3  and  O_9
REMARK    3  A    between atoms: C_4  and  C_15
REMARK    4  A    between atoms: C_5  and  O_11
REMARK    5  A    between atoms: C_6  and  O_13
REMARK    6  A    between atoms: C_15  and  O_16
REMARK    7  A    between atoms: O_16  and  C_18
REMARK    8  A    between atoms: C_18  and  C_19
REMARK    9  A    between atoms: C_19  and  C_21
REMARK   10  A    between atoms: C_21  and  C_22
REMARK   11  A    between atoms: C_22  and  O_23
REMARK                            x       y       z     vdW  Elec       q    Type
REMARK                         _______ _______ _______ _____ _____    ______ ____
ROOT
ATOM      1  O   UNL     1     -37.762  21.969   0.420  0.00  0.00    -0.325 OA
ATOM      2  C   UNL     1     -36.160  20.750   1.805  0.00  0.00    +0.171 C 
ATOM      3  C   UNL     1     -36.520  19.449   1.085  0.00  0.00    +0.172 C 
ATOM      4  C   UNL     1     -37.327  21.746   1.766  0.00  0.00    +0.190 C 
ATOM      5  C   UNL     1     -37.100  19.743  -0.297  0.00  0.00    +0.196 C 
ATOM      6  C   UNL     1     -38.220  20.782  -0.230  0.00  0.00    +0.262 C 
ENDROOT
BRANCH   2   7
ATOM      7  O   UNL     1     -35.828  20.429   3.155  0.00  0.00    -0.379 OA
ATOM      8  H   UNL     1     -36.486  19.812   3.512  0.00  0.00    +0.211 HD
ENDBRANCH   2   7
BRANCH   3   9
ATOM      9  O   UNL     1     -35.328  18.674   0.937  0.00  0.00    -0.379 OA
ATOM     10  H   UNL     1     -35.223  18.415   0.009  0.00  0.00    +0.211 HD
ENDBRANCH   3   9
BRANCH   5  11
ATOM     11  O   UNL     1     -37.582  18.534  -0.873  0.00  0.00    -0.378 OA
ATOM     12  H   UNL     1     -36.876  18.121  -1.395  0.00  0.00    +0.211 HD
ENDBRANCH   5  11
BRANCH   6  13
ATOM     13  O   UNL     1     -39.411  20.267   0.363  0.00  0.00    -0.358 OA
ATOM     14  H   UNL     1     -39.810  19.610  -0.230  0.00  0.00    +0.213 HD
ENDBRANCH   6  13
BRANCH   4  15
ATOM     15  C   UNL     1     -36.938  23.106   2.340  0.00  0.00    +0.241 C 
BRANCH  15  16
ATOM     16  O   UNL     1     -36.899  23.004   3.752  0.00  0.00    -0.443 OA
BRANCH  16  18
ATOM     17  O   UNL     1     -37.621  25.071   4.456  0.00  0.00    -0.245 OA
ATOM     18  C   UNL     1     -36.784  24.179   4.442  0.00  0.00    +0.337 C 
BRANCH  18  19
ATOM     19  C   UNL     1     -35.485  24.276   5.171  0.00  0.00    +0.056 C 
ATOM     20  C   UNL     1     -34.984  25.465   5.540  0.00  0.00    +0.002 C 
BRANCH  19  21
ATOM     21  C   UNL     1     -34.738  22.986   5.417  0.00  0.00    +0.065 C 
BRANCH  21  22
ATOM     22  C   UNL     1     -35.447  22.077   6.417  0.00  0.00    +0.142 C 
BRANCH  22  23
ATOM     23  O   UNL     1     -35.420  20.735   5.947  0.00  0.00    -0.382 OA
ATOM     24  H   UNL     1     -36.195  20.573   5.388  0.00  0.00    +0.210 HD
ENDBRANCH  22  23
ENDBRANCH  21  22
ENDBRANCH  19  21
ENDBRANCH  18  19
ENDBRANCH  16  18
ENDBRANCH  15  16
ENDBRANCH   4  15
TORSDOF 11
ENDMDL
MODEL 2
REMARK VINA RESULT:      -5.3      2.553      4.977
REMARK  Name = 21119819
REMARK  11 active torsions:
REMARK  status: ('A' for Active; 'I' for Inactive)
REMARK    1  A    between atoms: C_2  and  O_7
REMARK    2  A    between atoms: C_3  and  O_9
REMARK    3  A    between atoms: C_4  and  C_15
REMARK    4  A    between atoms: C_5  and  O_11
REMARK    5  A    between atoms: C_6  and  O_13
REMARK    6  A    between atoms: C_15  and  O_16
REMARK    7  A    between atoms: O_16  and  C_18
REMARK    8  A    between atoms: C_18  and  C_19
REMARK    9  A    between atoms: C_19  and  C_21
REMARK   10  A    between atoms: C_21  and  C_22
REMARK   11  A    between atoms: C_22  and  O_23
REMARK                            x       y       z     vdW  Elec       q    Type
REMARK                         _______ _______ _______ _____ _____    ______ ____
ROOT
ATOM      1  O   UNL     1     -37.745  24.925   1.998  0.00  0.00    -0.325 OA
ATOM      2  C   UNL     1     -39.590  23.343   1.748  0.00  0.00    +0.171 C 
ATOM      3  C   UNL     1     -40.595  24.495   1.826  0.00  0.00    +0.172 C 
ATOM      4  C   UNL     1     -38.288  23.691   2.481  0.00  0.00    +0.190 C 
ATOM      5  C   UNL     1     -39.934  25.812   1.424  0.00  0.00    +0.196 C 
ATOM      6  C   UNL     1     -38.621  26.039   2.177  0.00  0.00    +0.262 C 
ENDROOT
BRANCH   2   7
ATOM      7  O   UNL     1     -40.194  22.190   2.331  0.00  0.00    -0.379 OA
ATOM      8  H   UNL     1     -39.725  21.958   3.148  0.00  0.00    +0.211 HD
ENDBRANCH   2   7
BRANCH   3   9
ATOM      9  O   UNL     1     -41.669  24.215   0.926  0.00  0.00    -0.379 OA
ATOM     10  H   UNL     1     -41.347  24.264   0.013  0.00  0.00    +0.211 HD
ENDBRANCH   3   9
BRANCH   5  11
ATOM     11  O   UNL     1     -40.836  26.885   1.670  0.00  0.00    -0.378 OA
ATOM     12  H   UNL     1     -41.373  26.684   2.452  0.00  0.00    +0.211 HD
ENDBRANCH   5  11
BRANCH   6  13
ATOM     13  O   UNL     1     -38.826  26.349   3.554  0.00  0.00    -0.358 OA
ATOM     14  H   UNL     1     -39.342  25.642   3.972  0.00  0.00    +0.213 HD
ENDBRANCH   6  13
BRANCH   4  15
ATOM     15  C   UNL     1     -37.215  22.623   2.283  0.00  0.00    +0.241 C 
BRANCH  15  16
ATOM     16  O   UNL     1     -36.058  23.009   3.001  0.00  0.00    -0.443 OA
BRANCH  16  18
ATOM     17  O   UNL     1     -35.457  20.893   3.672  0.00  0.00    -0.245 OA
ATOM     18  C   UNL     1     -35.560  22.093   3.886  0.00  0.00    +0.337 C 
BRANCH  18  19
ATOM     19  C   UNL     1     -35.173  22.720   5.184  0.00  0.00    +0.056 C 
ATOM     20  C   UNL     1     -35.464  22.131   6.353  0.00  0.00    +0.002 C 
BRANCH  19  21
ATOM     21  C   UNL     1     -34.498  24.071   5.119  0.00  0.00    +0.065 C 
BRANCH  21  22
ATOM     22  C   UNL     1     -35.399  25.202   5.610  0.00  0.00    +0.142 C 
BRANCH  22  23
ATOM     23  O   UNL     1     -36.214  25.662   4.540  0.00  0.00    -0.382 OA
ATOM     24  H   UNL     1     -37.083  25.919   4.883  0.00  0.00    +0.210 HD
ENDBRANCH  22  23
ENDBRANCH  21  22
ENDBRANCH  19  21
ENDBRANCH  18  19
ENDBRANCH  16  18
ENDBRANCH  15  16
ENDBRANCH   4  15
TORSDOF 11
ENDMDL
MODEL 3
REMARK VINA RESULT:      -5.3      1.741      2.492
REMARK  Name = 21119819
REMARK  11 active torsions:
REMARK  status: ('A' for Active; 'I' for Inactive)
REMARK    1  A    between atoms: C_2  and  O_7
REMARK    2  A    between atoms: C_3  and  O_9
REMARK    3  A    between atoms: C_4  and  C_15
REMARK    4  A    between atoms: C_5  and  O_11
REMARK    5  A    between atoms: C_6  and  O_13
REMARK    6  A    between atoms: C_15  and  O_16
REMARK    7  A    between atoms: O_16  and  C_18
REMARK    8  A    between atoms: C_18  and  C_19
REMARK    9  A    between atoms: C_19  and  C_21
REMARK   10  A    between atoms: C_21  and  C_22
REMARK   11  A    between atoms: C_22  and  O_23
REMARK                            x       y       z     vdW  Elec       q    Type
REMARK                         _______ _______ _______ _____ _____    ______ ____
ROOT
ATOM      1  O   UNL     1     -38.243  22.572   1.480  0.00  0.00    -0.325 OA
ATOM      2  C   UNL     1     -36.419  21.142   2.255  0.00  0.00    +0.171 C 
ATOM      3  C   UNL     1     -37.058  19.940   1.555  0.00  0.00    +0.172 C 
ATOM      4  C   UNL     1     -37.475  22.193   2.627  0.00  0.00    +0.190 C 
ATOM      5  C   UNL     1     -37.970  20.402   0.420  0.00  0.00    +0.196 C 
ATOM      6  C   UNL     1     -38.948  21.482   0.884  0.00  0.00    +0.262 C 
ENDROOT
BRANCH   2   7
ATOM      7  O   UNL     1     -35.756  20.669   3.426  0.00  0.00    -0.379 OA
ATOM      8  H   UNL     1     -34.911  21.135   3.529  0.00  0.00    +0.211 HD
ENDBRANCH   2   7
BRANCH   3   9
ATOM      9  O   UNL     1     -36.013  19.128   1.016  0.00  0.00    -0.379 OA
ATOM     10  H   UNL     1     -36.363  18.250   0.802  0.00  0.00    +0.211 HD
ENDBRANCH   3   9
BRANCH   5  11
ATOM     11  O   UNL     1     -38.679  19.283  -0.099  0.00  0.00    -0.378 OA
ATOM     12  H   UNL     1     -39.209  19.562  -0.862  0.00  0.00    +0.211 HD
ENDBRANCH   5  11
BRANCH   6  13
ATOM     13  O   UNL     1     -39.967  20.967   1.740  0.00  0.00    -0.358 OA
ATOM     14  H   UNL     1     -40.286  20.121   1.389  0.00  0.00    +0.213 HD
ENDBRANCH   6  13
BRANCH   4  15
ATOM     15  C   UNL     1     -36.843  23.466   3.183  0.00  0.00    +0.241 C 
BRANCH  15  16
ATOM     16  O   UNL     1     -36.806  23.370   4.595  0.00  0.00    -0.443 OA
BRANCH  16  18
ATOM     17  O   UNL     1     -34.899  22.642   5.655  0.00  0.00    -0.245 OA
ATOM     18  C   UNL     1     -35.583  23.540   5.183  0.00  0.00    +0.337 C 
BRANCH  18  19
ATOM     19  C   UNL     1     -35.171  24.974   5.217  0.00  0.00    +0.056 C 
ATOM     20  C   UNL     1     -35.996  25.922   5.689  0.00  0.00    +0.002 C 
BRANCH  19  21
ATOM     21  C   UNL     1     -33.816  25.313   4.642  0.00  0.00    +0.065 C 
BRANCH  21  22
ATOM     22  C   UNL     1     -33.497  26.803   4.728  0.00  0.00    +0.142 C 
BRANCH  22  23
ATOM     23  O   UNL     1     -32.605  27.041   5.809  0.00  0.00    -0.382 OA
ATOM     24  H   UNL     1     -32.904  27.814   6.312  0.00  0.00    +0.210 HD
ENDBRANCH  22  23
ENDBRANCH  21  22
ENDBRANCH  19  21
ENDBRANCH  18  19
ENDBRANCH  16  18
ENDBRANCH  15  16
ENDBRANCH   4  15
TORSDOF 11
ENDMDL
MODEL 4
REMARK VINA RESULT:      -5.3      1.685      1.962
REMARK  Name = 21119819
REMARK  11 active torsions:
REMARK  status: ('A' for Active; 'I' for Inactive)
REMARK    1  A    between atoms: C_2  and  O_7
REMARK    2  A    between atoms: C_3  and  O_9
REMARK    3  A    between atoms: C_4  and  C_15
REMARK    4  A    between atoms: C_5  and  O_11
REMARK    5  A    between atoms: C_6  and  O_13
REMARK    6  A    between atoms: C_15  and  O_16
REMARK    7  A    between atoms: O_16  and  C_18
REMARK    8  A    between atoms: C_18  and  C_19
REMARK    9  A    between atoms: C_19  and  C_21
REMARK   10  A    between atoms: C_21  and  C_22
REMARK   11  A    between atoms: C_22  and  O_23
REMARK                            x       y       z     vdW  Elec       q    Type
REMARK                         _______ _______ _______ _____ _____    ______ ____
ROOT
ATOM      1  O   UNL     1     -35.853  22.532   0.478  0.00  0.00    -0.325 OA
ATOM      2  C   UNL     1     -35.814  20.736   2.134  0.00  0.00    +0.171 C 
ATOM      3  C   UNL     1     -34.930  19.896   1.210  0.00  0.00    +0.172 C 
ATOM      4  C   UNL     1     -36.671  21.727   1.333  0.00  0.00    +0.190 C 
ATOM      5  C   UNL     1     -34.174  20.792   0.230  0.00  0.00    +0.196 C 
ATOM      6  C   UNL     1     -35.111  21.772  -0.478  0.00  0.00    +0.262 C 
ENDROOT
BRANCH   2   7
ATOM      7  O   UNL     1     -36.647  19.847   2.875  0.00  0.00    -0.379 OA
ATOM      8  H   UNL     1     -37.501  20.274   3.049  0.00  0.00    +0.211 HD
ENDBRANCH   2   7
BRANCH   3   9
ATOM      9  O   UNL     1     -33.988  19.185   2.016  0.00  0.00    -0.379 OA
ATOM     10  H   UNL     1     -33.089  19.372   1.705  0.00  0.00    +0.211 HD
ENDBRANCH   3   9
BRANCH   5  11
ATOM     11  O   UNL     1     -33.497  19.980  -0.723  0.00  0.00    -0.378 OA
ATOM     12  H   UNL     1     -32.557  19.924  -0.490  0.00  0.00    +0.211 HD
ENDBRANCH   5  11
BRANCH   6  13
ATOM     13  O   UNL     1     -35.957  21.130  -1.431  0.00  0.00    -0.358 OA
ATOM     14  H   UNL     1     -35.729  21.435  -2.323  0.00  0.00    +0.213 HD
ENDBRANCH   6  13
BRANCH   4  15
ATOM     15  C   UNL     1     -37.443  22.681   2.241  0.00  0.00    +0.241 C 
BRANCH  15  16
ATOM     16  O   UNL     1     -36.914  22.581   3.550  0.00  0.00    -0.443 OA
BRANCH  16  18
ATOM     17  O   UNL     1     -37.517  24.702   4.205  0.00  0.00    -0.245 OA
ATOM     18  C   UNL     1     -36.739  23.758   4.224  0.00  0.00    +0.337 C 
BRANCH  18  19
ATOM     19  C   UNL     1     -35.452  23.786   4.980  0.00  0.00    +0.056 C 
ATOM     20  C   UNL     1     -34.398  24.485   4.532  0.00  0.00    +0.002 C 
BRANCH  19  21
ATOM     21  C   UNL     1     -35.375  22.945   6.233  0.00  0.00    +0.065 C 
BRANCH  21  22
ATOM     22  C   UNL     1     -34.671  21.610   6.002  0.00  0.00    +0.142 C 
BRANCH  22  23
ATOM     23  O   UNL     1     -35.626  20.624   5.630  0.00  0.00    -0.382 OA
ATOM     24  H   UNL     1     -35.241  19.742   5.746  0.00  0.00    +0.210 HD
ENDBRANCH  22  23
ENDBRANCH  21  22
ENDBRANCH  19  21
ENDBRANCH  18  19
ENDBRANCH  16  18
ENDBRANCH  15  16
ENDBRANCH   4  15
TORSDOF 11
ENDMDL
MODEL 5
REMARK VINA RESULT:      -5.2      4.348      6.626
REMARK  Name = 21119819
REMARK  11 active torsions:
REMARK  status: ('A' for Active; 'I' for Inactive)
REMARK    1  A    between atoms: C_2  and  O_7
REMARK    2  A    between atoms: C_3  and  O_9
REMARK    3  A    between atoms: C_4  and  C_15
REMARK    4  A    between atoms: C_5  and  O_11
REMARK    5  A    between atoms: C_6  and  O_13
REMARK    6  A    between atoms: C_15  and  O_16
REMARK    7  A    between atoms: O_16  and  C_18
REMARK    8  A    between atoms: C_18  and  C_19
REMARK    9  A    between atoms: C_19  and  C_21
REMARK   10  A    between atoms: C_21  and  C_22
REMARK   11  A    between atoms: C_22  and  O_23
REMARK                            x       y       z     vdW  Elec       q    Type
REMARK                         _______ _______ _______ _____ _____    ______ ____
ROOT
ATOM      1  O   UNL     1     -35.286  26.228   2.651  0.00  0.00    -0.325 OA
ATOM      2  C   UNL     1     -34.890  25.331   4.889  0.00  0.00    +0.171 C 
ATOM      3  C   UNL     1     -36.263  24.656   4.867  0.00  0.00    +0.172 C 
ATOM      4  C   UNL     1     -34.863  26.565   3.976  0.00  0.00    +0.190 C 
ATOM      5  C   UNL     1     -36.729  24.433   3.429  0.00  0.00    +0.196 C 
ATOM      6  C   UNL     1     -36.616  25.710   2.595  0.00  0.00    +0.262 C 
ENDROOT
BRANCH   2   7
ATOM      7  O   UNL     1     -34.603  25.704   6.235  0.00  0.00    -0.379 OA
ATOM      8  H   UNL     1     -35.262  25.308   6.828  0.00  0.00    +0.211 HD
ENDBRANCH   2   7
BRANCH   3   9
ATOM      9  O   UNL     1     -36.151  23.391   5.524  0.00  0.00    -0.379 OA
ATOM     10  H   UNL     1     -35.475  22.856   5.083  0.00  0.00    +0.211 HD
ENDBRANCH   3   9
BRANCH   5  11
ATOM     11  O   UNL     1     -38.073  23.965   3.437  0.00  0.00    -0.378 OA
ATOM     12  H   UNL     1     -38.549  24.361   4.184  0.00  0.00    +0.211 HD
ENDBRANCH   5  11
BRANCH   6  13
ATOM     13  O   UNL     1     -37.591  26.688   2.954  0.00  0.00    -0.358 OA
ATOM     14  H   UNL     1     -37.215  27.292   3.614  0.00  0.00    +0.213 HD
ENDBRANCH   6  13
BRANCH   4  15
ATOM     15  C   UNL     1     -33.462  27.161   3.861  0.00  0.00    +0.241 C 
BRANCH  15  16
ATOM     16  O   UNL     1     -33.325  28.178   4.836  0.00  0.00    -0.443 OA
BRANCH  16  18
ATOM     17  O   UNL     1     -32.192  27.052   6.491  0.00  0.00    -0.245 OA
ATOM     18  C   UNL     1     -32.316  28.014   5.745  0.00  0.00    +0.337 C 
BRANCH  18  19
ATOM     19  C   UNL     1     -31.376  29.173   5.754  0.00  0.00    +0.056 C 
ATOM     20  C   UNL     1     -31.805  30.413   6.036  0.00  0.00    +0.002 C 
BRANCH  19  21
ATOM     21  C   UNL     1     -29.940  28.895   5.373  0.00  0.00    +0.065 C 
BRANCH  21  22
ATOM     22  C   UNL     1     -29.061  28.583   6.581  0.00  0.00    +0.142 C 
BRANCH  22  23
ATOM     23  O   UNL     1     -29.223  27.220   6.951  0.00  0.00    -0.382 OA
ATOM     24  H   UNL     1     -28.837  27.075   7.829  0.00  0.00    +0.210 HD
ENDBRANCH  22  23
ENDBRANCH  21  22
ENDBRANCH  19  21
ENDBRANCH  18  19
ENDBRANCH  16  18
ENDBRANCH  15  16
ENDBRANCH   4  15
TORSDOF 11
ENDMDL
MODEL 6
REMARK VINA RESULT:      -5.2      4.256      6.839
REMARK  Name = 21119819
REMARK  11 active torsions:
REMARK  status: ('A' for Active; 'I' for Inactive)
REMARK    1  A    between atoms: C_2  and  O_7
REMARK    2  A    between atoms: C_3  and  O_9
REMARK    3  A    between atoms: C_4  and  C_15
REMARK    4  A    between atoms: C_5  and  O_11
REMARK    5  A    between atoms: C_6  and  O_13
REMARK    6  A    between atoms: C_15  and  O_16
REMARK    7  A    between atoms: O_16  and  C_18
REMARK    8  A    between atoms: C_18  and  C_19
REMARK    9  A    between atoms: C_19  and  C_21
REMARK   10  A    between atoms: C_21  and  C_22
REMARK   11  A    between atoms: C_22  and  O_23
REMARK                            x       y       z     vdW  Elec       q    Type
REMARK                         _______ _______ _______ _____ _____    ______ ____
ROOT
ATOM      1  O   UNL     1     -34.744  24.490   5.520  0.00  0.00    -0.325 OA
ATOM      2  C   UNL     1     -35.714  26.494   4.514  0.00  0.00    +0.171 C 
ATOM      3  C   UNL     1     -36.690  25.627   3.716  0.00  0.00    +0.172 C 
ATOM      4  C   UNL     1     -34.434  25.719   4.855  0.00  0.00    +0.190 C 
ATOM      5  C   UNL     1     -36.890  24.276   4.398  0.00  0.00    +0.196 C 
ATOM      6  C   UNL     1     -35.555  23.611   4.738  0.00  0.00    +0.262 C 
ENDROOT
BRANCH   2   7
ATOM      7  O   UNL     1     -35.403  27.644   3.730  0.00  0.00    -0.379 OA
ATOM      8  H   UNL     1     -36.225  28.063   3.430  0.00  0.00    +0.211 HD
ENDBRANCH   2   7
BRANCH   3   9
ATOM      9  O   UNL     1     -37.945  26.309   3.650  0.00  0.00    -0.379 OA
ATOM     10  H   UNL     1     -38.664  25.660   3.612  0.00  0.00    +0.211 HD
ENDBRANCH   3   9
BRANCH   5  11
ATOM     11  O   UNL     1     -37.661  23.430   3.553  0.00  0.00    -0.378 OA
ATOM     12  H   UNL     1     -37.167  22.615   3.373  0.00  0.00    +0.211 HD
ENDBRANCH   5  11
BRANCH   6  13
ATOM     13  O   UNL     1     -34.871  23.132   3.581  0.00  0.00    -0.358 OA
ATOM     14  H   UNL     1     -34.043  23.626   3.468  0.00  0.00    +0.213 HD
ENDBRANCH   6  13
BRANCH   4  15
ATOM     15  C   UNL     1     -33.515  26.510   5.783  0.00  0.00    +0.241 C 
BRANCH  15  16
ATOM     16  O   UNL     1     -32.474  27.076   5.009  0.00  0.00    -0.443 OA
BRANCH  16  18
ATOM     17  O   UNL     1     -33.065  29.215   4.401  0.00  0.00    -0.245 OA
ATOM     18  C   UNL     1     -32.367  28.439   5.041  0.00  0.00    +0.337 C 
BRANCH  18  19
ATOM     19  C   UNL     1     -31.263  28.895   5.937  0.00  0.00    +0.056 C 
ATOM     20  C   UNL     1     -31.519  29.601   7.049  0.00  0.00    +0.002 C 
BRANCH  19  21
ATOM     21  C   UNL     1     -29.852  28.578   5.502  0.00  0.00    +0.065 C 
BRANCH  21  22
ATOM     22  C   UNL     1     -28.917  28.320   6.681  0.00  0.00    +0.142 C 
BRANCH  22  23
ATOM     23  O   UNL     1     -29.035  26.965   7.098  0.00  0.00    -0.382 OA
ATOM     24  H   UNL     1     -28.417  26.416   6.592  0.00  0.00    +0.210 HD
ENDBRANCH  22  23
ENDBRANCH  21  22
ENDBRANCH  19  21
ENDBRANCH  18  19
ENDBRANCH  16  18
ENDBRANCH  15  16
ENDBRANCH   4  15
TORSDOF 11
ENDMDL
MODEL 7
REMARK VINA RESULT:      -5.2      3.640      7.392
REMARK  Name = 21119819
REMARK  11 active torsions:
REMARK  status: ('A' for Active; 'I' for Inactive)
REMARK    1  A    between atoms: C_2  and  O_7
REMARK    2  A    between atoms: C_3  and  O_9
REMARK    3  A    between atoms: C_4  and  C_15
REMARK    4  A    between atoms: C_5  and  O_11
REMARK    5  A    between atoms: C_6  and  O_13
REMARK    6  A    between atoms: C_15  and  O_16
REMARK    7  A    between atoms: O_16  and  C_18
REMARK    8  A    between atoms: C_18  and  C_19
REMARK    9  A    between atoms: C_19  and  C_21
REMARK   10  A    between atoms: C_21  and  C_22
REMARK   11  A    between atoms: C_22  and  O_23
REMARK                            x       y       z     vdW  Elec       q    Type
REMARK                         _______ _______ _______ _____ _____    ______ ____
ROOT
ATOM      1  O   UNL     1     -32.481  26.910   4.314  0.00  0.00    -0.325 OA
ATOM      2  C   UNL     1     -34.662  27.187   3.248  0.00  0.00    +0.171 C 
ATOM      3  C   UNL     1     -34.405  28.688   3.099  0.00  0.00    +0.172 C 
ATOM      4  C   UNL     1     -33.875  26.603   4.429  0.00  0.00    +0.190 C 
ATOM      5  C   UNL     1     -32.905  28.980   3.111  0.00  0.00    +0.196 C 
ATOM      6  C   UNL     1     -32.209  28.313   4.299  0.00  0.00    +0.262 C 
ENDROOT
BRANCH   2   7
ATOM      7  O   UNL     1     -36.062  26.997   3.444  0.00  0.00    -0.379 OA
ATOM      8  H   UNL     1     -36.402  26.382   2.774  0.00  0.00    +0.211 HD
ENDBRANCH   2   7
BRANCH   3   9
ATOM      9  O   UNL     1     -34.955  29.116   1.852  0.00  0.00    -0.379 OA
ATOM     10  H   UNL     1     -35.071  28.350   1.269  0.00  0.00    +0.211 HD
ENDBRANCH   3   9
BRANCH   5  11
ATOM     11  O   UNL     1     -32.699  30.387   3.144  0.00  0.00    -0.378 OA
ATOM     12  H   UNL     1     -32.286  30.673   2.315  0.00  0.00    +0.211 HD
ENDBRANCH   5  11
BRANCH   6  13
ATOM     13  O   UNL     1     -32.527  28.938   5.542  0.00  0.00    -0.358 OA
ATOM     14  H   UNL     1     -31.860  29.612   5.745  0.00  0.00    +0.213 HD
ENDBRANCH   6  13
BRANCH   4  15
ATOM     15  C   UNL     1     -33.993  25.083   4.501  0.00  0.00    +0.241 C 
BRANCH  15  16
ATOM     16  O   UNL     1     -35.069  24.755   5.360  0.00  0.00    -0.443 OA
BRANCH  16  18
ATOM     17  O   UNL     1     -37.207  24.439   4.572  0.00  0.00    -0.245 OA
ATOM     18  C   UNL     1     -36.082  24.019   4.810  0.00  0.00    +0.337 C 
BRANCH  18  19
ATOM     19  C   UNL     1     -35.673  22.607   4.552  0.00  0.00    +0.056 C 
ATOM     20  C   UNL     1     -35.227  21.822   5.544  0.00  0.00    +0.002 C 
BRANCH  19  21
ATOM     21  C   UNL     1     -35.727  22.128   3.120  0.00  0.00    +0.065 C 
BRANCH  21  22
ATOM     22  C   UNL     1     -35.416  20.640   2.986  0.00  0.00    +0.142 C 
BRANCH  22  23
ATOM     23  O   UNL     1     -36.616  19.921   2.732  0.00  0.00    -0.382 OA
ATOM     24  H   UNL     1     -36.459  19.266   2.035  0.00  0.00    +0.210 HD
ENDBRANCH  22  23
ENDBRANCH  21  22
ENDBRANCH  19  21
ENDBRANCH  18  19
ENDBRANCH  16  18
ENDBRANCH  15  16
ENDBRANCH   4  15
TORSDOF 11
ENDMDL
MODEL 8
REMARK VINA RESULT:      -5.1      3.934      6.930
REMARK  Name = 21119819
REMARK  11 active torsions:
REMARK  status: ('A' for Active; 'I' for Inactive)
REMARK    1  A    between atoms: C_2  and  O_7
REMARK    2  A    between atoms: C_3  and  O_9
REMARK    3  A    between atoms: C_4  and  C_15
REMARK    4  A    between atoms: C_5  and  O_11
REMARK    5  A    between atoms: C_6  and  O_13
REMARK    6  A    between atoms: C_15  and  O_16
REMARK    7  A    between atoms: O_16  and  C_18
REMARK    8  A    between atoms: C_18  and  C_19
REMARK    9  A    between atoms: C_19  and  C_21
REMARK   10  A    between atoms: C_21  and  C_22
REMARK   11  A    between atoms: C_22  and  O_23
REMARK                            x       y       z     vdW  Elec       q    Type
REMARK                         _______ _______ _______ _____ _____    ______ ____
ROOT
ATOM      1  O   UNL     1     -34.808  24.351   5.416  0.00  0.00    -0.325 OA
ATOM      2  C   UNL     1     -35.874  26.382   4.572  0.00  0.00    +0.171 C 
ATOM      3  C   UNL     1     -36.809  25.537   3.704  0.00  0.00    +0.172 C 
ATOM      4  C   UNL     1     -34.558  25.644   4.853  0.00  0.00    +0.190 C 
ATOM      5  C   UNL     1     -36.943  24.126   4.274  0.00  0.00    +0.196 C 
ATOM      6  C   UNL     1     -35.577  23.501   4.563  0.00  0.00    +0.262 C 
ENDROOT
BRANCH   2   7
ATOM      7  O   UNL     1     -35.620  27.605   3.885  0.00  0.00    -0.379 OA
ATOM      8  H   UNL     1     -34.916  28.093   4.342  0.00  0.00    +0.211 HD
ENDBRANCH   2   7
BRANCH   3   9
ATOM      9  O   UNL     1     -38.094  26.161   3.690  0.00  0.00    -0.379 OA
ATOM     10  H   UNL     1     -38.027  27.031   3.269  0.00  0.00    +0.211 HD
ENDBRANCH   3   9
BRANCH   5  11
ATOM     11  O   UNL     1     -37.674  23.316   3.361  0.00  0.00    -0.378 OA
ATOM     12  H   UNL     1     -38.066  23.877   2.673  0.00  0.00    +0.211 HD
ENDBRANCH   5  11
BRANCH   6  13
ATOM     13  O   UNL     1     -34.872  23.151   3.372  0.00  0.00    -0.358 OA
ATOM     14  H   UNL     1     -33.959  23.475   3.430  0.00  0.00    +0.213 HD
ENDBRANCH   6  13
BRANCH   4  15
ATOM     15  C   UNL     1     -33.677  26.400   5.844  0.00  0.00    +0.241 C 
BRANCH  15  16
ATOM     16  O   UNL     1     -33.303  27.635   5.262  0.00  0.00    -0.443 OA
BRANCH  16  18
ATOM     17  O   UNL     1     -31.248  27.548   6.291  0.00  0.00    -0.245 OA
ATOM     18  C   UNL     1     -32.104  28.156   5.664  0.00  0.00    +0.337 C 
BRANCH  18  19
ATOM     19  C   UNL     1     -31.958  29.590   5.275  0.00  0.00    +0.056 C 
ATOM     20  C   UNL     1     -31.896  30.558   6.203  0.00  0.00    +0.002 C 
BRANCH  19  21
ATOM     21  C   UNL     1     -31.944  29.902   3.797  0.00  0.00    +0.065 C 
BRANCH  21  22
ATOM     22  C   UNL     1     -33.140  30.746   3.363  0.00  0.00    +0.142 C 
BRANCH  22  23
ATOM     23  O   UNL     1     -34.346  30.054   3.659  0.00  0.00    -0.382 OA
ATOM     24  H   UNL     1     -34.191  29.099   3.611  0.00  0.00    +0.210 HD
ENDBRANCH  22  23
ENDBRANCH  21  22
ENDBRANCH  19  21
ENDBRANCH  18  19
ENDBRANCH  16  18
ENDBRANCH  15  16
ENDBRANCH   4  15
TORSDOF 11
ENDMDL
MODEL 9
REMARK VINA RESULT:      -5.1      2.200      6.406
REMARK  Name = 21119819
REMARK  11 active torsions:
REMARK  status: ('A' for Active; 'I' for Inactive)
REMARK    1  A    between atoms: C_2  and  O_7
REMARK    2  A    between atoms: C_3  and  O_9
REMARK    3  A    between atoms: C_4  and  C_15
REMARK    4  A    between atoms: C_5  and  O_11
REMARK    5  A    between atoms: C_6  and  O_13
REMARK    6  A    between atoms: C_15  and  O_16
REMARK    7  A    between atoms: O_16  and  C_18
REMARK    8  A    between atoms: C_18  and  C_19
REMARK    9  A    between atoms: C_19  and  C_21
REMARK   10  A    between atoms: C_21  and  C_22
REMARK   11  A    between atoms: C_22  and  O_23
REMARK                            x       y       z     vdW  Elec       q    Type
REMARK                         _______ _______ _______ _____ _____    ______ ____
ROOT
ATOM      1  O   UNL     1     -36.284  24.020   4.974  0.00  0.00    -0.325 OA
ATOM      2  C   UNL     1     -34.768  24.341   3.084  0.00  0.00    +0.171 C 
ATOM      3  C   UNL     1     -34.169  25.572   3.767  0.00  0.00    +0.172 C 
ATOM      4  C   UNL     1     -36.211  24.097   3.546  0.00  0.00    +0.190 C 
ATOM      5  C   UNL     1     -34.385  25.507   5.278  0.00  0.00    +0.196 C 
ATOM      6  C   UNL     1     -35.844  25.212   5.628  0.00  0.00    +0.262 C 
ENDROOT
BRANCH   2   7
ATOM      7  O   UNL     1     -34.728  24.554   1.675  0.00  0.00    -0.379 OA
ATOM      8  H   UNL     1     -34.024  24.011   1.285  0.00  0.00    +0.211 HD
ENDBRANCH   2   7
BRANCH   3   9
ATOM      9  O   UNL     1     -32.766  25.598   3.495  0.00  0.00    -0.379 OA
ATOM     10  H   UNL     1     -32.296  25.979   4.253  0.00  0.00    +0.211 HD
ENDBRANCH   3   9
BRANCH   5  11
ATOM     11  O   UNL     1     -33.975  26.736   5.866  0.00  0.00    -0.378 OA
ATOM     12  H   UNL     1     -34.668  27.055   6.465  0.00  0.00    +0.211 HD
ENDBRANCH   5  11
BRANCH   6  13
ATOM     13  O   UNL     1     -36.705  26.319   5.368  0.00  0.00    -0.358 OA
ATOM     14  H   UNL     1     -36.853  26.814   6.189  0.00  0.00    +0.213 HD
ENDBRANCH   6  13
BRANCH   4  15
ATOM     15  C   UNL     1     -36.774  22.787   2.999  0.00  0.00    +0.241 C 
BRANCH  15  16
ATOM     16  O   UNL     1     -35.756  22.133   2.263  0.00  0.00    -0.443 OA
BRANCH  16  18
ATOM     17  O   UNL     1     -35.301  20.556   3.874  0.00  0.00    -0.245 OA
ATOM     18  C   UNL     1     -35.396  20.888   2.700  0.00  0.00    +0.337 C 
BRANCH  18  19
ATOM     19  C   UNL     1     -35.095  19.962   1.570  0.00  0.00    +0.056 C 
ATOM     20  C   UNL     1     -33.900  19.362   1.464  0.00  0.00    +0.002 C 
BRANCH  19  21
ATOM     21  C   UNL     1     -36.172  19.783   0.524  0.00  0.00    +0.065 C 
BRANCH  21  22
ATOM     22  C   UNL     1     -36.185  18.377  -0.070  0.00  0.00    +0.142 C 
BRANCH  22  23
ATOM     23  O   UNL     1     -37.230  17.616   0.522  0.00  0.00    -0.382 OA
ATOM     24  H   UNL     1     -36.981  17.374   1.427  0.00  0.00    +0.210 HD
ENDBRANCH  22  23
ENDBRANCH  21  22
ENDBRANCH  19  21
ENDBRANCH  18  19
ENDBRANCH  16  18
ENDBRANCH  15  16
ENDBRANCH   4  15
TORSDOF 11
ENDMDL
