MODEL 1
REMARK VINA RESULT:      -6.2      0.000      0.000
REMARK  Name = 5380
REMARK  7 active torsions:
REMARK  status: ('A' for Active; 'I' for Inactive)
REMARK    1  A    between atoms: C_1  and  N_14
REMARK    2  A    between atoms: C_2  and  C_11
REMARK    3  A    between atoms: C_15  and  C_18
REMARK    4  A    between atoms: C_18  and  O_19
REMARK    5  A    between atoms: O_19  and  C_20
REMARK    6  A    between atoms: C_20  and  C_21
REMARK    7  A    between atoms: C_21  and  C_22
REMARK                            x       y       z     vdW  Elec       q    Type
REMARK                         _______ _______ _______ _____ _____    ______ ____
ROOT
ATOM      1  C   UNL     1     -35.300  21.796   3.932  0.00  0.00    +0.051 C 
ATOM      2  C   UNL     1     -35.076  24.012   4.826  0.00  0.00    +0.067 C 
ATOM      3  C   UNL     1     -35.132  23.157   3.726  0.00  0.00    +0.025 C 
ATOM      4  C   UNL     1     -35.413  21.269   5.209  0.00  0.00    +0.015 C 
ATOM      5  C   UNL     1     -35.189  23.497   6.118  0.00  0.00    +0.010 C 
ATOM      6  C   UNL     1     -35.357  22.126   6.309  0.00  0.00    +0.002 C 
ENDROOT
BRANCH   2  11
ATOM      7  N   UNL     1     -35.866  26.228   4.177  0.00  0.00    -0.110 NA
ATOM      8  N   UNL     1     -33.724  26.055   4.893  0.00  0.00    -0.087 NA
ATOM      9  N   UNL     1     -35.196  27.389   4.183  0.00  0.00    -0.140 N 
ATOM     10  N   UNL     1     -33.924  27.334   4.600  0.00  0.00    -0.022 NA
ATOM     11  C   UNL     1     -34.902  25.425   4.630  0.00  0.00    +0.074 C 
ATOM     12  H   UNL     1     -35.615  28.234   3.897  0.00  0.00    +0.197 HD
ENDBRANCH   2  11
BRANCH   1  14
ATOM     13  O   UNL     1     -37.574  21.155   2.014  0.00  0.00    -0.263 OA
ATOM     14  N   UNL     1     -35.357  20.928   2.817  0.00  0.00    -0.275 N 
ATOM     15  C   UNL     1     -36.445  20.693   2.004  0.00  0.00    +0.326 C 
ATOM     16  H   UNL     1     -34.531  20.440   2.598  0.00  0.00    +0.155 HD
BRANCH  15  18
ATOM     17  O   UNL     1     -36.945  18.878   0.563  0.00  0.00    -0.240 OA
ATOM     18  C   UNL     1     -36.131  19.708   0.919  0.00  0.00    +0.396 C 
BRANCH  18  19
ATOM     19  O   UNL     1     -34.866  19.916   0.495  0.00  0.00    -0.442 OA
BRANCH  19  20
ATOM     20  C   UNL     1     -34.112  18.741   0.228  0.00  0.00    +0.209 C 
BRANCH  20  21
ATOM     21  C   UNL     1     -33.168  18.486   1.395  0.00  0.00    +0.047 C 
BRANCH  21  22
ATOM     22  C   UNL     1     -31.723  18.335   0.928  0.00  0.00    +0.004 C 
ATOM     23  C   UNL     1     -31.269  19.542   0.123  0.00  0.00    +0.000 C 
ENDBRANCH  21  22
ENDBRANCH  20  21
ENDBRANCH  19  20
ENDBRANCH  18  19
ENDBRANCH  15  18
ENDBRANCH   1  14
TORSDOF 7
ENDMDL
MODEL 2
REMARK VINA RESULT:      -6.2      6.113      7.710
REMARK  Name = 5380
REMARK  7 active torsions:
REMARK  status: ('A' for Active; 'I' for Inactive)
REMARK    1  A    between atoms: C_1  and  N_14
REMARK    2  A    between atoms: C_2  and  C_11
REMARK    3  A    between atoms: C_15  and  C_18
REMARK    4  A    between atoms: C_18  and  O_19
REMARK    5  A    between atoms: O_19  and  C_20
REMARK    6  A    between atoms: C_20  and  C_21
REMARK    7  A    between atoms: C_21  and  C_22
REMARK                            x       y       z     vdW  Elec       q    Type
REMARK                         _______ _______ _______ _____ _____    ______ ____
ROOT
ATOM      1  C   UNL     1     -40.913  25.600   2.722  0.00  0.00    +0.051 C 
ATOM      2  C   UNL     1     -42.551  27.230   3.369  0.00  0.00    +0.067 C 
ATOM      3  C   UNL     1     -41.350  26.566   3.615  0.00  0.00    +0.025 C 
ATOM      4  C   UNL     1     -41.646  25.280   1.591  0.00  0.00    +0.015 C 
ATOM      5  C   UNL     1     -43.301  26.919   2.234  0.00  0.00    +0.010 C 
ATOM      6  C   UNL     1     -42.848  25.944   1.345  0.00  0.00    +0.002 C 
ENDROOT
BRANCH   2  11
ATOM      7  N   UNL     1     -44.300  28.381   4.622  0.00  0.00    -0.110 NA
ATOM      8  N   UNL     1     -42.175  29.122   4.879  0.00  0.00    -0.087 NA
ATOM      9  N   UNL     1     -44.181  29.418   5.464  0.00  0.00    -0.140 N 
ATOM     10  N   UNL     1     -42.940  29.890   5.646  0.00  0.00    -0.022 NA
ATOM     11  C   UNL     1     -43.018  28.234   4.284  0.00  0.00    +0.074 C 
ATOM     12  H   UNL     1     -44.960  29.810   5.921  0.00  0.00    +0.197 HD
ENDBRANCH   2  11
BRANCH   1  14
ATOM     13  O   UNL     1     -38.027  26.528   2.457  0.00  0.00    -0.263 OA
ATOM     14  N   UNL     1     -39.694  24.926   2.971  0.00  0.00    -0.275 N 
ATOM     15  C   UNL     1     -38.421  25.430   2.813  0.00  0.00    +0.326 C 
ATOM     16  H   UNL     1     -39.763  23.998   3.293  0.00  0.00    +0.155 HD
BRANCH  15  18
ATOM     17  O   UNL     1     -36.784  23.786   2.323  0.00  0.00    -0.240 OA
ATOM     18  C   UNL     1     -37.372  24.423   3.176  0.00  0.00    +0.396 C 
BRANCH  18  19
ATOM     19  O   UNL     1     -37.262  24.373   4.520  0.00  0.00    -0.442 OA
BRANCH  19  20
ATOM     20  C   UNL     1     -36.177  25.106   5.072  0.00  0.00    +0.209 C 
BRANCH  20  21
ATOM     21  C   UNL     1     -35.021  24.150   5.336  0.00  0.00    +0.047 C 
BRANCH  21  22
ATOM     22  C   UNL     1     -35.452  22.973   6.206  0.00  0.00    +0.004 C 
ATOM     23  C   UNL     1     -35.143  21.644   5.535  0.00  0.00    +0.000 C 
ENDBRANCH  21  22
ENDBRANCH  20  21
ENDBRANCH  19  20
ENDBRANCH  18  19
ENDBRANCH  15  18
ENDBRANCH   1  14
TORSDOF 7
ENDMDL
MODEL 3
REMARK VINA RESULT:      -6.1      4.084      5.483
REMARK  Name = 5380
REMARK  7 active torsions:
REMARK  status: ('A' for Active; 'I' for Inactive)
REMARK    1  A    between atoms: C_1  and  N_14
REMARK    2  A    between atoms: C_2  and  C_11
REMARK    3  A    between atoms: C_15  and  C_18
REMARK    4  A    between atoms: C_18  and  O_19
REMARK    5  A    between atoms: O_19  and  C_20
REMARK    6  A    between atoms: C_20  and  C_21
REMARK    7  A    between atoms: C_21  and  C_22
REMARK                            x       y       z     vdW  Elec       q    Type
REMARK                         _______ _______ _______ _____ _____    ______ ____
ROOT
ATOM      1  C   UNL     1     -36.725  24.800   4.414  0.00  0.00    +0.051 C 
ATOM      2  C   UNL     1     -34.569  25.612   5.086  0.00  0.00    +0.067 C 
ATOM      3  C   UNL     1     -35.895  25.863   4.734  0.00  0.00    +0.025 C 
ATOM      4  C   UNL     1     -36.264  23.493   4.438  0.00  0.00    +0.015 C 
ATOM      5  C   UNL     1     -34.090  24.302   5.115  0.00  0.00    +0.010 C 
ATOM      6  C   UNL     1     -34.938  23.243   4.790  0.00  0.00    +0.002 C 
ENDROOT
BRANCH   2  11
ATOM      7  N   UNL     1     -33.096  26.829   6.604  0.00  0.00    -0.110 NA
ATOM      8  N   UNL     1     -33.415  27.703   4.540  0.00  0.00    -0.087 NA
ATOM      9  N   UNL     1     -32.430  27.971   6.386  0.00  0.00    -0.140 N 
ATOM     10  N   UNL     1     -32.590  28.525   5.176  0.00  0.00    -0.022 NA
ATOM     11  C   UNL     1     -33.696  26.703   5.420  0.00  0.00    +0.074 C 
ATOM     12  H   UNL     1     -31.858  28.380   7.075  0.00  0.00    +0.197 HD
ENDBRANCH   2  11
BRANCH   1  14
ATOM     13  O   UNL     1     -37.915  26.361   2.089  0.00  0.00    -0.263 OA
ATOM     14  N   UNL     1     -38.070  25.053   4.057  0.00  0.00    -0.275 N 
ATOM     15  C   UNL     1     -38.518  25.786   2.979  0.00  0.00    +0.326 C 
ATOM     16  H   UNL     1     -38.761  24.663   4.641  0.00  0.00    +0.155 HD
BRANCH  15  18
ATOM     17  O   UNL     1     -40.619  26.878   3.096  0.00  0.00    -0.240 OA
ATOM     18  C   UNL     1     -40.014  25.838   2.920  0.00  0.00    +0.396 C 
BRANCH  18  19
ATOM     19  O   UNL     1     -40.485  24.595   2.680  0.00  0.00    -0.442 OA
BRANCH  19  20
ATOM     20  C   UNL     1     -40.762  24.300   1.318  0.00  0.00    +0.209 C 
BRANCH  20  21
ATOM     21  C   UNL     1     -39.849  23.168   0.865  0.00  0.00    +0.047 C 
BRANCH  21  22
ATOM     22  C   UNL     1     -39.552  22.195   2.001  0.00  0.00    +0.004 C 
ATOM     23  C   UNL     1     -38.170  21.576   1.857  0.00  0.00    +0.000 C 
ENDBRANCH  21  22
ENDBRANCH  20  21
ENDBRANCH  19  20
ENDBRANCH  18  19
ENDBRANCH  15  18
ENDBRANCH   1  14
TORSDOF 7
ENDMDL
MODEL 4
REMARK VINA RESULT:      -5.9      5.656      6.827
REMARK  Name = 5380
REMARK  7 active torsions:
REMARK  status: ('A' for Active; 'I' for Inactive)
REMARK    1  A    between atoms: C_1  and  N_14
REMARK    2  A    between atoms: C_2  and  C_11
REMARK    3  A    between atoms: C_15  and  C_18
REMARK    4  A    between atoms: C_18  and  O_19
REMARK    5  A    between atoms: O_19  and  C_20
REMARK    6  A    between atoms: C_20  and  C_21
REMARK    7  A    between atoms: C_21  and  C_22
REMARK                            x       y       z     vdW  Elec       q    Type
REMARK                         _______ _______ _______ _____ _____    ______ ____
ROOT
ATOM      1  C   UNL     1     -40.131  25.223   3.117  0.00  0.00    +0.051 C 
ATOM      2  C   UNL     1     -41.931  26.808   3.183  0.00  0.00    +0.067 C 
ATOM      3  C   UNL     1     -40.780  26.268   3.755  0.00  0.00    +0.025 C 
ATOM      4  C   UNL     1     -40.603  24.704   1.922  0.00  0.00    +0.015 C 
ATOM      5  C   UNL     1     -42.419  26.297   1.980  0.00  0.00    +0.010 C 
ATOM      6  C   UNL     1     -41.755  25.244   1.350  0.00  0.00    +0.002 C 
ENDROOT
BRANCH   2  11
ATOM      7  N   UNL     1     -43.900  28.182   3.618  0.00  0.00    -0.110 NA
ATOM      8  N   UNL     1     -41.996  28.713   4.722  0.00  0.00    -0.087 NA
ATOM      9  N   UNL     1     -44.020  29.235   4.439  0.00  0.00    -0.140 N 
ATOM     10  N   UNL     1     -42.916  29.586   5.113  0.00  0.00    -0.022 NA
ATOM     11  C   UNL     1     -42.616  27.891   3.832  0.00  0.00    +0.074 C 
ATOM     12  H   UNL     1     -44.869  29.723   4.540  0.00  0.00    +0.197 HD
ENDBRANCH   2  11
BRANCH   1  14
ATOM     13  O   UNL     1     -37.216  26.077   2.929  0.00  0.00    -0.263 OA
ATOM     14  N   UNL     1     -38.963  24.674   3.697  0.00  0.00    -0.275 N 
ATOM     15  C   UNL     1     -37.671  25.129   3.546  0.00  0.00    +0.326 C 
ATOM     16  H   UNL     1     -39.087  23.883   4.270  0.00  0.00    +0.155 HD
BRANCH  15  18
ATOM     17  O   UNL     1     -35.872  24.801   5.055  0.00  0.00    -0.240 OA
ATOM     18  C   UNL     1     -36.691  24.294   4.313  0.00  0.00    +0.396 C 
BRANCH  18  19
ATOM     19  O   UNL     1     -36.888  22.995   4.003  0.00  0.00    -0.442 OA
BRANCH  19  20
ATOM     20  C   UNL     1     -36.195  22.530   2.853  0.00  0.00    +0.209 C 
BRANCH  20  21
ATOM     21  C   UNL     1     -35.520  21.207   3.186  0.00  0.00    +0.047 C 
BRANCH  21  22
ATOM     22  C   UNL     1     -35.577  20.234   2.012  0.00  0.00    +0.004 C 
ATOM     23  C   UNL     1     -34.197  19.698   1.665  0.00  0.00    +0.000 C 
ENDBRANCH  21  22
ENDBRANCH  20  21
ENDBRANCH  19  20
ENDBRANCH  18  19
ENDBRANCH  15  18
ENDBRANCH   1  14
TORSDOF 7
ENDMDL
MODEL 5
REMARK VINA RESULT:      -5.8      3.211      7.106
REMARK  Name = 5380
REMARK  7 active torsions:
REMARK  status: ('A' for Active; 'I' for Inactive)
REMARK    1  A    between atoms: C_1  and  N_14
REMARK    2  A    between atoms: C_2  and  C_11
REMARK    3  A    between atoms: C_15  and  C_18
REMARK    4  A    between atoms: C_18  and  O_19
REMARK    5  A    between atoms: O_19  and  C_20
REMARK    6  A    between atoms: C_20  and  C_21
REMARK    7  A    between atoms: C_21  and  C_22
REMARK                            x       y       z     vdW  Elec       q    Type
REMARK                         _______ _______ _______ _____ _____    ______ ____
ROOT
ATOM      1  C   UNL     1     -35.471  20.041   1.728  0.00  0.00    +0.051 C 
ATOM      2  C   UNL     1     -33.606  18.853   0.796  0.00  0.00    +0.067 C 
ATOM      3  C   UNL     1     -34.117  19.745   1.738  0.00  0.00    +0.025 C 
ATOM      4  C   UNL     1     -36.327  19.468   0.801  0.00  0.00    +0.015 C 
ATOM      5  C   UNL     1     -34.455  18.267  -0.144  0.00  0.00    +0.010 C 
ATOM      6  C   UNL     1     -35.816  18.576  -0.141  0.00  0.00    +0.002 C 
ENDROOT
BRANCH   2  11
ATOM      7  N   UNL     1     -31.294  19.239   0.119  0.00  0.00    -0.110 NA
ATOM      8  N   UNL     1     -31.698  17.477   1.484  0.00  0.00    -0.087 NA
ATOM      9  N   UNL     1     -30.198  18.539   0.447  0.00  0.00    -0.140 N 
ATOM     10  N   UNL     1     -30.391  17.486   1.254  0.00  0.00    -0.022 NA
ATOM     11  C   UNL     1     -32.205  18.535   0.792  0.00  0.00    +0.074 C 
ATOM     12  H   UNL     1     -29.305  18.784   0.114  0.00  0.00    +0.197 HD
ENDBRANCH   2  11
BRANCH   1  14
ATOM     13  O   UNL     1     -36.008  23.032   1.560  0.00  0.00    -0.263 OA
ATOM     14  N   UNL     1     -35.990  20.947   2.683  0.00  0.00    -0.275 N 
ATOM     15  C   UNL     1     -36.192  22.300   2.518  0.00  0.00    +0.326 C 
ATOM     16  H   UNL     1     -36.233  20.569   3.559  0.00  0.00    +0.155 HD
BRANCH  15  18
ATOM     17  O   UNL     1     -37.631  23.781   3.683  0.00  0.00    -0.240 OA
ATOM     18  C   UNL     1     -36.760  22.935   3.751  0.00  0.00    +0.396 C 
BRANCH  18  19
ATOM     19  O   UNL     1     -36.130  22.428   4.832  0.00  0.00    -0.442 OA
BRANCH  19  20
ATOM     20  C   UNL     1     -35.639  23.388   5.758  0.00  0.00    +0.209 C 
BRANCH  20  21
ATOM     21  C   UNL     1     -34.402  24.052   5.169  0.00  0.00    +0.047 C 
BRANCH  21  22
ATOM     22  C   UNL     1     -34.514  25.573   5.193  0.00  0.00    +0.004 C 
ATOM     23  C   UNL     1     -35.897  26.023   5.637  0.00  0.00    +0.000 C 
ENDBRANCH  21  22
ENDBRANCH  20  21
ENDBRANCH  19  20
ENDBRANCH  18  19
ENDBRANCH  15  18
ENDBRANCH   1  14
TORSDOF 7
ENDMDL
MODEL 6
REMARK VINA RESULT:      -5.8      3.896      7.625
REMARK  Name = 5380
REMARK  7 active torsions:
REMARK  status: ('A' for Active; 'I' for Inactive)
REMARK    1  A    between atoms: C_1  and  N_14
REMARK    2  A    between atoms: C_2  and  C_11
REMARK    3  A    between atoms: C_15  and  C_18
REMARK    4  A    between atoms: C_18  and  O_19
REMARK    5  A    between atoms: O_19  and  C_20
REMARK    6  A    between atoms: C_20  and  C_21
REMARK    7  A    between atoms: C_21  and  C_22
REMARK                            x       y       z     vdW  Elec       q    Type
REMARK                         _______ _______ _______ _____ _____    ______ ____
ROOT
ATOM      1  C   UNL     1     -35.195  24.032   4.325  0.00  0.00    +0.051 C 
ATOM      2  C   UNL     1     -35.373  21.737   3.645  0.00  0.00    +0.067 C 
ATOM      3  C   UNL     1     -35.311  23.091   3.314  0.00  0.00    +0.025 C 
ATOM      4  C   UNL     1     -35.139  23.655   5.658  0.00  0.00    +0.015 C 
ATOM      5  C   UNL     1     -35.319  21.342   4.982  0.00  0.00    +0.010 C 
ATOM      6  C   UNL     1     -35.202  22.301   5.988  0.00  0.00    +0.002 C 
ENDROOT
BRANCH   2  11
ATOM      7  N   UNL     1     -36.664  20.279   2.175  0.00  0.00    -0.110 NA
ATOM      8  N   UNL     1     -34.408  20.211   1.988  0.00  0.00    -0.087 NA
ATOM      9  N   UNL     1     -36.218  19.419   1.248  0.00  0.00    -0.140 N 
ATOM     10  N   UNL     1     -34.888  19.346   1.103  0.00  0.00    -0.022 NA
ATOM     11  C   UNL     1     -35.494  20.749   2.609  0.00  0.00    +0.074 C 
ATOM     12  H   UNL     1     -36.832  18.873   0.706  0.00  0.00    +0.197 HD
ENDBRANCH   2  11
BRANCH   1  14
ATOM     13  O   UNL     1     -32.814  25.850   3.792  0.00  0.00    -0.263 OA
ATOM     14  N   UNL     1     -35.131  25.404   3.991  0.00  0.00    -0.275 N 
ATOM     15  C   UNL     1     -33.995  26.153   3.774  0.00  0.00    +0.326 C 
ATOM     16  H   UNL     1     -35.992  25.875   3.902  0.00  0.00    +0.155 HD
BRANCH  15  18
ATOM     17  O   UNL     1     -35.077  27.857   2.530  0.00  0.00    -0.240 OA
ATOM     18  C   UNL     1     -34.319  27.578   3.438  0.00  0.00    +0.396 C 
BRANCH  18  19
ATOM     19  O   UNL     1     -33.629  28.389   4.268  0.00  0.00    -0.442 OA
BRANCH  19  20
ATOM     20  C   UNL     1     -32.887  29.422   3.633  0.00  0.00    +0.209 C 
BRANCH  20  21
ATOM     21  C   UNL     1     -31.637  29.706   4.455  0.00  0.00    +0.047 C 
BRANCH  21  22
ATOM     22  C   UNL     1     -31.971  30.417   5.762  0.00  0.00    +0.004 C 
ATOM     23  C   UNL     1     -31.581  29.578   6.968  0.00  0.00    +0.000 C 
ENDBRANCH  21  22
ENDBRANCH  20  21
ENDBRANCH  19  20
ENDBRANCH  18  19
ENDBRANCH  15  18
ENDBRANCH   1  14
TORSDOF 7
ENDMDL
MODEL 7
REMARK VINA RESULT:      -5.8      4.368      6.926
REMARK  Name = 5380
REMARK  7 active torsions:
REMARK  status: ('A' for Active; 'I' for Inactive)
REMARK    1  A    between atoms: C_1  and  N_14
REMARK    2  A    between atoms: C_2  and  C_11
REMARK    3  A    between atoms: C_15  and  C_18
REMARK    4  A    between atoms: C_18  and  O_19
REMARK    5  A    between atoms: O_19  and  C_20
REMARK    6  A    between atoms: C_20  and  C_21
REMARK    7  A    between atoms: C_21  and  C_22
REMARK                            x       y       z     vdW  Elec       q    Type
REMARK                         _______ _______ _______ _____ _____    ______ ____
ROOT
ATOM      1  C   UNL     1     -36.701  24.538   4.445  0.00  0.00    +0.051 C 
ATOM      2  C   UNL     1     -34.614  25.553   5.059  0.00  0.00    +0.067 C 
ATOM      3  C   UNL     1     -35.917  25.674   4.576  0.00  0.00    +0.025 C 
ATOM      4  C   UNL     1     -36.215  23.285   4.783  0.00  0.00    +0.015 C 
ATOM      5  C   UNL     1     -34.111  24.298   5.403  0.00  0.00    +0.010 C 
ATOM      6  C   UNL     1     -34.912  23.164   5.265  0.00  0.00    +0.002 C 
ENDROOT
BRANCH   2  11
ATOM      7  N   UNL     1     -33.015  26.949   6.262  0.00  0.00    -0.110 NA
ATOM      8  N   UNL     1     -33.737  27.693   4.249  0.00  0.00    -0.087 NA
ATOM      9  N   UNL     1     -32.488  28.125   5.893  0.00  0.00    -0.140 N 
ATOM     10  N   UNL     1     -32.888  28.604   4.708  0.00  0.00    -0.022 NA
ATOM     11  C   UNL     1     -33.789  26.720   5.200  0.00  0.00    +0.074 C 
ATOM     12  H   UNL     1     -31.846  28.609   6.461  0.00  0.00    +0.197 HD
ENDBRANCH   2  11
BRANCH   1  14
ATOM     13  O   UNL     1     -37.940  23.679   1.801  0.00  0.00    -0.263 OA
ATOM     14  N   UNL     1     -38.022  24.660   3.956  0.00  0.00    -0.275 N 
ATOM     15  C   UNL     1     -38.494  24.245   2.729  0.00  0.00    +0.326 C 
ATOM     16  H   UNL     1     -38.675  25.087   4.557  0.00  0.00    +0.155 HD
BRANCH  15  18
ATOM     17  O   UNL     1     -40.675  23.815   1.905  0.00  0.00    -0.240 OA
ATOM     18  C   UNL     1     -39.953  24.541   2.561  0.00  0.00    +0.396 C 
BRANCH  18  19
ATOM     19  O   UNL     1     -40.244  25.688   3.212  0.00  0.00    -0.442 OA
BRANCH  19  20
ATOM     20  C   UNL     1     -41.303  26.454   2.656  0.00  0.00    +0.209 C 
BRANCH  20  21
ATOM     21  C   UNL     1     -42.210  26.931   3.782  0.00  0.00    +0.047 C 
BRANCH  21  22
ATOM     22  C   UNL     1     -43.679  26.909   3.371  0.00  0.00    +0.004 C 
ATOM     23  C   UNL     1     -44.594  26.795   4.580  0.00  0.00    +0.000 C 
ENDBRANCH  21  22
ENDBRANCH  20  21
ENDBRANCH  19  20
ENDBRANCH  18  19
ENDBRANCH  15  18
ENDBRANCH   1  14
TORSDOF 7
ENDMDL
MODEL 8
REMARK VINA RESULT:      -5.7      4.694      7.146
REMARK  Name = 5380
REMARK  7 active torsions:
REMARK  status: ('A' for Active; 'I' for Inactive)
REMARK    1  A    between atoms: C_1  and  N_14
REMARK    2  A    between atoms: C_2  and  C_11
REMARK    3  A    between atoms: C_15  and  C_18
REMARK    4  A    between atoms: C_18  and  O_19
REMARK    5  A    between atoms: O_19  and  C_20
REMARK    6  A    between atoms: C_20  and  C_21
REMARK    7  A    between atoms: C_21  and  C_22
REMARK                            x       y       z     vdW  Elec       q    Type
REMARK                         _______ _______ _______ _____ _____    ______ ____
ROOT
ATOM      1  C   UNL     1     -39.235  24.811   3.104  0.00  0.00    +0.051 C 
ATOM      2  C   UNL     1     -40.348  23.601   1.356  0.00  0.00    +0.067 C 
ATOM      3  C   UNL     1     -39.321  23.688   2.296  0.00  0.00    +0.025 C 
ATOM      4  C   UNL     1     -40.148  25.848   2.997  0.00  0.00    +0.015 C 
ATOM      5  C   UNL     1     -41.275  24.636   1.236  0.00  0.00    +0.010 C 
ATOM      6  C   UNL     1     -41.175  25.760   2.057  0.00  0.00    +0.002 C 
ENDROOT
BRANCH   2  11
ATOM      7  N   UNL     1     -40.741  22.507  -0.790  0.00  0.00    -0.110 NA
ATOM      8  N   UNL     1     -40.260  21.181   0.981  0.00  0.00    -0.087 NA
ATOM      9  N   UNL     1     -40.714  21.199  -1.079  0.00  0.00    -0.140 N 
ATOM     10  N   UNL     1     -40.433  20.376  -0.060  0.00  0.00    -0.022 NA
ATOM     11  C   UNL     1     -40.451  22.444   0.510  0.00  0.00    +0.074 C 
ATOM     12  H   UNL     1     -40.890  20.862  -1.987  0.00  0.00    +0.197 HD
ENDBRANCH   2  11
BRANCH   1  14
ATOM     13  O   UNL     1     -36.548  26.237   3.000  0.00  0.00    -0.263 OA
ATOM     14  N   UNL     1     -38.194  24.901   4.057  0.00  0.00    -0.275 N 
ATOM     15  C   UNL     1     -36.997  25.569   3.917  0.00  0.00    +0.326 C 
ATOM     16  H   UNL     1     -38.341  24.437   4.914  0.00  0.00    +0.155 HD
BRANCH  15  18
ATOM     17  O   UNL     1     -35.587  26.412   5.627  0.00  0.00    -0.240 OA
ATOM     18  C   UNL     1     -36.139  25.444   5.140  0.00  0.00    +0.396 C 
BRANCH  18  19
ATOM     19  O   UNL     1     -36.104  24.149   5.518  0.00  0.00    -0.442 OA
BRANCH  19  20
ATOM     20  C   UNL     1     -34.978  23.411   5.063  0.00  0.00    +0.209 C 
BRANCH  20  21
ATOM     21  C   UNL     1     -35.436  22.018   4.651  0.00  0.00    +0.047 C 
BRANCH  21  22
ATOM     22  C   UNL     1     -35.947  21.995   3.214  0.00  0.00    +0.004 C 
ATOM     23  C   UNL     1     -35.108  22.885   2.310  0.00  0.00    +0.000 C 
ENDBRANCH  21  22
ENDBRANCH  20  21
ENDBRANCH  19  20
ENDBRANCH  18  19
ENDBRANCH  15  18
ENDBRANCH   1  14
TORSDOF 7
ENDMDL
MODEL 9
REMARK VINA RESULT:      -5.7      5.200      7.913
REMARK  Name = 5380
REMARK  7 active torsions:
REMARK  status: ('A' for Active; 'I' for Inactive)
REMARK    1  A    between atoms: C_1  and  N_14
REMARK    2  A    between atoms: C_2  and  C_11
REMARK    3  A    between atoms: C_15  and  C_18
REMARK    4  A    between atoms: C_18  and  O_19
REMARK    5  A    between atoms: O_19  and  C_20
REMARK    6  A    between atoms: C_20  and  C_21
REMARK    7  A    between atoms: C_21  and  C_22
REMARK                            x       y       z     vdW  Elec       q    Type
REMARK                         _______ _______ _______ _____ _____    ______ ____
ROOT
ATOM      1  C   UNL     1     -32.294  29.125   4.737  0.00  0.00    +0.051 C 
ATOM      2  C   UNL     1     -30.176  29.251   5.860  0.00  0.00    +0.067 C 
ATOM      3  C   UNL     1     -31.322  28.529   5.527  0.00  0.00    +0.025 C 
ATOM      4  C   UNL     1     -32.149  30.422   4.272  0.00  0.00    +0.015 C 
ATOM      5  C   UNL     1     -30.017  30.559   5.400  0.00  0.00    +0.010 C 
ATOM      6  C   UNL     1     -31.003  31.144   4.606  0.00  0.00    +0.002 C 
ENDROOT
BRANCH   2  11
ATOM      7  N   UNL     1     -28.538  29.291   7.668  0.00  0.00    -0.110 NA
ATOM      8  N   UNL     1     -28.751  27.363   6.498  0.00  0.00    -0.087 NA
ATOM      9  N   UNL     1     -27.723  28.309   8.079  0.00  0.00    -0.140 N 
ATOM     10  N   UNL     1     -27.815  27.149   7.415  0.00  0.00    -0.022 NA
ATOM     11  C   UNL     1     -29.160  28.650   6.678  0.00  0.00    +0.074 C 
ATOM     12  H   UNL     1     -27.093  28.434   8.825  0.00  0.00    +0.197 HD
ENDBRANCH   2  11
BRANCH   1  14
ATOM     13  O   UNL     1     -32.627  26.379   3.467  0.00  0.00    -0.263 OA
ATOM     14  N   UNL     1     -33.456  28.393   4.398  0.00  0.00    -0.275 N 
ATOM     15  C   UNL     1     -33.510  27.147   3.812  0.00  0.00    +0.326 C 
ATOM     16  H   UNL     1     -34.319  28.820   4.604  0.00  0.00    +0.155 HD
BRANCH  15  18
ATOM     17  O   UNL     1     -35.335  26.401   2.496  0.00  0.00    -0.240 OA
ATOM     18  C   UNL     1     -34.920  26.687   3.603  0.00  0.00    +0.396 C 
BRANCH  18  19
ATOM     19  O   UNL     1     -35.561  26.690   4.791  0.00  0.00    -0.442 OA
BRANCH  19  20
ATOM     20  C   UNL     1     -35.135  25.700   5.717  0.00  0.00    +0.209 C 
BRANCH  20  21
ATOM     21  C   UNL     1     -35.845  24.391   5.399  0.00  0.00    +0.047 C 
BRANCH  21  22
ATOM     22  C   UNL     1     -34.885  23.206   5.434  0.00  0.00    +0.004 C 
ATOM     23  C   UNL     1     -35.434  22.068   6.280  0.00  0.00    +0.000 C 
ENDBRANCH  21  22
ENDBRANCH  20  21
ENDBRANCH  19  20
ENDBRANCH  18  19
ENDBRANCH  15  18
ENDBRANCH   1  14
TORSDOF 7
ENDMDL
