MODEL 1
REMARK VINA RESULT:      -6.3      0.000      0.000
REMARK  Name = 54121177
REMARK  6 active torsions:
REMARK  status: ('A' for Active; 'I' for Inactive)
REMARK    1  A    between atoms: N_2  and  CA_9
REMARK    2  A    between atoms: C_3  and  C_19
REMARK    3  A    between atoms: CA_11  and  C_15
REMARK    4  A    between atoms: C_15  and  O_16
REMARK    5  A    between atoms: N_18  and  O_28
REMARK    6  A    between atoms: C_19  and  C_23
REMARK                            x       y       z     vdW  Elec       q    Type
REMARK                         _______ _______ _______ _____ _____    ______ ____
ROOT
ATOM      1  O   UNK A   0     -35.787  26.248   5.996  0.00  0.00    -0.268 OA
ATOM      2  N   MET A   1     -35.003  24.804   4.319  0.00  0.00    -0.291 N 
ATOM      3  C   UNK A   0     -34.943  25.872   5.198  0.00  0.00    +0.269 C 
ATOM      4  H   MET A   1     -34.232  24.630   3.733  0.00  0.00    +0.150 HD
ENDROOT
BRANCH   2   9
ATOM      5  SD  MET A   1     -38.705  24.325   2.969  0.00  0.00    -0.114 S 
ATOM      6  O   MET A   1     -35.140  21.563   4.213  0.00  0.00    -0.273 OA
ATOM      7  N   MET A   1     -36.694  22.581   2.768  0.00  0.00    -0.242 N 
ATOM      8  CE  MET A   1     -36.922  24.012   2.880  0.00  0.00    +0.155 C 
ATOM      9  CA  MET A   1     -36.166  23.924   4.225  0.00  0.00    +0.179 C 
ATOM     10  C   MET A   1     -35.824  22.465   3.791  0.00  0.00    +0.251 C 
ATOM     11  CA  MET A   1     -37.289  21.810   1.830  0.00  0.00    +0.127 C 
ATOM     12  CG  MET A   1     -39.053  23.565   1.340  0.00  0.00    +0.087 C 
ATOM     13  CB  MET A   1     -38.354  22.242   1.132  0.00  0.00    +0.007 C 
BRANCH  11  15
ATOM     14  OXT MET A   1     -36.352  20.041   0.549  0.00  0.00    -0.244 OA
ATOM     15  C   MET A   1     -36.818  20.444   1.600  0.00  0.00    +0.352 C 
BRANCH  15  16
ATOM     16  O   MET A   1     -36.981  19.712   2.722  0.00  0.00    -0.476 OA
ATOM     17  H   MET A   1     -36.263  19.595   3.314  0.00  0.00    +0.295 HD
ENDBRANCH  15  16
ENDBRANCH  11  15
ENDBRANCH   2   9
BRANCH   3  19
ATOM     18  N   UNK A   0     -33.044  27.018   6.202  0.00  0.00    -0.076 NA
ATOM     19  C   UNK A   0     -33.644  26.631   5.117  0.00  0.00    +0.198 C 
BRANCH  19  23
ATOM     20  S   UNK A   0     -32.459  28.072   1.597  0.00  0.00    -0.060 S 
ATOM     21  N   UNK A   0     -32.271  26.005   3.139  0.00  0.00    -0.383 NA
ATOM     22  N   UNK A   0     -31.094  25.845   1.093  0.00  0.00    -0.328 N 
ATOM     23  C   UNK A   0     -33.070  26.932   3.778  0.00  0.00    +0.148 C 
ATOM     24  C   UNK A   0     -33.286  28.113   3.100  0.00  0.00    +0.127 C 
ATOM     25  C   UNK A   0     -31.891  26.499   1.981  0.00  0.00    +0.204 C 
ATOM     26  H   UNK A   0     -30.848  26.276   0.244  0.00  0.00    +0.145 HD
ATOM     27  H   UNK A   0     -30.763  24.942   1.302  0.00  0.00    +0.145 HD
ENDBRANCH  19  23
BRANCH  18  28
ATOM     28  O   UNK A   0     -31.859  27.711   5.921  0.00  0.00    -0.373 OA
ATOM     29  C   UNK A   0     -31.839  28.891   6.708  0.00  0.00    +0.288 C 
ENDBRANCH  18  28
ENDBRANCH   3  19
TORSDOF 6
ENDMDL
MODEL 2
REMARK VINA RESULT:      -5.9      1.538      1.751
REMARK  Name = 54121177
REMARK  6 active torsions:
REMARK  status: ('A' for Active; 'I' for Inactive)
REMARK    1  A    between atoms: N_2  and  CA_9
REMARK    2  A    between atoms: C_3  and  C_19
REMARK    3  A    between atoms: CA_11  and  C_15
REMARK    4  A    between atoms: C_15  and  O_16
REMARK    5  A    between atoms: N_18  and  O_28
REMARK    6  A    between atoms: C_19  and  C_23
REMARK                            x       y       z     vdW  Elec       q    Type
REMARK                         _______ _______ _______ _____ _____    ______ ____
ROOT
ATOM      1  O   UNK A   0     -34.770  24.629   5.925  0.00  0.00    -0.268 OA
ATOM      2  N   MET A   1     -35.900  25.218   3.953  0.00  0.00    -0.291 N 
ATOM      3  C   UNK A   0     -34.954  25.349   4.958  0.00  0.00    +0.269 C 
ATOM      4  H   MET A   1     -35.920  25.889   3.235  0.00  0.00    +0.150 HD
ENDROOT
BRANCH   2   9
ATOM      5  SD  MET A   1     -39.432  23.948   2.665  0.00  0.00    -0.114 S 
ATOM      6  O   MET A   1     -35.397  22.013   4.026  0.00  0.00    -0.273 OA
ATOM      7  N   MET A   1     -37.118  22.624   2.542  0.00  0.00    -0.242 N 
ATOM      8  CE  MET A   1     -37.623  23.987   2.578  0.00  0.00    +0.155 C 
ATOM      9  CA  MET A   1     -36.866  24.123   3.918  0.00  0.00    +0.179 C 
ATOM     10  C   MET A   1     -36.244  22.738   3.562  0.00  0.00    +0.251 C 
ATOM     11  CA  MET A   1     -37.548  21.701   1.652  0.00  0.00    +0.127 C 
ATOM     12  CG  MET A   1     -39.621  23.046   1.083  0.00  0.00    +0.087 C 
ATOM     13  CB  MET A   1     -38.676  21.877   0.941  0.00  0.00    +0.007 C 
BRANCH  11  15
ATOM     14  OXT MET A   1     -36.209  20.120   0.488  0.00  0.00    -0.244 OA
ATOM     15  C   MET A   1     -36.817  20.443   1.493  0.00  0.00    +0.352 C 
BRANCH  15  16
ATOM     16  O   MET A   1     -36.924  19.710   2.621  0.00  0.00    -0.476 OA
ATOM     17  H   MET A   1     -36.247  19.745   3.268  0.00  0.00    +0.295 HD
ENDBRANCH  15  16
ENDBRANCH  11  15
ENDBRANCH   2   9
BRANCH   3  19
ATOM     18  N   UNK A   0     -33.303  26.952   5.751  0.00  0.00    -0.076 NA
ATOM     19  C   UNK A   0     -34.066  26.552   4.778  0.00  0.00    +0.198 C 
BRANCH  19  23
ATOM     20  S   UNK A   0     -33.555  28.041   1.119  0.00  0.00    -0.060 S 
ATOM     21  N   UNK A   0     -35.003  28.276   3.248  0.00  0.00    -0.383 NA
ATOM     22  N   UNK A   0     -35.555  29.757   1.489  0.00  0.00    -0.328 N 
ATOM     23  C   UNK A   0     -34.084  27.271   3.477  0.00  0.00    +0.148 C 
ATOM     24  C   UNK A   0     -33.216  27.001   2.440  0.00  0.00    +0.127 C 
ATOM     25  C   UNK A   0     -34.818  28.754   2.037  0.00  0.00    +0.204 C 
ATOM     26  H   UNK A   0     -35.361  30.066   0.575  0.00  0.00    +0.145 HD
ATOM     27  H   UNK A   0     -36.282  30.174   2.007  0.00  0.00    +0.145 HD
ENDBRANCH  19  23
BRANCH  18  28
ATOM     28  O   UNK A   0     -32.559  28.086   5.395  0.00  0.00    -0.373 OA
ATOM     29  C   UNK A   0     -31.790  28.481   6.519  0.00  0.00    +0.288 C 
ENDBRANCH  18  28
ENDBRANCH   3  19
TORSDOF 6
ENDMDL
MODEL 3
REMARK VINA RESULT:      -5.8      4.134      7.336
REMARK  Name = 54121177
REMARK  6 active torsions:
REMARK  status: ('A' for Active; 'I' for Inactive)
REMARK    1  A    between atoms: N_2  and  CA_9
REMARK    2  A    between atoms: C_3  and  C_19
REMARK    3  A    between atoms: CA_11  and  C_15
REMARK    4  A    between atoms: C_15  and  O_16
REMARK    5  A    between atoms: N_18  and  O_28
REMARK    6  A    between atoms: C_19  and  C_23
REMARK                            x       y       z     vdW  Elec       q    Type
REMARK                         _______ _______ _______ _____ _____    ______ ____
ROOT
ATOM      1  O   UNK A   0     -38.832  27.018   1.614  0.00  0.00    -0.268 OA
ATOM      2  N   MET A   1     -38.952  24.953   2.726  0.00  0.00    -0.291 N 
ATOM      3  C   UNK A   0     -39.441  26.140   2.205  0.00  0.00    +0.269 C 
ATOM      4  H   MET A   1     -39.577  24.344   3.179  0.00  0.00    +0.150 HD
ENDROOT
BRANCH   2   9
ATOM      5  SD  MET A   1     -35.210  25.774   3.765  0.00  0.00    -0.114 S 
ATOM      6  O   MET A   1     -37.628  22.008   2.402  0.00  0.00    -0.273 OA
ATOM      7  N   MET A   1     -36.409  23.391   3.865  0.00  0.00    -0.242 N 
ATOM      8  CE  MET A   1     -36.734  24.807   3.926  0.00  0.00    +0.155 C 
ATOM      9  CA  MET A   1     -37.545  24.571   2.631  0.00  0.00    +0.179 C 
ATOM     10  C   MET A   1     -37.281  23.056   2.893  0.00  0.00    +0.251 C 
ATOM     11  CA  MET A   1     -35.476  22.813   4.656  0.00  0.00    +0.127 C 
ATOM     12  CG  MET A   1     -34.436  25.047   5.257  0.00  0.00    +0.087 C 
ATOM     13  CB  MET A   1     -34.575  23.545   5.336  0.00  0.00    +0.007 C 
BRANCH  11  15
ATOM     14  OXT MET A   1     -35.143  20.625   3.793  0.00  0.00    -0.244 OA
ATOM     15  C   MET A   1     -35.387  21.355   4.737  0.00  0.00    +0.352 C 
BRANCH  15  16
ATOM     16  O   MET A   1     -35.618  20.956   6.006  0.00  0.00    -0.476 OA
ATOM     17  H   MET A   1     -34.975  20.446   6.460  0.00  0.00    +0.295 HD
ENDBRANCH  15  16
ENDBRANCH  11  15
ENDBRANCH   2   9
BRANCH   3  19
ATOM     18  N   UNK A   0     -41.367  26.802   3.538  0.00  0.00    -0.076 NA
ATOM     19  C   UNK A   0     -40.922  26.313   2.420  0.00  0.00    +0.198 C 
BRANCH  19  23
ATOM     20  S   UNK A   0     -43.382  25.931  -0.689  0.00  0.00    -0.060 S 
ATOM     21  N   UNK A   0     -42.307  24.607   1.254  0.00  0.00    -0.383 NA
ATOM     22  N   UNK A   0     -43.740  23.351  -0.146  0.00  0.00    -0.328 N 
ATOM     23  C   UNK A   0     -41.858  25.910   1.337  0.00  0.00    +0.148 C 
ATOM     24  C   UNK A   0     -42.330  26.773   0.371  0.00  0.00    +0.127 C 
ATOM     25  C   UNK A   0     -43.117  24.502   0.224  0.00  0.00    +0.204 C 
ATOM     26  H   UNK A   0     -44.334  23.344  -0.931  0.00  0.00    +0.145 HD
ATOM     27  H   UNK A   0     -43.596  22.525   0.370  0.00  0.00    +0.145 HD
ENDBRANCH  19  23
BRANCH  18  28
ATOM     28  O   UNK A   0     -42.766  26.880   3.550  0.00  0.00    -0.373 OA
ATOM     29  C   UNK A   0     -43.135  28.146   4.075  0.00  0.00    +0.288 C 
ENDBRANCH  18  28
ENDBRANCH   3  19
TORSDOF 6
ENDMDL
MODEL 4
REMARK VINA RESULT:      -5.8      4.065      6.583
REMARK  Name = 54121177
REMARK  6 active torsions:
REMARK  status: ('A' for Active; 'I' for Inactive)
REMARK    1  A    between atoms: N_2  and  CA_9
REMARK    2  A    between atoms: C_3  and  C_19
REMARK    3  A    between atoms: CA_11  and  C_15
REMARK    4  A    between atoms: C_15  and  O_16
REMARK    5  A    between atoms: N_18  and  O_28
REMARK    6  A    between atoms: C_19  and  C_23
REMARK                            x       y       z     vdW  Elec       q    Type
REMARK                         _______ _______ _______ _____ _____    ______ ____
ROOT
ATOM      1  O   UNK A   0     -36.182  22.047   0.695  0.00  0.00    -0.268 OA
ATOM      2  N   MET A   1     -34.688  20.599   1.784  0.00  0.00    -0.291 N 
ATOM      3  C   UNK A   0     -35.619  21.621   1.691  0.00  0.00    +0.269 C 
ATOM      4  H   MET A   1     -34.323  20.373   2.669  0.00  0.00    +0.150 HD
ENDROOT
BRANCH   2   9
ATOM      5  SD  MET A   1     -31.648  18.759   0.016  0.00  0.00    -0.114 S 
ATOM      6  O   MET A   1     -36.319  18.557  -0.138  0.00  0.00    -0.273 OA
ATOM      7  N   MET A   1     -34.129  17.821   0.311  0.00  0.00    -0.242 N 
ATOM      8  CE  MET A   1     -33.200  18.737   0.952  0.00  0.00    +0.155 C 
ATOM      9  CA  MET A   1     -34.225  19.845   0.622  0.00  0.00    +0.179 C 
ATOM     10  C   MET A   1     -35.168  18.674   0.209  0.00  0.00    +0.251 C 
ATOM     11  CA  MET A   1     -33.816  16.539   0.013  0.00  0.00    +0.127 C 
ATOM     12  CG  MET A   1     -31.328  16.972   0.249  0.00  0.00    +0.087 C 
ATOM     13  CB  MET A   1     -32.542  16.107   0.007  0.00  0.00    +0.007 C 
BRANCH  11  15
ATOM     14  OXT MET A   1     -34.968  15.098  -1.484  0.00  0.00    -0.244 OA
ATOM     15  C   MET A   1     -34.868  15.601  -0.379  0.00  0.00    +0.352 C 
BRANCH  15  16
ATOM     16  O   MET A   1     -35.698  15.388   0.664  0.00  0.00    -0.476 OA
ATOM     17  H   MET A   1     -36.626  15.399   0.534  0.00  0.00    +0.295 HD
ENDBRANCH  15  16
ENDBRANCH  11  15
ENDBRANCH   2   9
BRANCH   3  19
ATOM     18  N   UNK A   0     -35.578  21.667   4.124  0.00  0.00    -0.076 NA
ATOM     19  C   UNK A   0     -35.944  22.248   3.022  0.00  0.00    +0.198 C 
BRANCH  19  23
ATOM     20  S   UNK A   0     -37.303  25.991   2.927  0.00  0.00    -0.060 S 
ATOM     21  N   UNK A   0     -38.044  23.546   3.329  0.00  0.00    -0.383 NA
ATOM     22  N   UNK A   0     -39.759  25.162   3.527  0.00  0.00    -0.328 N 
ATOM     23  C   UNK A   0     -36.692  23.533   3.047  0.00  0.00    +0.148 C 
ATOM     24  C   UNK A   0     -36.115  24.761   2.801  0.00  0.00    +0.127 C 
ATOM     25  C   UNK A   0     -38.472  24.789   3.293  0.00  0.00    +0.204 C 
ATOM     26  H   UNK A   0     -40.011  26.112   3.483  0.00  0.00    +0.145 HD
ATOM     27  H   UNK A   0     -40.439  24.481   3.738  0.00  0.00    +0.145 HD
ENDBRANCH  19  23
BRANCH  18  28
ATOM     28  O   UNK A   0     -35.975  22.398   5.252  0.00  0.00    -0.373 OA
ATOM     29  C   UNK A   0     -35.171  21.992   6.349  0.00  0.00    +0.288 C 
ENDBRANCH  18  28
ENDBRANCH   3  19
TORSDOF 6
ENDMDL
MODEL 5
REMARK VINA RESULT:      -5.8      1.809      2.904
REMARK  Name = 54121177
REMARK  6 active torsions:
REMARK  status: ('A' for Active; 'I' for Inactive)
REMARK    1  A    between atoms: N_2  and  CA_9
REMARK    2  A    between atoms: C_3  and  C_19
REMARK    3  A    between atoms: CA_11  and  C_15
REMARK    4  A    between atoms: C_15  and  O_16
REMARK    5  A    between atoms: N_18  and  O_28
REMARK    6  A    between atoms: C_19  and  C_23
REMARK                            x       y       z     vdW  Elec       q    Type
REMARK                         _______ _______ _______ _____ _____    ______ ____
ROOT
ATOM      1  O   UNK A   0     -35.349  26.605   5.397  0.00  0.00    -0.268 OA
ATOM      2  N   MET A   1     -35.570  25.337   3.433  0.00  0.00    -0.291 N 
ATOM      3  C   UNK A   0     -34.923  26.153   4.346  0.00  0.00    +0.269 C 
ATOM      4  H   MET A   1     -35.085  25.056   2.625  0.00  0.00    +0.150 HD
ENDROOT
BRANCH   2   9
ATOM      5  SD  MET A   1     -39.411  25.941   2.639  0.00  0.00    -0.114 S 
ATOM      6  O   MET A   1     -36.703  22.325   3.852  0.00  0.00    -0.273 OA
ATOM      7  N   MET A   1     -38.090  23.628   2.468  0.00  0.00    -0.242 N 
ATOM      8  CE  MET A   1     -37.849  25.060   2.382  0.00  0.00    +0.155 C 
ATOM      9  CA  MET A   1     -36.944  24.877   3.621  0.00  0.00    +0.179 C 
ATOM     10  C   MET A   1     -37.140  23.348   3.382  0.00  0.00    +0.251 C 
ATOM     11  CA  MET A   1     -39.039  22.995   1.741  0.00  0.00    +0.127 C 
ATOM     12  CG  MET A   1     -40.239  25.163   1.204  0.00  0.00    +0.087 C 
ATOM     13  CB  MET A   1     -40.022  23.671   1.120  0.00  0.00    +0.007 C 
BRANCH  11  15
ATOM     14  OXT MET A   1     -38.175  20.859   1.160  0.00  0.00    -0.244 OA
ATOM     15  C   MET A   1     -39.051  21.533   1.671  0.00  0.00    +0.352 C 
BRANCH  15  16
ATOM     16  O   MET A   1     -40.174  21.060   2.253  0.00  0.00    -0.476 OA
ATOM     17  H   MET A   1     -40.220  20.163   2.521  0.00  0.00    +0.295 HD
ENDBRANCH  15  16
ENDBRANCH  11  15
ENDBRANCH   2   9
BRANCH   3  19
ATOM     18  N   UNK A   0     -32.875  25.734   3.099  0.00  0.00    -0.076 NA
ATOM     19  C   UNK A   0     -33.512  26.491   3.940  0.00  0.00    +0.198 C 
BRANCH  19  23
ATOM     20  S   UNK A   0     -32.013  30.057   4.893  0.00  0.00    -0.060 S 
ATOM     21  N   UNK A   0     -32.230  27.626   5.746  0.00  0.00    -0.383 NA
ATOM     22  N   UNK A   0     -31.051  29.092   7.179  0.00  0.00    -0.328 N 
ATOM     23  C   UNK A   0     -32.867  27.698   4.522  0.00  0.00    +0.148 C 
ATOM     24  C   UNK A   0     -32.855  28.933   3.909  0.00  0.00    +0.127 C 
ATOM     25  C   UNK A   0     -31.742  28.810   6.041  0.00  0.00    +0.204 C 
ATOM     26  H   UNK A   0     -30.715  30.003   7.336  0.00  0.00    +0.145 HD
ATOM     27  H   UNK A   0     -30.889  28.385   7.844  0.00  0.00    +0.145 HD
ENDBRANCH  19  23
BRANCH  18  28
ATOM     28  O   UNK A   0     -31.579  26.209   2.852  0.00  0.00    -0.373 OA
ATOM     29  C   UNK A   0     -31.399  26.294   1.447  0.00  0.00    +0.288 C 
ENDBRANCH  18  28
ENDBRANCH   3  19
TORSDOF 6
ENDMDL
MODEL 6
REMARK VINA RESULT:      -5.7      4.133      6.379
REMARK  Name = 54121177
REMARK  6 active torsions:
REMARK  status: ('A' for Active; 'I' for Inactive)
REMARK    1  A    between atoms: N_2  and  CA_9
REMARK    2  A    between atoms: C_3  and  C_19
REMARK    3  A    between atoms: CA_11  and  C_15
REMARK    4  A    between atoms: C_15  and  O_16
REMARK    5  A    between atoms: N_18  and  O_28
REMARK    6  A    between atoms: C_19  and  C_23
REMARK                            x       y       z     vdW  Elec       q    Type
REMARK                         _______ _______ _______ _____ _____    ______ ____
ROOT
ATOM      1  O   UNK A   0     -40.195  21.119   1.694  0.00  0.00    -0.268 OA
ATOM      2  N   MET A   1     -37.921  21.688   1.831  0.00  0.00    -0.291 N 
ATOM      3  C   UNK A   0     -39.285  21.927   1.799  0.00  0.00    +0.269 C 
ATOM      4  H   MET A   1     -37.310  22.455   1.920  0.00  0.00    +0.150 HD
ENDROOT
BRANCH   2   9
ATOM      5  SD  MET A   1     -37.449  18.431  -0.387  0.00  0.00    -0.114 S 
ATOM      6  O   MET A   1     -35.224  20.487   3.178  0.00  0.00    -0.273 OA
ATOM      7  N   MET A   1     -35.552  19.723   0.976  0.00  0.00    -0.242 N 
ATOM      8  CE  MET A   1     -36.830  19.976   0.330  0.00  0.00    +0.155 C 
ATOM      9  CA  MET A   1     -37.352  20.346   1.736  0.00  0.00    +0.179 C 
ATOM     10  C   MET A   1     -35.858  20.258   2.175  0.00  0.00    +0.251 C 
ATOM     11  CA  MET A   1     -34.515  19.120   0.351  0.00  0.00    +0.127 C 
ATOM     12  CG  MET A   1     -36.005  18.208  -1.488  0.00  0.00    +0.087 C 
ATOM     13  CB  MET A   1     -34.681  18.443  -0.800  0.00  0.00    +0.007 C 
BRANCH  11  15
ATOM     14  OXT MET A   1     -32.741  18.258   1.676  0.00  0.00    -0.244 OA
ATOM     15  C   MET A   1     -33.185  19.138   0.960  0.00  0.00    +0.352 C 
BRANCH  15  16
ATOM     16  O   MET A   1     -32.539  20.269   0.606  0.00  0.00    -0.476 OA
ATOM     17  H   MET A   1     -32.793  20.730  -0.170  0.00  0.00    +0.295 HD
ENDBRANCH  15  16
ENDBRANCH  11  15
ENDBRANCH   2   9
BRANCH   3  19
ATOM     18  N   UNK A   0     -40.836  23.797   1.652  0.00  0.00    -0.076 NA
ATOM     19  C   UNK A   0     -39.632  23.388   1.917  0.00  0.00    +0.198 C 
BRANCH  19  23
ATOM     20  S   UNK A   0     -36.707  26.062   2.317  0.00  0.00    -0.060 S 
ATOM     21  N   UNK A   0     -38.303  24.545   3.673  0.00  0.00    -0.383 NA
ATOM     22  N   UNK A   0     -36.820  25.856   4.967  0.00  0.00    -0.328 N 
ATOM     23  C   UNK A   0     -38.574  24.346   2.333  0.00  0.00    +0.148 C 
ATOM     24  C   UNK A   0     -37.813  25.080   1.448  0.00  0.00    +0.127 C 
ATOM     25  C   UNK A   0     -37.336  25.429   3.783  0.00  0.00    +0.204 C 
ATOM     26  H   UNK A   0     -36.095  26.522   4.976  0.00  0.00    +0.145 HD
ATOM     27  H   UNK A   0     -37.173  25.500   5.815  0.00  0.00    +0.145 HD
ENDBRANCH  19  23
BRANCH  18  28
ATOM     28  O   UNK A   0     -40.960  25.184   1.812  0.00  0.00    -0.373 OA
ATOM     29  C   UNK A   0     -42.215  25.581   1.280  0.00  0.00    +0.288 C 
ENDBRANCH  18  28
ENDBRANCH   3  19
TORSDOF 6
ENDMDL
MODEL 7
REMARK VINA RESULT:      -5.7      4.379      7.680
REMARK  Name = 54121177
REMARK  6 active torsions:
REMARK  status: ('A' for Active; 'I' for Inactive)
REMARK    1  A    between atoms: N_2  and  CA_9
REMARK    2  A    between atoms: C_3  and  C_19
REMARK    3  A    between atoms: CA_11  and  C_15
REMARK    4  A    between atoms: C_15  and  O_16
REMARK    5  A    between atoms: N_18  and  O_28
REMARK    6  A    between atoms: C_19  and  C_23
REMARK                            x       y       z     vdW  Elec       q    Type
REMARK                         _______ _______ _______ _____ _____    ______ ____
ROOT
ATOM      1  O   UNK A   0     -39.164  26.814   1.851  0.00  0.00    -0.268 OA
ATOM      2  N   MET A   1     -39.086  24.486   2.144  0.00  0.00    -0.291 N 
ATOM      3  C   UNK A   0     -39.689  25.715   1.929  0.00  0.00    +0.269 C 
ATOM      4  H   MET A   1     -39.653  23.683   2.183  0.00  0.00    +0.150 HD
ENDROOT
BRANCH   2   9
ATOM      5  SD  MET A   1     -35.799  25.811   3.930  0.00  0.00    -0.114 S 
ATOM      6  O   MET A   1     -37.256  21.811   1.993  0.00  0.00    -0.273 OA
ATOM      7  N   MET A   1     -36.583  23.269   3.713  0.00  0.00    -0.242 N 
ATOM      8  CE  MET A   1     -37.144  24.610   3.754  0.00  0.00    +0.155 C 
ATOM      9  CA  MET A   1     -37.644  24.335   2.318  0.00  0.00    +0.179 C 
ATOM     10  C   MET A   1     -37.187  22.866   2.577  0.00  0.00    +0.251 C 
ATOM     11  CA  MET A   1     -35.736  22.795   4.654  0.00  0.00    +0.127 C 
ATOM     12  CG  MET A   1     -35.213  25.120   5.521  0.00  0.00    +0.087 C 
ATOM     13  CB  MET A   1     -35.114  23.613   5.522  0.00  0.00    +0.007 C 
BRANCH  11  15
ATOM     14  OXT MET A   1     -35.130  20.689   3.732  0.00  0.00    -0.244 OA
ATOM     15  C   MET A   1     -35.424  21.366   4.702  0.00  0.00    +0.352 C 
BRANCH  15  16
ATOM     16  O   MET A   1     -35.513  20.925   5.975  0.00  0.00    -0.476 OA
ATOM     17  H   MET A   1     -36.259  20.428   6.247  0.00  0.00    +0.295 HD
ENDBRANCH  15  16
ENDBRANCH  11  15
ENDBRANCH   2   9
BRANCH   3  19
ATOM     18  N   UNK A   0     -41.728  24.531   1.324  0.00  0.00    -0.076 NA
ATOM     19  C   UNK A   0     -41.184  25.621   1.776  0.00  0.00    +0.198 C 
BRANCH  19  23
ATOM     20  S   UNK A   0     -43.368  28.940   2.056  0.00  0.00    -0.060 S 
ATOM     21  N   UNK A   0     -42.430  26.975   3.450  0.00  0.00    -0.383 NA
ATOM     22  N   UNK A   0     -43.709  28.550   4.666  0.00  0.00    -0.328 N 
ATOM     23  C   UNK A   0     -42.019  26.795   2.144  0.00  0.00    +0.148 C 
ATOM     24  C   UNK A   0     -42.430  27.756   1.245  0.00  0.00    +0.127 C 
ATOM     25  C   UNK A   0     -43.148  28.075   3.521  0.00  0.00    +0.204 C 
ATOM     26  H   UNK A   0     -44.236  29.381   4.646  0.00  0.00    +0.145 HD
ATOM     27  H   UNK A   0     -43.589  28.062   5.513  0.00  0.00    +0.145 HD
ENDBRANCH  19  23
BRANCH  18  28
ATOM     28  O   UNK A   0     -43.123  24.639   1.248  0.00  0.00    -0.373 OA
ATOM     29  C   UNK A   0     -43.527  24.255  -0.057  0.00  0.00    +0.288 C 
ENDBRANCH  18  28
ENDBRANCH   3  19
TORSDOF 6
ENDMDL
MODEL 8
REMARK VINA RESULT:      -5.6      2.427      7.556
REMARK  Name = 54121177
REMARK  6 active torsions:
REMARK  status: ('A' for Active; 'I' for Inactive)
REMARK    1  A    between atoms: N_2  and  CA_9
REMARK    2  A    between atoms: C_3  and  C_19
REMARK    3  A    between atoms: CA_11  and  C_15
REMARK    4  A    between atoms: C_15  and  O_16
REMARK    5  A    between atoms: N_18  and  O_28
REMARK    6  A    between atoms: C_19  and  C_23
REMARK                            x       y       z     vdW  Elec       q    Type
REMARK                         _______ _______ _______ _____ _____    ______ ____
ROOT
ATOM      1  O   UNK A   0     -34.847  24.700   1.630  0.00  0.00    -0.268 OA
ATOM      2  N   MET A   1     -34.435  25.962   3.567  0.00  0.00    -0.291 N 
ATOM      3  C   UNK A   0     -34.933  24.899   2.832  0.00  0.00    +0.269 C 
ATOM      4  H   MET A   1     -34.590  25.977   4.538  0.00  0.00    +0.150 HD
ENDROOT
BRANCH   2   9
ATOM      5  SD  MET A   1     -34.597  29.298   1.423  0.00  0.00    -0.114 S 
ATOM      6  O   MET A   1     -31.682  27.380   4.538  0.00  0.00    -0.273 OA
ATOM      7  N   MET A   1     -33.244  28.924   3.693  0.00  0.00    -0.242 N 
ATOM      8  CE  MET A   1     -34.420  28.423   3.000  0.00  0.00    +0.155 C 
ATOM      9  CA  MET A   1     -33.689  27.062   2.959  0.00  0.00    +0.179 C 
ATOM     10  C   MET A   1     -32.654  27.732   3.914  0.00  0.00    +0.251 C 
ATOM     11  CA  MET A   1     -33.032  30.238   3.932  0.00  0.00    +0.127 C 
ATOM     12  CG  MET A   1     -34.748  30.947   2.205  0.00  0.00    +0.087 C 
ATOM     13  CB  MET A   1     -33.727  31.194   3.290  0.00  0.00    +0.007 C 
BRANCH  11  15
ATOM     14  OXT MET A   1     -31.058  31.396   4.573  0.00  0.00    -0.244 OA
ATOM     15  C   MET A   1     -31.979  30.651   4.860  0.00  0.00    +0.352 C 
BRANCH  15  16
ATOM     16  O   MET A   1     -32.187  30.083   6.066  0.00  0.00    -0.476 OA
ATOM     17  H   MET A   1     -32.200  30.615   6.838  0.00  0.00    +0.295 HD
ENDBRANCH  15  16
ENDBRANCH  11  15
ENDBRANCH   2   9
BRANCH   3  19
ATOM     18  N   UNK A   0     -35.561  23.921   4.971  0.00  0.00    -0.076 NA
ATOM     19  C   UNK A   0     -35.662  23.887   3.676  0.00  0.00    +0.198 C 
BRANCH  19  23
ATOM     20  S   UNK A   0     -38.397  21.620   1.875  0.00  0.00    -0.060 S 
ATOM     21  N   UNK A   0     -35.958  21.603   2.733  0.00  0.00    -0.383 NA
ATOM     22  N   UNK A   0     -36.687  19.586   1.737  0.00  0.00    -0.328 N 
ATOM     23  C   UNK A   0     -36.488  22.850   3.002  0.00  0.00    +0.148 C 
ATOM     24  C   UNK A   0     -37.795  23.047   2.610  0.00  0.00    +0.127 C 
ATOM     25  C   UNK A   0     -36.876  20.872   2.140  0.00  0.00    +0.204 C 
ATOM     26  H   UNK A   0     -37.419  19.096   1.298  0.00  0.00    +0.145 HD
ATOM     27  H   UNK A   0     -35.819  19.146   1.884  0.00  0.00    +0.145 HD
ENDBRANCH  19  23
BRANCH  18  28
ATOM     28  O   UNK A   0     -36.303  22.898   5.577  0.00  0.00    -0.373 OA
ATOM     29  C   UNK A   0     -35.421  22.125   6.375  0.00  0.00    +0.288 C 
ENDBRANCH  18  28
ENDBRANCH   3  19
TORSDOF 6
ENDMDL
MODEL 9
REMARK VINA RESULT:      -5.6      3.934      7.283
REMARK  Name = 54121177
REMARK  6 active torsions:
REMARK  status: ('A' for Active; 'I' for Inactive)
REMARK    1  A    between atoms: N_2  and  CA_9
REMARK    2  A    between atoms: C_3  and  C_19
REMARK    3  A    between atoms: CA_11  and  C_15
REMARK    4  A    between atoms: C_15  and  O_16
REMARK    5  A    between atoms: N_18  and  O_28
REMARK    6  A    between atoms: C_19  and  C_23
REMARK                            x       y       z     vdW  Elec       q    Type
REMARK                         _______ _______ _______ _____ _____    ______ ____
ROOT
ATOM      1  O   UNK A   0     -34.817  20.188   3.393  0.00  0.00    -0.268 OA
ATOM      2  N   MET A   1     -36.365  21.328   2.047  0.00  0.00    -0.291 N 
ATOM      3  C   UNK A   0     -35.377  20.399   2.330  0.00  0.00    +0.269 C 
ATOM      4  H   MET A   1     -36.718  21.376   1.130  0.00  0.00    +0.150 HD
ENDROOT
BRANCH   2   9
ATOM      5  SD  MET A   1     -35.618  23.556   5.245  0.00  0.00    -0.114 S 
ATOM      6  O   MET A   1     -38.794  23.467   1.812  0.00  0.00    -0.273 OA
ATOM      7  N   MET A   1     -36.985  24.289   3.073  0.00  0.00    -0.242 N 
ATOM      8  CE  MET A   1     -35.932  23.369   3.470  0.00  0.00    +0.155 C 
ATOM      9  CA  MET A   1     -36.902  22.240   3.053  0.00  0.00    +0.179 C 
ATOM     10  C   MET A   1     -37.782  23.387   2.466  0.00  0.00    +0.251 C 
ATOM     11  CA  MET A   1     -36.947  25.614   3.341  0.00  0.00    +0.127 C 
ATOM     12  CG  MET A   1     -35.154  25.322   5.110  0.00  0.00    +0.087 C 
ATOM     13  CB  MET A   1     -36.096  26.128   4.247  0.00  0.00    +0.007 C 
BRANCH  11  15
ATOM     14  OXT MET A   1     -37.615  27.253   1.754  0.00  0.00    -0.244 OA
ATOM     15  C   MET A   1     -37.893  26.520   2.687  0.00  0.00    +0.352 C 
BRANCH  15  16
ATOM     16  O   MET A   1     -39.103  26.414   3.275  0.00  0.00    -0.476 OA
ATOM     17  H   MET A   1     -39.294  26.912   4.046  0.00  0.00    +0.295 HD
ENDBRANCH  15  16
ENDBRANCH  11  15
ENDBRANCH   2   9
BRANCH   3  19
ATOM     18  N   UNK A   0     -35.902  19.036   0.383  0.00  0.00    -0.076 NA
ATOM     19  C   UNK A   0     -34.987  19.569   1.135  0.00  0.00    +0.198 C 
BRANCH  19  23
ATOM     20  S   UNK A   0     -31.177  19.654  -0.024  0.00  0.00    -0.060 S 
ATOM     21  N   UNK A   0     -32.881  18.258   1.329  0.00  0.00    -0.383 NA
ATOM     22  N   UNK A   0     -30.694  17.363   1.240  0.00  0.00    -0.328 N 
ATOM     23  C   UNK A   0     -33.543  19.367   0.841  0.00  0.00    +0.148 C 
ATOM     24  C   UNK A   0     -32.786  20.238   0.086  0.00  0.00    +0.127 C 
ATOM     25  C   UNK A   0     -31.628  18.304   0.936  0.00  0.00    +0.204 C 
ATOM     26  H   UNK A   0     -29.772  17.462   0.912  0.00  0.00    +0.145 HD
ATOM     27  H   UNK A   0     -30.941  16.585   1.790  0.00  0.00    +0.145 HD
ENDBRANCH  19  23
BRANCH  18  28
ATOM     28  O   UNK A   0     -35.344  18.298  -0.670  0.00  0.00    -0.373 OA
ATOM     29  C   UNK A   0     -35.967  17.024  -0.697  0.00  0.00    +0.288 C 
ENDBRANCH  18  28
ENDBRANCH   3  19
TORSDOF 6
ENDMDL
