MODEL 1
REMARK VINA RESULT:      -6.8      0.000      0.000
REMARK  Name = 5466602
REMARK  2 active torsions:
REMARK  status: ('A' for Active; 'I' for Inactive)
REMARK    1  A    between atoms: C_10  and  O_34
REMARK    2  A    between atoms: C_14  and  O_36
REMARK                            x       y       z     vdW  Elec       q    Type
REMARK                         _______ _______ _______ _____ _____    ______ ____
ROOT
ATOM      1  S   UNL     1     -35.167  29.160   2.609  0.00  0.00    -0.107 S 
ATOM      2  O   UNL     1     -33.357  27.720   4.928  0.00  0.00    -0.451 OA
ATOM      3  O   UNL     1     -35.405  20.621   3.933  0.00  0.00    -0.447 OA
ATOM      4  O   UNL     1     -32.576  26.216   3.357  0.00  0.00    -0.248 OA
ATOM      5  O   UNL     1     -35.683  24.499   5.617  0.00  0.00    -0.268 OA
ATOM      6  O   UNL     1     -34.100  29.786  -0.273  0.00  0.00    -0.270 OA
ATOM      7  N   UNL     1     -35.116  25.122   3.456  0.00  0.00    -0.291 N 
ATOM      8  N   UNL     1     -35.126  22.482   2.689  0.00  0.00    -0.367 NA
ATOM      9  N   UNL     1     -32.529  28.124   0.165  0.00  0.00    -0.297 N 
ATOM     10  C   UNL     1     -34.569  20.823   0.238  0.00  0.00    +0.124 C 
ATOM     11  C   UNL     1     -33.316  21.714   0.216  0.00  0.00    +0.064 C 
ATOM     12  C   UNL     1     -34.865  20.196   1.610  0.00  0.00    +0.128 C 
ATOM     13  C   UNL     1     -34.963  26.553   3.690  0.00  0.00    +0.183 C 
ATOM     14  C   UNL     1     -32.960  22.202  -1.200  0.00  0.00    +0.135 C 
ATOM     15  C   UNL     1     -32.123  28.468   4.964  0.00  0.00    +0.173 C 
ATOM     16  C   UNL     1     -32.358  29.782   4.202  0.00  0.00    +0.070 C 
ATOM     17  C   UNL     1     -35.417  27.351   2.461  0.00  0.00    +0.093 C 
ATOM     18  C   UNL     1     -35.127  21.165   2.708  0.00  0.00    +0.255 C 
ATOM     19  C   UNL     1     -33.487  26.753   3.972  0.00  0.00    +0.336 C 
ATOM     20  C   UNL     1     -32.453  29.571   2.711  0.00  0.00    -0.012 C 
ATOM     21  C   UNL     1     -31.812  28.740   6.430  0.00  0.00    +0.048 C 
ATOM     22  C   UNL     1     -33.555  29.307   1.987  0.00  0.00    +0.075 C 
ATOM     23  C   UNL     1     -31.863  23.233  -1.142  0.00  0.00    +0.003 C 
ATOM     24  C   UNL     1     -35.389  22.838   3.991  0.00  0.00    +0.209 C 
ATOM     25  C   UNL     1     -35.425  24.210   4.453  0.00  0.00    +0.276 C 
ATOM     26  C   UNL     1     -35.574  21.701   4.744  0.00  0.00    +0.271 C 
ATOM     27  C   UNL     1     -33.421  29.128   0.511  0.00  0.00    +0.251 C 
ATOM     28  C   UNL     1     -31.978  24.565  -1.278  0.00  0.00    -0.002 C 
ATOM     29  C   UNL     1     -32.329  27.682  -1.203  0.00  0.00    +0.116 C 
ATOM     30  C   UNL     1     -33.197  25.298  -1.536  0.00  0.00    -0.003 C 
ATOM     31  C   UNL     1     -33.353  26.631  -1.510  0.00  0.00    -0.005 C 
ATOM     32  H   UNL     1     -34.992  24.785   2.539  0.00  0.00    +0.150 HD
ATOM     33  H   UNL     1     -32.008  27.693   0.880  0.00  0.00    +0.150 HD
ENDROOT
BRANCH  10  34
ATOM     34  O   UNL     1     -35.698  21.577  -0.201  0.00  0.00    -0.384 OA
ATOM     35  H   UNL     1     -35.475  22.044  -1.022  0.00  0.00    +0.210 HD
ENDBRANCH  10  34
BRANCH  14  36
ATOM     36  O   UNL     1     -32.517  21.102  -1.995  0.00  0.00    -0.380 OA
ATOM     37  H   UNL     1     -32.813  21.225  -2.911  0.00  0.00    +0.211 HD
ENDBRANCH  14  36
TORSDOF 2
ENDMDL
MODEL 2
REMARK VINA RESULT:      -6.5      4.041      6.572
REMARK  Name = 5466602
REMARK  2 active torsions:
REMARK  status: ('A' for Active; 'I' for Inactive)
REMARK    1  A    between atoms: C_10  and  O_34
REMARK    2  A    between atoms: C_14  and  O_36
REMARK                            x       y       z     vdW  Elec       q    Type
REMARK                         _______ _______ _______ _____ _____    ______ ____
ROOT
ATOM      1  S   UNL     1     -34.750  32.396  -0.806  0.00  0.00    -0.107 S 
ATOM      2  O   UNL     1     -37.464  32.094   1.002  0.00  0.00    -0.451 OA
ATOM      3  O   UNL     1     -36.616  25.100   3.438  0.00  0.00    -0.447 OA
ATOM      4  O   UNL     1     -36.180  31.346   2.770  0.00  0.00    -0.248 OA
ATOM      5  O   UNL     1     -37.935  28.098   0.750  0.00  0.00    -0.268 OA
ATOM      6  O   UNL     1     -32.082  33.636   0.279  0.00  0.00    -0.270 OA
ATOM      7  N   UNL     1     -35.879  29.026   1.290  0.00  0.00    -0.291 N 
ATOM      8  N   UNL     1     -35.315  26.858   2.884  0.00  0.00    -0.367 NA
ATOM      9  N   UNL     1     -32.925  33.101   2.383  0.00  0.00    -0.297 N 
ATOM     10  C   UNL     1     -33.138  25.895   4.728  0.00  0.00    +0.124 C 
ATOM     11  C   UNL     1     -33.287  27.330   5.260  0.00  0.00    +0.064 C 
ATOM     12  C   UNL     1     -34.471  25.149   4.565  0.00  0.00    +0.128 C 
ATOM     13  C   UNL     1     -36.034  30.291   0.582  0.00  0.00    +0.183 C 
ATOM     14  C   UNL     1     -31.931  27.997   5.558  0.00  0.00    +0.135 C 
ATOM     15  C   UNL     1     -37.677  33.398   1.585  0.00  0.00    +0.173 C 
ATOM     16  C   UNL     1     -36.792  34.395   0.820  0.00  0.00    +0.070 C 
ATOM     17  C   UNL     1     -34.688  30.759   0.014  0.00  0.00    +0.093 C 
ATOM     18  C   UNL     1     -35.428  25.762   3.604  0.00  0.00    +0.255 C 
ATOM     19  C   UNL     1     -36.573  31.261   1.615  0.00  0.00    +0.336 C 
ATOM     20  C   UNL     1     -35.328  34.233   1.151  0.00  0.00    -0.012 C 
ATOM     21  C   UNL     1     -39.152  33.730   1.402  0.00  0.00    +0.048 C 
ATOM     22  C   UNL     1     -34.432  33.437   0.543  0.00  0.00    +0.075 C 
ATOM     23  C   UNL     1     -32.120  29.459   5.870  0.00  0.00    +0.003 C 
ATOM     24  C   UNL     1     -36.517  26.951   2.221  0.00  0.00    +0.209 C 
ATOM     25  C   UNL     1     -36.864  28.052   1.346  0.00  0.00    +0.276 C 
ATOM     26  C   UNL     1     -37.301  25.869   2.548  0.00  0.00    +0.271 C 
ATOM     27  C   UNL     1     -33.024  33.428   1.038  0.00  0.00    +0.251 C 
ATOM     28  C   UNL     1     -31.870  30.509   5.070  0.00  0.00    -0.002 C 
ATOM     29  C   UNL     1     -31.653  32.905   3.056  0.00  0.00    +0.116 C 
ATOM     30  C   UNL     1     -31.335  30.457   3.728  0.00  0.00    -0.003 C 
ATOM     31  C   UNL     1     -31.237  31.479   2.863  0.00  0.00    -0.005 C 
ATOM     32  H   UNL     1     -35.028  28.855   1.755  0.00  0.00    +0.150 HD
ATOM     33  H   UNL     1     -33.753  32.998   2.903  0.00  0.00    +0.150 HD
ENDROOT
BRANCH  10  34
ATOM     34  O   UNL     1     -32.443  25.918   3.483  0.00  0.00    -0.384 OA
ATOM     35  H   UNL     1     -32.696  26.712   2.985  0.00  0.00    +0.210 HD
ENDBRANCH  10  34
BRANCH  14  36
ATOM     36  O   UNL     1     -31.314  27.362   6.678  0.00  0.00    -0.380 OA
ATOM     37  H   UNL     1     -31.498  26.410   6.651  0.00  0.00    +0.211 HD
ENDBRANCH  14  36
TORSDOF 2
ENDMDL
MODEL 3
REMARK VINA RESULT:      -6.5      2.058      5.315
REMARK  Name = 5466602
REMARK  2 active torsions:
REMARK  status: ('A' for Active; 'I' for Inactive)
REMARK    1  A    between atoms: C_10  and  O_34
REMARK    2  A    between atoms: C_14  and  O_36
REMARK                            x       y       z     vdW  Elec       q    Type
REMARK                         _______ _______ _______ _____ _____    ______ ____
ROOT
ATOM      1  S   UNL     1     -31.258  27.684   3.062  0.00  0.00    -0.107 S 
ATOM      2  O   UNL     1     -32.863  28.264   0.267  0.00  0.00    -0.451 OA
ATOM      3  O   UNL     1     -33.030  21.373  -2.573  0.00  0.00    -0.447 OA
ATOM      4  O   UNL     1     -34.325  26.548   0.773  0.00  0.00    -0.248 OA
ATOM      5  O   UNL     1     -31.387  25.227  -1.936  0.00  0.00    -0.268 OA
ATOM      6  O   UNL     1     -32.694  27.139   5.796  0.00  0.00    -0.270 OA
ATOM      7  N   UNL     1     -32.204  24.863   0.204  0.00  0.00    -0.291 N 
ATOM      8  N   UNL     1     -33.056  22.358  -0.544  0.00  0.00    -0.367 NA
ATOM      9  N   UNL     1     -34.524  26.541   4.486  0.00  0.00    -0.297 N 
ATOM     10  C   UNL     1     -34.531  20.011   0.633  0.00  0.00    +0.124 C 
ATOM     11  C   UNL     1     -35.478  21.138   1.078  0.00  0.00    +0.064 C 
ATOM     12  C   UNL     1     -34.135  20.077  -0.850  0.00  0.00    +0.128 C 
ATOM     13  C   UNL     1     -31.919  26.180   0.758  0.00  0.00    +0.183 C 
ATOM     14  C   UNL     1     -35.978  20.959   2.523  0.00  0.00    +0.135 C 
ATOM     15  C   UNL     1     -33.818  29.299   0.586  0.00  0.00    +0.173 C 
ATOM     16  C   UNL     1     -33.406  29.906   1.937  0.00  0.00    +0.070 C 
ATOM     17  C   UNL     1     -31.535  26.071   2.239  0.00  0.00    +0.093 C 
ATOM     18  C   UNL     1     -33.402  21.307  -1.257  0.00  0.00    +0.255 C 
ATOM     19  C   UNL     1     -33.197  26.975   0.570  0.00  0.00    +0.336 C 
ATOM     20  C   UNL     1     -33.682  28.975   3.092  0.00  0.00    -0.012 C 
ATOM     21  C   UNL     1     -33.734  30.338  -0.524  0.00  0.00    +0.048 C 
ATOM     22  C   UNL     1     -32.866  28.039   3.607  0.00  0.00    +0.075 C 
ATOM     23  C   UNL     1     -36.724  22.186   2.978  0.00  0.00    +0.003 C 
ATOM     24  C   UNL     1     -32.444  23.193  -1.449  0.00  0.00    +0.209 C 
ATOM     25  C   UNL     1     -31.949  24.512  -1.113  0.00  0.00    +0.276 C 
ATOM     26  C   UNL     1     -32.416  22.583  -2.682  0.00  0.00    +0.271 C 
ATOM     27  C   UNL     1     -33.345  27.219   4.758  0.00  0.00    +0.251 C 
ATOM     28  C   UNL     1     -36.289  23.154   3.803  0.00  0.00    -0.002 C 
ATOM     29  C   UNL     1     -35.115  25.583   5.404  0.00  0.00    +0.116 C 
ATOM     30  C   UNL     1     -35.001  23.209   4.456  0.00  0.00    -0.003 C 
ATOM     31  C   UNL     1     -34.495  24.243   5.145  0.00  0.00    -0.005 C 
ATOM     32  H   UNL     1     -32.601  24.185   0.798  0.00  0.00    +0.150 HD
ATOM     33  H   UNL     1     -34.981  26.717   3.633  0.00  0.00    +0.150 HD
ENDROOT
BRANCH  10  34
ATOM     34  O   UNL     1     -33.360  20.025   1.447  0.00  0.00    -0.384 OA
ATOM     35  H   UNL     1     -33.598  20.281   2.353  0.00  0.00    +0.210 HD
ENDBRANCH  10  34
BRANCH  14  36
ATOM     36  O   UNL     1     -36.853  19.833   2.597  0.00  0.00    -0.380 OA
ATOM     37  H   UNL     1     -37.774  20.136   2.550  0.00  0.00    +0.211 HD
ENDBRANCH  14  36
TORSDOF 2
ENDMDL
MODEL 4
REMARK VINA RESULT:      -6.5      4.383      7.563
REMARK  Name = 5466602
REMARK  2 active torsions:
REMARK  status: ('A' for Active; 'I' for Inactive)
REMARK    1  A    between atoms: C_10  and  O_34
REMARK    2  A    between atoms: C_14  and  O_36
REMARK                            x       y       z     vdW  Elec       q    Type
REMARK                         _______ _______ _______ _____ _____    ______ ____
ROOT
ATOM      1  S   UNL     1     -41.346  26.335  -0.405  0.00  0.00    -0.107 S 
ATOM      2  O   UNL     1     -38.558  27.174  -1.904  0.00  0.00    -0.451 OA
ATOM      3  O   UNL     1     -33.891  27.068   3.909  0.00  0.00    -0.447 OA
ATOM      4  O   UNL     1     -37.516  25.349  -0.945  0.00  0.00    -0.248 OA
ATOM      5  O   UNL     1     -36.650  28.847   1.229  0.00  0.00    -0.268 OA
ATOM      6  O   UNL     1     -42.406  23.387  -0.256  0.00  0.00    -0.270 OA
ATOM      7  N   UNL     1     -37.674  26.775   1.422  0.00  0.00    -0.291 N 
ATOM      8  N   UNL     1     -35.750  25.989   3.223  0.00  0.00    -0.367 NA
ATOM      9  N   UNL     1     -40.191  22.784  -0.643  0.00  0.00    -0.297 N 
ATOM     10  C   UNL     1     -34.981  23.549   4.811  0.00  0.00    +0.124 C 
ATOM     11  C   UNL     1     -35.186  22.888   3.438  0.00  0.00    +0.064 C 
ATOM     12  C   UNL     1     -34.111  24.815   4.770  0.00  0.00    +0.128 C 
ATOM     13  C   UNL     1     -38.715  26.967   0.421  0.00  0.00    +0.183 C 
ATOM     14  C   UNL     1     -35.930  21.543   3.531  0.00  0.00    +0.135 C 
ATOM     15  C   UNL     1     -38.632  26.564  -3.211  0.00  0.00    +0.173 C 
ATOM     16  C   UNL     1     -40.092  26.138  -3.439  0.00  0.00    +0.070 C 
ATOM     17  C   UNL     1     -40.003  26.245   0.837  0.00  0.00    +0.093 C 
ATOM     18  C   UNL     1     -34.649  25.928   3.943  0.00  0.00    +0.255 C 
ATOM     19  C   UNL     1     -38.143  26.396  -0.862  0.00  0.00    +0.336 C 
ATOM     20  C   UNL     1     -40.475  24.940  -2.605  0.00  0.00    -0.012 C 
ATOM     21  C   UNL     1     -38.213  27.625  -4.220  0.00  0.00    +0.048 C 
ATOM     22  C   UNL     1     -40.985  24.934  -1.361  0.00  0.00    +0.075 C 
ATOM     23  C   UNL     1     -36.291  21.044   2.156  0.00  0.00    +0.003 C 
ATOM     24  C   UNL     1     -35.707  27.237   2.646  0.00  0.00    +0.209 C 
ATOM     25  C   UNL     1     -36.702  27.721   1.712  0.00  0.00    +0.276 C 
ATOM     26  C   UNL     1     -34.580  27.899   3.078  0.00  0.00    +0.271 C 
ATOM     27  C   UNL     1     -41.292  23.624  -0.715  0.00  0.00    +0.251 C 
ATOM     28  C   UNL     1     -37.495  21.073   1.561  0.00  0.00    -0.002 C 
ATOM     29  C   UNL     1     -40.212  21.511   0.054  0.00  0.00    +0.116 C 
ATOM     30  C   UNL     1     -38.723  21.576   2.134  0.00  0.00    -0.003 C 
ATOM     31  C   UNL     1     -39.889  21.762   1.496  0.00  0.00    -0.005 C 
ATOM     32  H   UNL     1     -37.659  25.924   1.920  0.00  0.00    +0.150 HD
ATOM     33  H   UNL     1     -39.358  23.063  -1.086  0.00  0.00    +0.150 HD
ENDROOT
BRANCH  10  34
ATOM     34  O   UNL     1     -36.250  23.853   5.387  0.00  0.00    -0.384 OA
ATOM     35  H   UNL     1     -36.355  24.817   5.448  0.00  0.00    +0.210 HD
ENDBRANCH  10  34
BRANCH  14  36
ATOM     36  O   UNL     1     -35.100  20.573   4.170  0.00  0.00    -0.380 OA
ATOM     37  H   UNL     1     -34.514  20.165   3.513  0.00  0.00    +0.211 HD
ENDBRANCH  14  36
TORSDOF 2
ENDMDL
MODEL 5
REMARK VINA RESULT:      -6.5      2.432      7.037
REMARK  Name = 5466602
REMARK  2 active torsions:
REMARK  status: ('A' for Active; 'I' for Inactive)
REMARK    1  A    between atoms: C_10  and  O_34
REMARK    2  A    between atoms: C_14  and  O_36
REMARK                            x       y       z     vdW  Elec       q    Type
REMARK                         _______ _______ _______ _____ _____    ______ ____
ROOT
ATOM      1  S   UNL     1     -35.074  24.570  -2.958  0.00  0.00    -0.107 S 
ATOM      2  O   UNL     1     -31.968  24.801  -1.948  0.00  0.00    -0.451 OA
ATOM      3  O   UNL     1     -33.035  27.689   4.842  0.00  0.00    -0.447 OA
ATOM      4  O   UNL     1     -32.538  23.696  -0.001  0.00  0.00    -0.248 OA
ATOM      5  O   UNL     1     -32.389  27.850   0.657  0.00  0.00    -0.268 OA
ATOM      6  O   UNL     1     -36.792  21.962  -2.673  0.00  0.00    -0.270 OA
ATOM      7  N   UNL     1     -33.838  26.039   0.694  0.00  0.00    -0.291 N 
ATOM      8  N   UNL     1     -34.097  26.298   3.418  0.00  0.00    -0.367 NA
ATOM      9  N   UNL     1     -35.283  21.392  -0.994  0.00  0.00    -0.297 N 
ATOM     10  C   UNL     1     -35.476  24.920   5.714  0.00  0.00    +0.124 C 
ATOM     11  C   UNL     1     -34.861  23.689   5.028  0.00  0.00    +0.064 C 
ATOM     12  C   UNL     1     -34.487  26.078   5.920  0.00  0.00    +0.128 C 
ATOM     13  C   UNL     1     -33.752  25.680  -0.716  0.00  0.00    +0.183 C 
ATOM     14  C   UNL     1     -35.830  22.493   4.974  0.00  0.00    +0.135 C 
ATOM     15  C   UNL     1     -31.298  23.654  -2.515  0.00  0.00    +0.173 C 
ATOM     16  C   UNL     1     -32.216  23.078  -3.606  0.00  0.00    +0.070 C 
ATOM     17  C   UNL     1     -35.100  25.150  -1.220  0.00  0.00    +0.093 C 
ATOM     18  C   UNL     1     -33.907  26.647   4.674  0.00  0.00    +0.255 C 
ATOM     19  C   UNL     1     -32.671  24.620  -0.792  0.00  0.00    +0.336 C 
ATOM     20  C   UNL     1     -33.421  22.377  -3.028  0.00  0.00    -0.012 C 
ATOM     21  C   UNL     1     -29.991  24.155  -3.115  0.00  0.00    +0.048 C 
ATOM     22  C   UNL     1     -34.618  22.912  -2.730  0.00  0.00    +0.075 C 
ATOM     23  C   UNL     1     -35.263  21.395   4.113  0.00  0.00    +0.003 C 
ATOM     24  C   UNL     1     -33.274  27.139   2.707  0.00  0.00    +0.209 C 
ATOM     25  C   UNL     1     -33.114  27.072   1.269  0.00  0.00    +0.276 C 
ATOM     26  C   UNL     1     -32.639  27.997   3.575  0.00  0.00    +0.271 C 
ATOM     27  C   UNL     1     -35.679  22.031  -2.159  0.00  0.00    +0.251 C 
ATOM     28  C   UNL     1     -35.617  21.068   2.858  0.00  0.00    -0.002 C 
ATOM     29  C   UNL     1     -36.184  20.585  -0.190  0.00  0.00    +0.116 C 
ATOM     30  C   UNL     1     -36.650  21.698   2.067  0.00  0.00    -0.003 C 
ATOM     31  C   UNL     1     -36.900  21.493   0.764  0.00  0.00    -0.005 C 
ATOM     32  H   UNL     1     -34.442  25.517   1.270  0.00  0.00    +0.150 HD
ATOM     33  H   UNL     1     -34.350  21.489  -0.699  0.00  0.00    +0.150 HD
ENDROOT
BRANCH  10  34
ATOM     34  O   UNL     1     -36.599  25.373   4.961  0.00  0.00    -0.384 OA
ATOM     35  H   UNL     1     -36.299  25.707   4.100  0.00  0.00    +0.210 HD
ENDBRANCH  10  34
BRANCH  14  36
ATOM     36  O   UNL     1     -36.045  21.983   6.290  0.00  0.00    -0.380 OA
ATOM     37  H   UNL     1     -36.998  21.941   6.468  0.00  0.00    +0.211 HD
ENDBRANCH  14  36
TORSDOF 2
ENDMDL
MODEL 6
REMARK VINA RESULT:      -6.3      3.103      7.125
REMARK  Name = 5466602
REMARK  2 active torsions:
REMARK  status: ('A' for Active; 'I' for Inactive)
REMARK    1  A    between atoms: C_10  and  O_34
REMARK    2  A    between atoms: C_14  and  O_36
REMARK                            x       y       z     vdW  Elec       q    Type
REMARK                         _______ _______ _______ _____ _____    ______ ____
ROOT
ATOM      1  S   UNL     1     -35.019  21.471  -2.430  0.00  0.00    -0.107 S 
ATOM      2  O   UNL     1     -37.648  20.796  -0.598  0.00  0.00    -0.451 OA
ATOM      3  O   UNL     1     -35.195  23.081   6.061  0.00  0.00    -0.447 OA
ATOM      4  O   UNL     1     -37.593  22.948   0.240  0.00  0.00    -0.248 OA
ATOM      5  O   UNL     1     -35.809  20.268   2.952  0.00  0.00    -0.268 OA
ATOM      6  O   UNL     1     -34.675  24.142  -4.038  0.00  0.00    -0.270 OA
ATOM      7  N   UNL     1     -35.348  22.119   1.631  0.00  0.00    -0.291 N 
ATOM      8  N   UNL     1     -34.925  23.629   3.890  0.00  0.00    -0.367 NA
ATOM      9  N   UNL     1     -36.231  25.009  -2.539  0.00  0.00    -0.297 N 
ATOM     10  C   UNL     1     -34.266  26.471   4.636  0.00  0.00    +0.124 C 
ATOM     11  C   UNL     1     -35.394  26.742   3.626  0.00  0.00    +0.064 C 
ATOM     12  C   UNL     1     -34.611  25.401   5.684  0.00  0.00    +0.128 C 
ATOM     13  C   UNL     1     -35.626  21.517   0.333  0.00  0.00    +0.183 C 
ATOM     14  C   UNL     1     -35.080  27.921   2.688  0.00  0.00    +0.135 C 
ATOM     15  C   UNL     1     -38.782  21.057  -1.452  0.00  0.00    +0.173 C 
ATOM     16  C   UNL     1     -38.259  21.158  -2.895  0.00  0.00    +0.070 C 
ATOM     17  C   UNL     1     -34.684  22.084  -0.736  0.00  0.00    +0.093 C 
ATOM     18  C   UNL     1     -34.900  24.048   5.138  0.00  0.00    +0.255 C 
ATOM     19  C   UNL     1     -37.074  21.859   0.039  0.00  0.00    +0.336 C 
ATOM     20  C   UNL     1     -37.492  22.435  -3.137  0.00  0.00    -0.012 C 
ATOM     21  C   UNL     1     -39.732  19.876  -1.301  0.00  0.00    +0.048 C 
ATOM     22  C   UNL     1     -36.175  22.647  -2.967  0.00  0.00    +0.075 C 
ATOM     23  C   UNL     1     -36.109  28.010   1.591  0.00  0.00    +0.003 C 
ATOM     24  C   UNL     1     -35.292  22.307   3.985  0.00  0.00    +0.209 C 
ATOM     25  C   UNL     1     -35.503  21.451   2.836  0.00  0.00    +0.276 C 
ATOM     26  C   UNL     1     -35.441  21.971   5.311  0.00  0.00    +0.271 C 
ATOM     27  C   UNL     1     -35.619  23.999  -3.266  0.00  0.00    +0.251 C 
ATOM     28  C   UNL     1     -35.978  27.634   0.307  0.00  0.00    -0.002 C 
ATOM     29  C   UNL     1     -35.777  26.388  -2.565  0.00  0.00    +0.116 C 
ATOM     30  C   UNL     1     -34.793  27.076  -0.305  0.00  0.00    -0.003 C 
ATOM     31  C   UNL     1     -34.700  26.546  -1.535  0.00  0.00    -0.005 C 
ATOM     32  H   UNL     1     -35.033  23.052   1.654  0.00  0.00    +0.150 HD
ATOM     33  H   UNL     1     -37.009  24.781  -1.981  0.00  0.00    +0.150 HD
ENDROOT
BRANCH  10  34
ATOM     34  O   UNL     1     -33.081  26.097   3.936  0.00  0.00    -0.384 OA
ATOM     35  H   UNL     1     -32.343  26.026   4.564  0.00  0.00    +0.210 HD
ENDBRANCH  10  34
BRANCH  14  36
ATOM     36  O   UNL     1     -35.086  29.143   3.426  0.00  0.00    -0.380 OA
ATOM     37  H   UNL     1     -35.257  29.884   2.823  0.00  0.00    +0.211 HD
ENDBRANCH  14  36
TORSDOF 2
ENDMDL
MODEL 7
REMARK VINA RESULT:      -6.3      3.286      8.286
REMARK  Name = 5466602
REMARK  2 active torsions:
REMARK  status: ('A' for Active; 'I' for Inactive)
REMARK    1  A    between atoms: C_10  and  O_34
REMARK    2  A    between atoms: C_14  and  O_36
REMARK                            x       y       z     vdW  Elec       q    Type
REMARK                         _______ _______ _______ _____ _____    ______ ____
ROOT
ATOM      1  S   UNL     1     -38.545  23.629   2.620  0.00  0.00    -0.107 S 
ATOM      2  O   UNL     1     -37.610  24.202  -0.465  0.00  0.00    -0.451 OA
ATOM      3  O   UNL     1     -36.917  31.621  -0.242  0.00  0.00    -0.447 OA
ATOM      4  O   UNL     1     -35.830  25.445   0.325  0.00  0.00    -0.248 OA
ATOM      5  O   UNL     1     -38.988  27.973  -0.839  0.00  0.00    -0.268 OA
ATOM      6  O   UNL     1     -36.549  22.866   4.916  0.00  0.00    -0.270 OA
ATOM      7  N   UNL     1     -37.733  27.337   1.005  0.00  0.00    -0.291 N 
ATOM      8  N   UNL     1     -36.660  29.864   1.149  0.00  0.00    -0.367 NA
ATOM      9  N   UNL     1     -34.932  23.853   3.563  0.00  0.00    -0.297 N 
ATOM     10  C   UNL     1     -34.642  31.389   2.784  0.00  0.00    +0.124 C 
ATOM     11  C   UNL     1     -33.815  30.125   2.498  0.00  0.00    +0.064 C 
ATOM     12  C   UNL     1     -35.318  31.987   1.541  0.00  0.00    +0.128 C 
ATOM     13  C   UNL     1     -38.109  25.929   1.032  0.00  0.00    +0.183 C 
ATOM     14  C   UNL     1     -33.028  29.639   3.729  0.00  0.00    +0.135 C 
ATOM     15  C   UNL     1     -36.784  23.074  -0.826  0.00  0.00    +0.173 C 
ATOM     16  C   UNL     1     -37.022  21.974   0.222  0.00  0.00    +0.070 C 
ATOM     17  C   UNL     1     -38.183  25.419   2.476  0.00  0.00    +0.093 C 
ATOM     18  C   UNL     1     -36.297  31.097   0.860  0.00  0.00    +0.255 C 
ATOM     19  C   UNL     1     -37.029  25.215   0.242  0.00  0.00    +0.336 C 
ATOM     20  C   UNL     1     -36.390  22.304   1.551  0.00  0.00    -0.012 C 
ATOM     21  C   UNL     1     -37.237  22.616  -2.206  0.00  0.00    +0.048 C 
ATOM     22  C   UNL     1     -36.939  22.978   2.577  0.00  0.00    +0.075 C 
ATOM     23  C   UNL     1     -32.409  28.292   3.461  0.00  0.00    +0.003 C 
ATOM     24  C   UNL     1     -37.555  29.535   0.158  0.00  0.00    +0.209 C 
ATOM     25  C   UNL     1     -38.176  28.232   0.043  0.00  0.00    +0.276 C 
ATOM     26  C   UNL     1     -37.722  30.613  -0.680  0.00  0.00    +0.271 C 
ATOM     27  C   UNL     1     -36.128  23.197   3.811  0.00  0.00    +0.251 C 
ATOM     28  C   UNL     1     -32.824  27.093   3.904  0.00  0.00    -0.002 C 
ATOM     29  C   UNL     1     -34.036  24.289   4.620  0.00  0.00    +0.116 C 
ATOM     30  C   UNL     1     -33.958  26.843   4.765  0.00  0.00    -0.003 C 
ATOM     31  C   UNL     1     -34.478  25.646   5.078  0.00  0.00    -0.005 C 
ATOM     32  H   UNL     1     -37.130  27.671   1.709  0.00  0.00    +0.150 HD
ATOM     33  H   UNL     1     -34.678  24.031   2.630  0.00  0.00    +0.150 HD
ENDROOT
BRANCH  10  34
ATOM     34  O   UNL     1     -35.626  31.100   3.776  0.00  0.00    -0.384 OA
ATOM     35  H   UNL     1     -36.097  31.916   4.012  0.00  0.00    +0.210 HD
ENDBRANCH  10  34
BRANCH  14  36
ATOM     36  O   UNL     1     -31.991  30.570   4.041  0.00  0.00    -0.380 OA
ATOM     37  H   UNL     1     -32.385  31.405   4.337  0.00  0.00    +0.211 HD
ENDBRANCH  14  36
TORSDOF 2
ENDMDL
MODEL 8
REMARK VINA RESULT:      -6.2      4.590      8.602
REMARK  Name = 5466602
REMARK  2 active torsions:
REMARK  status: ('A' for Active; 'I' for Inactive)
REMARK    1  A    between atoms: C_10  and  O_34
REMARK    2  A    between atoms: C_14  and  O_36
REMARK                            x       y       z     vdW  Elec       q    Type
REMARK                         _______ _______ _______ _____ _____    ______ ____
ROOT
ATOM      1  S   UNL     1     -35.426  19.760  -2.541  0.00  0.00    -0.107 S 
ATOM      2  O   UNL     1     -36.842  18.225  -0.018  0.00  0.00    -0.451 OA
ATOM      3  O   UNL     1     -36.056  23.431   5.259  0.00  0.00    -0.447 OA
ATOM      4  O   UNL     1     -38.156  20.089   0.354  0.00  0.00    -0.248 OA
ATOM      5  O   UNL     1     -34.880  20.048   2.995  0.00  0.00    -0.268 OA
ATOM      6  O   UNL     1     -37.023  21.428  -4.663  0.00  0.00    -0.270 OA
ATOM      7  N   UNL     1     -35.832  21.277   1.274  0.00  0.00    -0.291 N 
ATOM      8  N   UNL     1     -36.354  23.331   3.025  0.00  0.00    -0.367 NA
ATOM      9  N   UNL     1     -38.664  21.573  -3.018  0.00  0.00    -0.297 N 
ATOM     10  C   UNL     1     -37.672  26.039   3.028  0.00  0.00    +0.124 C 
ATOM     11  C   UNL     1     -38.765  25.240   2.298  0.00  0.00    +0.064 C 
ATOM     12  C   UNL     1     -37.162  25.368   4.313  0.00  0.00    +0.128 C 
ATOM     13  C   UNL     1     -35.732  20.270   0.225  0.00  0.00    +0.183 C 
ATOM     14  C   UNL     1     -39.363  26.006   1.104  0.00  0.00    +0.135 C 
ATOM     15  C   UNL     1     -37.923  17.462  -0.597  0.00  0.00    +0.173 C 
ATOM     16  C   UNL     1     -37.690  17.413  -2.116  0.00  0.00    +0.070 C 
ATOM     17  C   UNL     1     -35.464  20.931  -1.133  0.00  0.00    +0.093 C 
ATOM     18  C   UNL     1     -36.528  24.035   4.125  0.00  0.00    +0.255 C 
ATOM     19  C   UNL     1     -37.065  19.547   0.241  0.00  0.00    +0.336 C 
ATOM     20  C   UNL     1     -37.965  18.739  -2.781  0.00  0.00    -0.012 C 
ATOM     21  C   UNL     1     -37.854  16.066   0.008  0.00  0.00    +0.048 C 
ATOM     22  C   UNL     1     -37.102  19.749  -2.987  0.00  0.00    +0.075 C 
ATOM     23  C   UNL     1     -40.268  25.107   0.302  0.00  0.00    +0.003 C 
ATOM     24  C   UNL     1     -35.758  22.170   3.460  0.00  0.00    +0.209 C 
ATOM     25  C   UNL     1     -35.432  21.064   2.584  0.00  0.00    +0.276 C 
ATOM     26  C   UNL     1     -35.563  22.241   4.820  0.00  0.00    +0.271 C 
ATOM     27  C   UNL     1     -37.590  20.985  -3.667  0.00  0.00    +0.251 C 
ATOM     28  C   UNL     1     -40.006  24.519  -0.878  0.00  0.00    -0.002 C 
ATOM     29  C   UNL     1     -39.228  22.850  -3.418  0.00  0.00    +0.116 C 
ATOM     30  C   UNL     1     -38.790  24.646  -1.648  0.00  0.00    -0.003 C 
ATOM     31  C   UNL     1     -38.453  23.938  -2.738  0.00  0.00    -0.005 C 
ATOM     32  H   UNL     1     -36.205  22.158   1.039  0.00  0.00    +0.150 HD
ATOM     33  H   UNL     1     -39.064  21.103  -2.251  0.00  0.00    +0.150 HD
ENDROOT
BRANCH  10  34
ATOM     34  O   UNL     1     -36.581  26.274   2.140  0.00  0.00    -0.384 OA
ATOM     35  H   UNL     1     -36.769  27.055   1.595  0.00  0.00    +0.210 HD
ENDBRANCH  10  34
BRANCH  14  36
ATOM     36  O   UNL     1     -40.120  27.122   1.574  0.00  0.00    -0.380 OA
ATOM     37  H   UNL     1     -39.904  27.290   2.504  0.00  0.00    +0.211 HD
ENDBRANCH  14  36
TORSDOF 2
ENDMDL
MODEL 9
REMARK VINA RESULT:      -6.2      4.679      8.049
REMARK  Name = 5466602
REMARK  2 active torsions:
REMARK  status: ('A' for Active; 'I' for Inactive)
REMARK    1  A    between atoms: C_10  and  O_34
REMARK    2  A    between atoms: C_14  and  O_36
REMARK                            x       y       z     vdW  Elec       q    Type
REMARK                         _______ _______ _______ _____ _____    ______ ____
ROOT
ATOM      1  S   UNL     1     -34.812  23.494   1.776  0.00  0.00    -0.107 S 
ATOM      2  O   UNL     1     -34.866  25.984   3.901  0.00  0.00    -0.451 OA
ATOM      3  O   UNL     1     -38.257  31.156  -0.262  0.00  0.00    -0.447 OA
ATOM      4  O   UNL     1     -37.129  26.243   3.512  0.00  0.00    -0.248 OA
ATOM      5  O   UNL     1     -34.921  29.040   1.273  0.00  0.00    -0.268 OA
ATOM      6  O   UNL     1     -37.006  21.254   1.685  0.00  0.00    -0.270 OA
ATOM      7  N   UNL     1     -36.370  27.243   1.045  0.00  0.00    -0.291 N 
ATOM      8  N   UNL     1     -38.279  28.913  -0.016  0.00  0.00    -0.367 NA
ATOM      9  N   UNL     1     -38.356  22.813   2.765  0.00  0.00    -0.297 N 
ATOM     10  C   UNL     1     -41.120  28.781  -1.007  0.00  0.00    +0.124 C 
ATOM     11  C   UNL     1     -41.292  28.020   0.318  0.00  0.00    +0.064 C 
ATOM     12  C   UNL     1     -40.354  30.106  -0.871  0.00  0.00    +0.128 C 
ATOM     13  C   UNL     1     -35.535  26.228   1.673  0.00  0.00    +0.183 C 
ATOM     14  C   UNL     1     -42.192  26.779   0.178  0.00  0.00    +0.135 C 
ATOM     15  C   UNL     1     -35.063  25.373   5.195  0.00  0.00    +0.173 C 
ATOM     16  C   UNL     1     -34.783  23.869   5.042  0.00  0.00    +0.070 C 
ATOM     17  C   UNL     1     -35.739  24.867   0.994  0.00  0.00    +0.093 C 
ATOM     18  C   UNL     1     -38.957  29.984  -0.375  0.00  0.00    +0.255 C 
ATOM     19  C   UNL     1     -35.969  26.198   3.125  0.00  0.00    +0.336 C 
ATOM     20  C   UNL     1     -35.877  23.157   4.285  0.00  0.00    -0.012 C 
ATOM     21  C   UNL     1     -34.062  26.017   6.146  0.00  0.00    +0.048 C 
ATOM     22  C   UNL     1     -35.967  22.967   2.957  0.00  0.00    +0.075 C 
ATOM     23  C   UNL     1     -42.156  25.957   1.441  0.00  0.00    +0.003 C 
ATOM     24  C   UNL     1     -37.062  29.406   0.394  0.00  0.00    +0.209 C 
ATOM     25  C   UNL     1     -36.006  28.577   0.935  0.00  0.00    +0.276 C 
ATOM     26  C   UNL     1     -37.046  30.772   0.228  0.00  0.00    +0.271 C 
ATOM     27  C   UNL     1     -37.147  22.232   2.414  0.00  0.00    +0.251 C 
ATOM     28  C   UNL     1     -41.494  24.808   1.655  0.00  0.00    -0.002 C 
ATOM     29  C   UNL     1     -39.633  22.352   2.250  0.00  0.00    +0.116 C 
ATOM     30  C   UNL     1     -40.682  24.094   0.696  0.00  0.00    -0.003 C 
ATOM     31  C   UNL     1     -39.887  23.041   0.943  0.00  0.00    -0.005 C 
ATOM     32  H   UNL     1     -37.242  26.968   0.680  0.00  0.00    +0.150 HD
ATOM     33  H   UNL     1     -38.348  23.572   3.391  0.00  0.00    +0.150 HD
ENDROOT
BRANCH  10  34
ATOM     34  O   UNL     1     -40.466  27.941  -1.957  0.00  0.00    -0.384 OA
ATOM     35  H   UNL     1     -41.044  27.812  -2.727  0.00  0.00    +0.210 HD
ENDBRANCH  10  34
BRANCH  14  36
ATOM     36  O   UNL     1     -43.538  27.182  -0.072  0.00  0.00    -0.380 OA
ATOM     37  H   UNL     1     -44.121  26.799   0.603  0.00  0.00    +0.211 HD
ENDBRANCH  14  36
TORSDOF 2
ENDMDL
