MODEL 1
REMARK VINA RESULT:      -5.9      0.000      0.000
REMARK  Name = 192382
REMARK  10 active torsions:
REMARK  status: ('A' for Active; 'I' for Inactive)
REMARK    1  A    between atoms: N_4  and  C_12
REMARK    2  A    between atoms: C_6  and  C_26
REMARK    3  A    between atoms: C_6  and  C_31
REMARK    4  A    between atoms: C_13  and  O_17
REMARK    5  A    between atoms: C_14  and  O_19
REMARK    6  A    between atoms: C_15  and  O_21
REMARK    7  A    between atoms: C_16  and  C_23
REMARK    8  A    between atoms: C_23  and  O_24
REMARK    9  A    between atoms: C_26  and  C_28
REMARK   10  A    between atoms: C_28  and  C_29
REMARK                            x       y       z     vdW  Elec       q    Type
REMARK                         _______ _______ _______ _____ _____    ______ ____
ROOT
ATOM      1  O   UNL     1     -35.057  25.269   1.529  0.00  0.00    -0.274 OA
ATOM      2  O   UNL     1     -32.498  28.128   4.120  0.00  0.00    -0.274 OA
ATOM      3  O   UNL     1     -35.785  25.636   6.103  0.00  0.00    -0.252 OA
ATOM      4  N   UNL     1     -35.602  25.532   3.778  0.00  0.00    -0.188 N 
ATOM      5  N   UNL     1     -34.197  26.921   5.078  0.00  0.00    -0.239 N 
ATOM      6  C   UNL     1     -34.207  27.228   2.657  0.00  0.00    +0.138 C 
ATOM      7  C   UNL     1     -34.970  25.906   2.581  0.00  0.00    +0.242 C 
ATOM      8  C   UNL     1     -33.523  27.461   3.994  0.00  0.00    +0.237 C 
ATOM      9  C   UNL     1     -35.252  26.012   5.055  0.00  0.00    +0.317 C 
ATOM     10  H   UNL     1     -33.895  27.214   5.967  0.00  0.00    +0.159 HD
ENDROOT
BRANCH   4  12
ATOM     11  O   UNL     1     -35.930  23.339   3.126  0.00  0.00    -0.333 OA
ATOM     12  C   UNL     1     -36.571  24.466   3.718  0.00  0.00    +0.231 C 
ATOM     13  C   UNL     1     -37.797  24.882   2.908  0.00  0.00    +0.187 C 
ATOM     14  C   UNL     1     -38.745  23.698   2.706  0.00  0.00    +0.171 C 
ATOM     15  C   UNL     1     -37.999  22.457   2.212  0.00  0.00    +0.169 C 
ATOM     16  C   UNL     1     -36.772  22.184   3.089  0.00  0.00    +0.175 C 
BRANCH  13  17
ATOM     17  O   UNL     1     -38.486  25.915   3.608  0.00  0.00    -0.378 OA
ATOM     18  H   UNL     1     -38.042  26.086   4.453  0.00  0.00    +0.211 HD
ENDBRANCH  13  17
BRANCH  14  19
ATOM     19  O   UNL     1     -39.751  24.058   1.757  0.00  0.00    -0.379 OA
ATOM     20  H   UNL     1     -39.790  23.387   1.057  0.00  0.00    +0.211 HD
ENDBRANCH  14  19
BRANCH  15  21
ATOM     21  O   UNL     1     -38.898  21.353   2.255  0.00  0.00    -0.379 OA
ATOM     22  H   UNL     1     -39.735  21.600   1.831  0.00  0.00    +0.211 HD
ENDBRANCH  15  21
BRANCH  16  23
ATOM     23  C   UNL     1     -35.928  21.030   2.556  0.00  0.00    +0.169 C 
BRANCH  23  24
ATOM     24  O   UNL     1     -36.651  19.824   2.730  0.00  0.00    -0.379 OA
ATOM     25  H   UNL     1     -37.261  19.918   3.478  0.00  0.00    +0.211 HD
ENDBRANCH  23  24
ENDBRANCH  16  23
ENDBRANCH   4  12
BRANCH   6  26
ATOM     26  C   UNL     1     -35.230  28.361   2.459  0.00  0.00    +0.016 C 
ATOM     27  C   UNL     1     -36.194  27.984   1.334  0.00  0.00    +0.001 C 
BRANCH  26  28
ATOM     28  C   UNL     1     -34.555  29.705   2.144  0.00  0.00    +0.001 C 
BRANCH  28  29
ATOM     29  C   UNL     1     -35.158  30.887   2.908  0.00  0.00    +0.000 C 
ATOM     30  C   UNL     1     -36.281  31.542   2.118  0.00  0.00    +0.000 C 
ENDBRANCH  28  29
ENDBRANCH  26  28
ENDBRANCH   6  26
BRANCH   6  31
ATOM     31  C   UNL     1     -33.163  27.292   1.531  0.00  0.00    +0.017 C 
ATOM     32  C   UNL     1     -32.099  26.233   1.719  0.00  0.00    +0.001 C 
ENDBRANCH   6  31
TORSDOF 10
ENDMDL
MODEL 2
REMARK VINA RESULT:      -5.8      3.181      6.834
REMARK  Name = 192382
REMARK  10 active torsions:
REMARK  status: ('A' for Active; 'I' for Inactive)
REMARK    1  A    between atoms: N_4  and  C_12
REMARK    2  A    between atoms: C_6  and  C_26
REMARK    3  A    between atoms: C_6  and  C_31
REMARK    4  A    between atoms: C_13  and  O_17
REMARK    5  A    between atoms: C_14  and  O_19
REMARK    6  A    between atoms: C_15  and  O_21
REMARK    7  A    between atoms: C_16  and  C_23
REMARK    8  A    between atoms: C_23  and  O_24
REMARK    9  A    between atoms: C_26  and  C_28
REMARK   10  A    between atoms: C_28  and  C_29
REMARK                            x       y       z     vdW  Elec       q    Type
REMARK                         _______ _______ _______ _____ _____    ______ ____
ROOT
ATOM      1  O   UNL     1     -35.566  23.138  -0.308  0.00  0.00    -0.274 OA
ATOM      2  O   UNL     1     -35.099  18.579   0.351  0.00  0.00    -0.274 OA
ATOM      3  O   UNL     1     -35.605  21.331   3.972  0.00  0.00    -0.252 OA
ATOM      4  N   UNL     1     -35.414  22.331   1.871  0.00  0.00    -0.188 N 
ATOM      5  N   UNL     1     -35.284  19.987   2.152  0.00  0.00    -0.239 N 
ATOM      6  C   UNL     1     -34.635  20.931  -0.002  0.00  0.00    +0.138 C 
ATOM      7  C   UNL     1     -35.269  22.235   0.478  0.00  0.00    +0.242 C 
ATOM      8  C   UNL     1     -35.047  19.717   0.814  0.00  0.00    +0.237 C 
ATOM      9  C   UNL     1     -35.428  21.235   2.754  0.00  0.00    +0.317 C 
ATOM     10  H   UNL     1     -35.361  19.206   2.746  0.00  0.00    +0.159 HD
ENDROOT
BRANCH   4  12
ATOM     11  O   UNL     1     -34.877  23.826   3.550  0.00  0.00    -0.333 OA
ATOM     12  C   UNL     1     -35.727  23.625   2.424  0.00  0.00    +0.231 C 
ATOM     13  C   UNL     1     -37.197  23.709   2.830  0.00  0.00    +0.187 C 
ATOM     14  C   UNL     1     -37.485  25.019   3.566  0.00  0.00    +0.171 C 
ATOM     15  C   UNL     1     -36.463  25.279   4.674  0.00  0.00    +0.169 C 
ATOM     16  C   UNL     1     -35.037  25.120   4.137  0.00  0.00    +0.175 C 
BRANCH  13  17
ATOM     17  O   UNL     1     -38.006  23.647   1.658  0.00  0.00    -0.378 OA
ATOM     18  H   UNL     1     -38.125  24.540   1.299  0.00  0.00    +0.211 HD
ENDBRANCH  13  17
BRANCH  14  19
ATOM     19  O   UNL     1     -38.797  24.961   4.132  0.00  0.00    -0.379 OA
ATOM     20  H   UNL     1     -38.740  24.645   5.047  0.00  0.00    +0.211 HD
ENDBRANCH  14  19
BRANCH  15  21
ATOM     21  O   UNL     1     -36.667  26.602   5.162  0.00  0.00    -0.379 OA
ATOM     22  H   UNL     1     -36.338  27.242   4.511  0.00  0.00    +0.211 HD
ENDBRANCH  15  21
BRANCH  16  23
ATOM     23  C   UNL     1     -33.989  25.247   5.239  0.00  0.00    +0.169 C 
BRANCH  23  24
ATOM     24  O   UNL     1     -33.904  26.607   5.626  0.00  0.00    -0.379 OA
ATOM     25  H   UNL     1     -34.074  26.683   6.578  0.00  0.00    +0.211 HD
ENDBRANCH  23  24
ENDBRANCH  16  23
ENDBRANCH   4  12
BRANCH   6  26
ATOM     26  C   UNL     1     -33.109  21.083   0.135  0.00  0.00    +0.016 C 
ATOM     27  C   UNL     1     -32.682  22.440  -0.425  0.00  0.00    +0.001 C 
BRANCH  26  28
ATOM     28  C   UNL     1     -32.346  19.956  -0.579  0.00  0.00    +0.001 C 
BRANCH  28  29
ATOM     29  C   UNL     1     -31.206  19.365   0.255  0.00  0.00    +0.000 C 
ATOM     30  C   UNL     1     -31.674  18.163   1.060  0.00  0.00    +0.000 C 
ENDBRANCH  28  29
ENDBRANCH  26  28
ENDBRANCH   6  26
BRANCH   6  31
ATOM     31  C   UNL     1     -34.985  20.695  -1.480  0.00  0.00    +0.017 C 
ATOM     32  C   UNL     1     -36.473  20.496  -1.659  0.00  0.00    +0.001 C 
ENDBRANCH   6  31
TORSDOF 10
ENDMDL
MODEL 3
REMARK VINA RESULT:      -5.7      3.038      7.162
REMARK  Name = 192382
REMARK  10 active torsions:
REMARK  status: ('A' for Active; 'I' for Inactive)
REMARK    1  A    between atoms: N_4  and  C_12
REMARK    2  A    between atoms: C_6  and  C_26
REMARK    3  A    between atoms: C_6  and  C_31
REMARK    4  A    between atoms: C_13  and  O_17
REMARK    5  A    between atoms: C_14  and  O_19
REMARK    6  A    between atoms: C_15  and  O_21
REMARK    7  A    between atoms: C_16  and  C_23
REMARK    8  A    between atoms: C_23  and  O_24
REMARK    9  A    between atoms: C_26  and  C_28
REMARK   10  A    between atoms: C_28  and  C_29
REMARK                            x       y       z     vdW  Elec       q    Type
REMARK                         _______ _______ _______ _____ _____    ______ ____
ROOT
ATOM      1  O   UNL     1     -32.427  25.625   3.343  0.00  0.00    -0.274 OA
ATOM      2  O   UNL     1     -36.832  26.544   2.254  0.00  0.00    -0.274 OA
ATOM      3  O   UNL     1     -34.033  29.984   3.383  0.00  0.00    -0.252 OA
ATOM      4  N   UNL     1     -33.202  27.810   3.562  0.00  0.00    -0.188 N 
ATOM      5  N   UNL     1     -35.427  28.242   2.890  0.00  0.00    -0.239 N 
ATOM      6  C   UNL     1     -34.816  25.950   3.461  0.00  0.00    +0.138 C 
ATOM      7  C   UNL     1     -33.364  26.422   3.426  0.00  0.00    +0.242 C 
ATOM      8  C   UNL     1     -35.784  26.908   2.787  0.00  0.00    +0.237 C 
ATOM      9  C   UNL     1     -34.204  28.764   3.306  0.00  0.00    +0.317 C 
ATOM     10  H   UNL     1     -36.118  28.898   2.641  0.00  0.00    +0.159 HD
ENDROOT
BRANCH   4  12
ATOM     11  O   UNL     1     -30.952  27.416   3.204  0.00  0.00    -0.333 OA
ATOM     12  C   UNL     1     -31.874  28.305   3.829  0.00  0.00    +0.231 C 
ATOM     13  C   UNL     1     -31.612  28.392   5.332  0.00  0.00    +0.187 C 
ATOM     14  C   UNL     1     -30.153  28.758   5.610  0.00  0.00    +0.171 C 
ATOM     15  C   UNL     1     -29.190  27.882   4.807  0.00  0.00    +0.169 C 
ATOM     16  C   UNL     1     -29.596  27.852   3.330  0.00  0.00    +0.175 C 
BRANCH  13  17
ATOM     17  O   UNL     1     -32.457  29.395   5.892  0.00  0.00    -0.378 OA
ATOM     18  H   UNL     1     -32.091  30.272   5.699  0.00  0.00    +0.211 HD
ENDBRANCH  13  17
BRANCH  14  19
ATOM     19  O   UNL     1     -29.887  28.601   7.006  0.00  0.00    -0.379 OA
ATOM     20  H   UNL     1     -30.723  28.479   7.483  0.00  0.00    +0.211 HD
ENDBRANCH  14  19
BRANCH  15  21
ATOM     21  O   UNL     1     -27.878  28.418   4.952  0.00  0.00    -0.379 OA
ATOM     22  H   UNL     1     -27.707  29.054   4.239  0.00  0.00    +0.211 HD
ENDBRANCH  15  21
BRANCH  16  23
ATOM     23  C   UNL     1     -28.737  26.890   2.515  0.00  0.00    +0.169 C 
BRANCH  23  24
ATOM     24  O   UNL     1     -28.413  25.776   3.327  0.00  0.00    -0.379 OA
ATOM     25  H   UNL     1     -28.145  26.084   4.207  0.00  0.00    +0.211 HD
ENDBRANCH  23  24
ENDBRANCH  16  23
ENDBRANCH   4  12
BRANCH   6  26
ATOM     26  C   UNL     1     -35.229  25.842   4.940  0.00  0.00    +0.016 C 
ATOM     27  C   UNL     1     -34.000  26.041   5.826  0.00  0.00    +0.001 C 
BRANCH  26  28
ATOM     28  C   UNL     1     -35.896  24.495   5.261  0.00  0.00    +0.001 C 
BRANCH  28  29
ATOM     29  C   UNL     1     -34.981  23.522   6.010  0.00  0.00    +0.000 C 
ATOM     30  C   UNL     1     -35.551  22.112   6.005  0.00  0.00    +0.000 C 
ENDBRANCH  28  29
ENDBRANCH  26  28
ENDBRANCH   6  26
BRANCH   6  31
ATOM     31  C   UNL     1     -34.930  24.564   2.807  0.00  0.00    +0.017 C 
ATOM     32  C   UNL     1     -34.522  24.617   1.351  0.00  0.00    +0.001 C 
ENDBRANCH   6  31
TORSDOF 10
ENDMDL
MODEL 4
REMARK VINA RESULT:      -5.6      3.622      5.928
REMARK  Name = 192382
REMARK  10 active torsions:
REMARK  status: ('A' for Active; 'I' for Inactive)
REMARK    1  A    between atoms: N_4  and  C_12
REMARK    2  A    between atoms: C_6  and  C_26
REMARK    3  A    between atoms: C_6  and  C_31
REMARK    4  A    between atoms: C_13  and  O_17
REMARK    5  A    between atoms: C_14  and  O_19
REMARK    6  A    between atoms: C_15  and  O_21
REMARK    7  A    between atoms: C_16  and  C_23
REMARK    8  A    between atoms: C_23  and  O_24
REMARK    9  A    between atoms: C_26  and  C_28
REMARK   10  A    between atoms: C_28  and  C_29
REMARK                            x       y       z     vdW  Elec       q    Type
REMARK                         _______ _______ _______ _____ _____    ______ ____
ROOT
ATOM      1  O   UNL     1     -37.651  25.474   1.589  0.00  0.00    -0.274 OA
ATOM      2  O   UNL     1     -35.349  21.498   2.162  0.00  0.00    -0.274 OA
ATOM      3  O   UNL     1     -39.923  21.490   2.331  0.00  0.00    -0.252 OA
ATOM      4  N   UNL     1     -38.850  23.555   2.136  0.00  0.00    -0.188 N 
ATOM      5  N   UNL     1     -37.638  21.533   2.312  0.00  0.00    -0.239 N 
ATOM      6  C   UNL     1     -36.423  23.634   2.557  0.00  0.00    +0.138 C 
ATOM      7  C   UNL     1     -37.679  24.321   2.023  0.00  0.00    +0.242 C 
ATOM      8  C   UNL     1     -36.391  22.137   2.300  0.00  0.00    +0.237 C 
ATOM      9  C   UNL     1     -38.884  22.155   2.282  0.00  0.00    +0.317 C 
ATOM     10  H   UNL     1     -37.644  20.549   2.344  0.00  0.00    +0.159 HD
ENDROOT
BRANCH   4  12
ATOM     11  O   UNL     1     -40.169  24.615   0.561  0.00  0.00    -0.333 OA
ATOM     12  C   UNL     1     -40.110  24.226   1.931  0.00  0.00    +0.231 C 
ATOM     13  C   UNL     1     -40.243  25.441   2.847  0.00  0.00    +0.187 C 
ATOM     14  C   UNL     1     -41.502  26.243   2.511  0.00  0.00    +0.171 C 
ATOM     15  C   UNL     1     -41.612  26.515   1.010  0.00  0.00    +0.169 C 
ATOM     16  C   UNL     1     -41.418  25.220   0.214  0.00  0.00    +0.175 C 
BRANCH  13  17
ATOM     17  O   UNL     1     -40.323  24.995   4.199  0.00  0.00    -0.378 OA
ATOM     18  H   UNL     1     -39.458  24.657   4.480  0.00  0.00    +0.211 HD
ENDBRANCH  13  17
BRANCH  14  19
ATOM     19  O   UNL     1     -41.471  27.485   3.218  0.00  0.00    -0.379 OA
ATOM     20  H   UNL     1     -40.917  27.392   4.009  0.00  0.00    +0.211 HD
ENDBRANCH  14  19
BRANCH  15  21
ATOM     21  O   UNL     1     -42.899  27.069   0.754  0.00  0.00    -0.379 OA
ATOM     22  H   UNL     1     -43.430  26.434   0.247  0.00  0.00    +0.211 HD
ENDBRANCH  15  21
BRANCH  16  23
ATOM     23  C   UNL     1     -41.394  25.467  -1.292  0.00  0.00    +0.169 C 
BRANCH  23  24
ATOM     24  O   UNL     1     -42.729  25.558  -1.755  0.00  0.00    -0.379 OA
ATOM     25  H   UNL     1     -43.266  26.037  -1.103  0.00  0.00    +0.211 HD
ENDBRANCH  23  24
ENDBRANCH  16  23
ENDBRANCH   4  12
BRANCH   6  26
ATOM     26  C   UNL     1     -36.398  23.842   4.082  0.00  0.00    +0.016 C 
ATOM     27  C   UNL     1     -36.815  25.276   4.407  0.00  0.00    +0.001 C 
BRANCH  26  28
ATOM     28  C   UNL     1     -35.017  23.546   4.687  0.00  0.00    +0.001 C 
BRANCH  28  29
ATOM     29  C   UNL     1     -35.080  22.819   6.033  0.00  0.00    +0.000 C 
ATOM     30  C   UNL     1     -35.115  21.311   5.846  0.00  0.00    +0.000 C 
ENDBRANCH  28  29
ENDBRANCH  26  28
ENDBRANCH   6  26
BRANCH   6  31
ATOM     31  C   UNL     1     -35.173  24.285   1.942  0.00  0.00    +0.017 C 
ATOM     32  C   UNL     1     -35.128  24.064   0.447  0.00  0.00    +0.001 C 
ENDBRANCH   6  31
TORSDOF 10
ENDMDL
MODEL 5
REMARK VINA RESULT:      -5.6      2.766      7.390
REMARK  Name = 192382
REMARK  10 active torsions:
REMARK  status: ('A' for Active; 'I' for Inactive)
REMARK    1  A    between atoms: N_4  and  C_12
REMARK    2  A    between atoms: C_6  and  C_26
REMARK    3  A    between atoms: C_6  and  C_31
REMARK    4  A    between atoms: C_13  and  O_17
REMARK    5  A    between atoms: C_14  and  O_19
REMARK    6  A    between atoms: C_15  and  O_21
REMARK    7  A    between atoms: C_16  and  C_23
REMARK    8  A    between atoms: C_23  and  O_24
REMARK    9  A    between atoms: C_26  and  C_28
REMARK   10  A    between atoms: C_28  and  C_29
REMARK                            x       y       z     vdW  Elec       q    Type
REMARK                         _______ _______ _______ _____ _____    ______ ____
ROOT
ATOM      1  O   UNL     1     -32.603  25.489   3.170  0.00  0.00    -0.274 OA
ATOM      2  O   UNL     1     -37.060  25.734   1.941  0.00  0.00    -0.274 OA
ATOM      3  O   UNL     1     -34.876  29.540   3.242  0.00  0.00    -0.252 OA
ATOM      4  N   UNL     1     -33.719  27.519   3.406  0.00  0.00    -0.188 N 
ATOM      5  N   UNL     1     -35.962  27.614   2.663  0.00  0.00    -0.239 N 
ATOM      6  C   UNL     1     -35.017  25.432   3.208  0.00  0.00    +0.138 C 
ATOM      7  C   UNL     1     -33.656  26.126   3.236  0.00  0.00    +0.242 C 
ATOM      8  C   UNL     1     -36.101  26.244   2.519  0.00  0.00    +0.237 C 
ATOM      9  C   UNL     1     -34.851  28.311   3.134  0.00  0.00    +0.317 C 
ATOM     10  H   UNL     1     -36.739  28.160   2.403  0.00  0.00    +0.159 HD
ENDROOT
BRANCH   4  12
ATOM     11  O   UNL     1     -32.607  28.662   5.079  0.00  0.00    -0.333 OA
ATOM     12  C   UNL     1     -32.496  28.209   3.732  0.00  0.00    +0.231 C 
ATOM     13  C   UNL     1     -32.255  29.380   2.782  0.00  0.00    +0.187 C 
ATOM     14  C   UNL     1     -31.049  30.208   3.232  0.00  0.00    +0.171 C 
ATOM     15  C   UNL     1     -31.125  30.551   4.721  0.00  0.00    +0.169 C 
ATOM     16  C   UNL     1     -31.412  29.293   5.547  0.00  0.00    +0.175 C 
BRANCH  13  17
ATOM     17  O   UNL     1     -32.008  28.873   1.473  0.00  0.00    -0.378 OA
ATOM     18  H   UNL     1     -31.369  28.145   1.524  0.00  0.00    +0.211 HD
ENDBRANCH  13  17
BRANCH  14  19
ATOM     19  O   UNL     1     -30.996  31.415   2.468  0.00  0.00    -0.379 OA
ATOM     20  H   UNL     1     -30.188  31.424   1.932  0.00  0.00    +0.211 HD
ENDBRANCH  14  19
BRANCH  15  21
ATOM     21  O   UNL     1     -29.881  31.127   5.107  0.00  0.00    -0.379 OA
ATOM     22  H   UNL     1     -29.987  31.592   5.951  0.00  0.00    +0.211 HD
ENDBRANCH  15  21
BRANCH  16  23
ATOM     23  C   UNL     1     -31.621  29.610   7.025  0.00  0.00    +0.169 C 
BRANCH  23  24
ATOM     24  O   UNL     1     -30.392  29.428   7.704  0.00  0.00    -0.379 OA
ATOM     25  H   UNL     1     -30.563  29.122   8.608  0.00  0.00    +0.211 HD
ENDBRANCH  23  24
ENDBRANCH  16  23
ENDBRANCH   4  12
BRANCH   6  26
ATOM     26  C   UNL     1     -35.455  25.222   4.669  0.00  0.00    +0.016 C 
ATOM     27  C   UNL     1     -34.279  25.515   5.599  0.00  0.00    +0.001 C 
BRANCH  26  28
ATOM     28  C   UNL     1     -35.983  23.801   4.919  0.00  0.00    +0.001 C 
BRANCH  28  29
ATOM     29  C   UNL     1     -35.249  23.064   6.042  0.00  0.00    +0.000 C 
ATOM     30  C   UNL     1     -35.158  21.573   5.759  0.00  0.00    +0.000 C 
ENDBRANCH  28  29
ENDBRANCH  26  28
ENDBRANCH   6  26
BRANCH   6  31
ATOM     31  C   UNL     1     -34.889  24.063   2.522  0.00  0.00    +0.017 C 
ATOM     32  C   UNL     1     -34.448  24.218   1.083  0.00  0.00    +0.001 C 
ENDBRANCH   6  31
TORSDOF 10
ENDMDL
MODEL 6
REMARK VINA RESULT:      -5.4      1.688      2.189
REMARK  Name = 192382
REMARK  10 active torsions:
REMARK  status: ('A' for Active; 'I' for Inactive)
REMARK    1  A    between atoms: N_4  and  C_12
REMARK    2  A    between atoms: C_6  and  C_26
REMARK    3  A    between atoms: C_6  and  C_31
REMARK    4  A    between atoms: C_13  and  O_17
REMARK    5  A    between atoms: C_14  and  O_19
REMARK    6  A    between atoms: C_15  and  O_21
REMARK    7  A    between atoms: C_16  and  C_23
REMARK    8  A    between atoms: C_23  and  O_24
REMARK    9  A    between atoms: C_26  and  C_28
REMARK   10  A    between atoms: C_28  and  C_29
REMARK                            x       y       z     vdW  Elec       q    Type
REMARK                         _______ _______ _______ _____ _____    ______ ____
ROOT
ATOM      1  O   UNL     1     -34.554  26.764   1.528  0.00  0.00    -0.274 OA
ATOM      2  O   UNL     1     -31.627  29.906   3.258  0.00  0.00    -0.274 OA
ATOM      3  O   UNL     1     -33.461  26.772   6.044  0.00  0.00    -0.252 OA
ATOM      4  N   UNL     1     -34.198  26.816   3.829  0.00  0.00    -0.188 N 
ATOM      5  N   UNL     1     -32.613  28.369   4.645  0.00  0.00    -0.239 N 
ATOM      6  C   UNL     1     -33.623  28.786   2.464  0.00  0.00    +0.138 C 
ATOM      7  C   UNL     1     -34.152  27.355   2.533  0.00  0.00    +0.242 C 
ATOM      8  C   UNL     1     -32.509  29.072   3.457  0.00  0.00    +0.237 C 
ATOM      9  C   UNL     1     -33.447  27.287   4.922  0.00  0.00    +0.317 C 
ATOM     10  H   UNL     1     -32.030  28.667   5.380  0.00  0.00    +0.159 HD
ENDROOT
BRANCH   4  12
ATOM     11  O   UNL     1     -34.698  24.763   2.892  0.00  0.00    -0.333 OA
ATOM     12  C   UNL     1     -34.945  25.597   4.020  0.00  0.00    +0.231 C 
ATOM     13  C   UNL     1     -36.438  25.885   4.167  0.00  0.00    +0.187 C 
ATOM     14  C   UNL     1     -37.243  24.584   4.203  0.00  0.00    +0.171 C 
ATOM     15  C   UNL     1     -36.846  23.645   3.063  0.00  0.00    +0.169 C 
ATOM     16  C   UNL     1     -35.323  23.481   3.007  0.00  0.00    +0.175 C 
BRANCH  13  17
ATOM     17  O   UNL     1     -36.655  26.599   5.382  0.00  0.00    -0.378 OA
ATOM     18  H   UNL     1     -37.487  26.306   5.785  0.00  0.00    +0.211 HD
ENDBRANCH  13  17
BRANCH  14  19
ATOM     19  O   UNL     1     -38.636  24.890   4.104  0.00  0.00    -0.379 OA
ATOM     20  H   UNL     1     -38.933  24.752   3.192  0.00  0.00    +0.211 HD
ENDBRANCH  14  19
BRANCH  15  21
ATOM     21  O   UNL     1     -37.474  22.385   3.288  0.00  0.00    -0.379 OA
ATOM     22  H   UNL     1     -36.813  21.678   3.223  0.00  0.00    +0.211 HD
ENDBRANCH  15  21
BRANCH  16  23
ATOM     23  C   UNL     1     -34.876  22.653   1.807  0.00  0.00    +0.169 C 
BRANCH  23  24
ATOM     24  O   UNL     1     -35.914  22.657   0.843  0.00  0.00    -0.379 OA
ATOM     25  H   UNL     1     -36.456  21.859   0.949  0.00  0.00    +0.211 HD
ENDBRANCH  23  24
ENDBRANCH  16  23
ENDBRANCH   4  12
BRANCH   6  26
ATOM     26  C   UNL     1     -34.795  29.726   2.802  0.00  0.00    +0.016 C 
ATOM     27  C   UNL     1     -35.675  29.905   1.565  0.00  0.00    +0.001 C 
BRANCH  26  28
ATOM     28  C   UNL     1     -34.315  31.095   3.308  0.00  0.00    +0.001 C 
BRANCH  28  29
ATOM     29  C   UNL     1     -34.384  32.199   2.249  0.00  0.00    +0.000 C 
ATOM     30  C   UNL     1     -33.108  33.026   2.227  0.00  0.00    +0.000 C 
ENDBRANCH  28  29
ENDBRANCH  26  28
ENDBRANCH   6  26
BRANCH   6  31
ATOM     31  C   UNL     1     -33.130  29.091   1.041  0.00  0.00    +0.017 C 
ATOM     32  C   UNL     1     -31.934  28.236   0.688  0.00  0.00    +0.001 C 
ENDBRANCH   6  31
TORSDOF 10
ENDMDL
MODEL 7
REMARK VINA RESULT:      -5.4      1.391      2.625
REMARK  Name = 192382
REMARK  10 active torsions:
REMARK  status: ('A' for Active; 'I' for Inactive)
REMARK    1  A    between atoms: N_4  and  C_12
REMARK    2  A    between atoms: C_6  and  C_26
REMARK    3  A    between atoms: C_6  and  C_31
REMARK    4  A    between atoms: C_13  and  O_17
REMARK    5  A    between atoms: C_14  and  O_19
REMARK    6  A    between atoms: C_15  and  O_21
REMARK    7  A    between atoms: C_16  and  C_23
REMARK    8  A    between atoms: C_23  and  O_24
REMARK    9  A    between atoms: C_26  and  C_28
REMARK   10  A    between atoms: C_28  and  C_29
REMARK                            x       y       z     vdW  Elec       q    Type
REMARK                         _______ _______ _______ _____ _____    ______ ____
ROOT
ATOM      1  O   UNL     1     -34.586  25.128   0.901  0.00  0.00    -0.274 OA
ATOM      2  O   UNL     1     -33.067  26.650   5.001  0.00  0.00    -0.274 OA
ATOM      3  O   UNL     1     -36.407  23.524   4.863  0.00  0.00    -0.252 OA
ATOM      4  N   UNL     1     -35.672  24.412   2.833  0.00  0.00    -0.188 N 
ATOM      5  N   UNL     1     -34.788  25.135   4.903  0.00  0.00    -0.239 N 
ATOM      6  C   UNL     1     -34.265  26.435   2.906  0.00  0.00    +0.138 C 
ATOM      7  C   UNL     1     -34.826  25.263   2.103  0.00  0.00    +0.242 C 
ATOM      8  C   UNL     1     -33.947  26.088   4.351  0.00  0.00    +0.237 C 
ATOM      9  C   UNL     1     -35.692  24.311   4.237  0.00  0.00    +0.317 C 
ATOM     10  H   UNL     1     -34.740  25.028   5.880  0.00  0.00    +0.159 HD
ENDROOT
BRANCH   4  12
ATOM     11  O   UNL     1     -37.835  23.770   2.336  0.00  0.00    -0.333 OA
ATOM     12  C   UNL     1     -36.465  23.463   2.093  0.00  0.00    +0.231 C 
ATOM     13  C   UNL     1     -36.146  22.030   2.517  0.00  0.00    +0.187 C 
ATOM     14  C   UNL     1     -37.104  21.039   1.853  0.00  0.00    +0.171 C 
ATOM     15  C   UNL     1     -38.561  21.478   2.003  0.00  0.00    +0.169 C 
ATOM     16  C   UNL     1     -38.727  22.942   1.584  0.00  0.00    +0.175 C 
BRANCH  13  17
ATOM     17  O   UNL     1     -34.811  21.718   2.127  0.00  0.00    -0.378 OA
ATOM     18  H   UNL     1     -34.538  20.885   2.543  0.00  0.00    +0.211 HD
ENDBRANCH  13  17
BRANCH  14  19
ATOM     19  O   UNL     1     -36.932  19.750   2.447  0.00  0.00    -0.379 OA
ATOM     20  H   UNL     1     -36.063  19.704   2.875  0.00  0.00    +0.211 HD
ENDBRANCH  14  19
BRANCH  15  21
ATOM     21  O   UNL     1     -39.365  20.632   1.186  0.00  0.00    -0.379 OA
ATOM     22  H   UNL     1     -39.228  20.859   0.252  0.00  0.00    +0.211 HD
ENDBRANCH  15  21
BRANCH  16  23
ATOM     23  C   UNL     1     -40.141  23.458   1.837  0.00  0.00    +0.169 C 
BRANCH  23  24
ATOM     24  O   UNL     1     -40.984  22.989   0.801  0.00  0.00    -0.379 OA
ATOM     25  H   UNL     1     -41.851  22.759   1.169  0.00  0.00    +0.211 HD
ENDBRANCH  23  24
ENDBRANCH  16  23
ENDBRANCH   4  12
BRANCH   6  26
ATOM     26  C   UNL     1     -35.340  27.537   2.921  0.00  0.00    +0.016 C 
ATOM     27  C   UNL     1     -36.307  27.320   1.758  0.00  0.00    +0.001 C 
BRANCH  26  28
ATOM     28  C   UNL     1     -34.730  28.945   2.842  0.00  0.00    +0.001 C 
BRANCH  28  29
ATOM     29  C   UNL     1     -35.577  29.935   2.038  0.00  0.00    +0.000 C 
ATOM     30  C   UNL     1     -35.632  31.295   2.716  0.00  0.00    +0.000 C 
ENDBRANCH  28  29
ENDBRANCH  26  28
ENDBRANCH   6  26
BRANCH   6  31
ATOM     31  C   UNL     1     -33.001  26.978   2.221  0.00  0.00    +0.017 C 
ATOM     32  C   UNL     1     -31.928  25.914   2.143  0.00  0.00    +0.001 C 
ENDBRANCH   6  31
TORSDOF 10
ENDMDL
MODEL 8
REMARK VINA RESULT:      -5.4      2.033      6.850
REMARK  Name = 192382
REMARK  10 active torsions:
REMARK  status: ('A' for Active; 'I' for Inactive)
REMARK    1  A    between atoms: N_4  and  C_12
REMARK    2  A    between atoms: C_6  and  C_26
REMARK    3  A    between atoms: C_6  and  C_31
REMARK    4  A    between atoms: C_13  and  O_17
REMARK    5  A    between atoms: C_14  and  O_19
REMARK    6  A    between atoms: C_15  and  O_21
REMARK    7  A    between atoms: C_16  and  C_23
REMARK    8  A    between atoms: C_23  and  O_24
REMARK    9  A    between atoms: C_26  and  C_28
REMARK   10  A    between atoms: C_28  and  C_29
REMARK                            x       y       z     vdW  Elec       q    Type
REMARK                         _______ _______ _______ _____ _____    ______ ____
ROOT
ATOM      1  O   UNL     1     -35.601  25.061   0.858  0.00  0.00    -0.274 OA
ATOM      2  O   UNL     1     -37.836  21.203   2.104  0.00  0.00    -0.274 OA
ATOM      3  O   UNL     1     -36.325  24.067   5.339  0.00  0.00    -0.252 OA
ATOM      4  N   UNL     1     -35.765  24.543   3.123  0.00  0.00    -0.188 N 
ATOM      5  N   UNL     1     -37.008  22.619   3.707  0.00  0.00    -0.239 N 
ATOM      6  C   UNL     1     -36.116  22.775   1.442  0.00  0.00    +0.138 C 
ATOM      7  C   UNL     1     -35.822  24.242   1.753  0.00  0.00    +0.242 C 
ATOM      8  C   UNL     1     -37.089  22.129   2.414  0.00  0.00    +0.237 C 
ATOM      9  C   UNL     1     -36.342  23.763   4.142  0.00  0.00    +0.317 C 
ATOM     10  H   UNL     1     -37.476  22.099   4.399  0.00  0.00    +0.159 HD
ENDROOT
BRANCH   4  12
ATOM     11  O   UNL     1     -35.612  26.769   2.518  0.00  0.00    -0.333 OA
ATOM     12  C   UNL     1     -35.213  25.820   3.504  0.00  0.00    +0.231 C 
ATOM     13  C   UNL     1     -33.690  25.752   3.609  0.00  0.00    +0.187 C 
ATOM     14  C   UNL     1     -33.098  27.142   3.849  0.00  0.00    +0.171 C 
ATOM     15  C   UNL     1     -33.661  28.171   2.868  0.00  0.00    +0.169 C 
ATOM     16  C   UNL     1     -35.191  28.100   2.834  0.00  0.00    +0.175 C 
BRANCH  13  17
ATOM     17  O   UNL     1     -33.338  24.902   4.698  0.00  0.00    -0.378 OA
ATOM     18  H   UNL     1     -33.784  24.046   4.598  0.00  0.00    +0.211 HD
ENDBRANCH  13  17
BRANCH  14  19
ATOM     19  O   UNL     1     -31.677  27.078   3.707  0.00  0.00    -0.379 OA
ATOM     20  H   UNL     1     -31.445  26.373   3.083  0.00  0.00    +0.211 HD
ENDBRANCH  14  19
BRANCH  15  21
ATOM     21  O   UNL     1     -33.233  29.464   3.288  0.00  0.00    -0.379 OA
ATOM     22  H   UNL     1     -33.366  30.099   2.567  0.00  0.00    +0.211 HD
ENDBRANCH  15  21
BRANCH  16  23
ATOM     23  C   UNL     1     -35.789  29.022   1.776  0.00  0.00    +0.169 C 
BRANCH  23  24
ATOM     24  O   UNL     1     -37.103  28.583   1.484  0.00  0.00    -0.379 OA
ATOM     25  H   UNL     1     -37.076  27.941   0.757  0.00  0.00    +0.211 HD
ENDBRANCH  23  24
ENDBRANCH  16  23
ENDBRANCH   4  12
BRANCH   6  26
ATOM     26  C   UNL     1     -34.784  22.009   1.543  0.00  0.00    +0.016 C 
ATOM     27  C   UNL     1     -34.048  22.091   0.206  0.00  0.00    +0.001 C 
BRANCH  26  28
ATOM     28  C   UNL     1     -34.988  20.539   1.941  0.00  0.00    +0.001 C 
BRANCH  28  29
ATOM     29  C   UNL     1     -34.444  19.544   0.913  0.00  0.00    +0.000 C 
ATOM     30  C   UNL     1     -33.260  18.767   1.467  0.00  0.00    +0.000 C 
ENDBRANCH  28  29
ENDBRANCH  26  28
ENDBRANCH   6  26
BRANCH   6  31
ATOM     31  C   UNL     1     -36.661  22.645   0.011  0.00  0.00    +0.017 C 
ATOM     32  C   UNL     1     -38.013  23.313  -0.116  0.00  0.00    +0.001 C 
ENDBRANCH   6  31
TORSDOF 10
ENDMDL
MODEL 9
REMARK VINA RESULT:      -5.4      2.462      4.505
REMARK  Name = 192382
REMARK  10 active torsions:
REMARK  status: ('A' for Active; 'I' for Inactive)
REMARK    1  A    between atoms: N_4  and  C_12
REMARK    2  A    between atoms: C_6  and  C_26
REMARK    3  A    between atoms: C_6  and  C_31
REMARK    4  A    between atoms: C_13  and  O_17
REMARK    5  A    between atoms: C_14  and  O_19
REMARK    6  A    between atoms: C_15  and  O_21
REMARK    7  A    between atoms: C_16  and  C_23
REMARK    8  A    between atoms: C_23  and  O_24
REMARK    9  A    between atoms: C_26  and  C_28
REMARK   10  A    between atoms: C_28  and  C_29
REMARK                            x       y       z     vdW  Elec       q    Type
REMARK                         _______ _______ _______ _____ _____    ______ ____
ROOT
ATOM      1  O   UNL     1     -35.700  22.482   2.352  0.00  0.00    -0.274 OA
ATOM      2  O   UNL     1     -36.370  25.429   5.859  0.00  0.00    -0.274 OA
ATOM      3  O   UNL     1     -39.604  24.982   2.652  0.00  0.00    -0.252 OA
ATOM      4  N   UNL     1     -37.598  23.830   2.334  0.00  0.00    -0.188 N 
ATOM      5  N   UNL     1     -37.945  25.238   4.202  0.00  0.00    -0.239 N 
ATOM      6  C   UNL     1     -35.680  24.448   3.754  0.00  0.00    +0.138 C 
ATOM      7  C   UNL     1     -36.312  23.469   2.765  0.00  0.00    +0.242 C 
ATOM      8  C   UNL     1     -36.675  25.059   4.726  0.00  0.00    +0.237 C 
ATOM      9  C   UNL     1     -38.457  24.712   3.018  0.00  0.00    +0.317 C 
ATOM     10  H   UNL     1     -38.557  25.802   4.727  0.00  0.00    +0.159 HD
ENDROOT
BRANCH   4  12
ATOM     11  O   UNL     1     -38.685  24.109   0.313  0.00  0.00    -0.333 OA
ATOM     12  C   UNL     1     -38.144  23.131   1.197  0.00  0.00    +0.231 C 
ATOM     13  C   UNL     1     -39.217  22.133   1.627  0.00  0.00    +0.187 C 
ATOM     14  C   UNL     1     -39.908  21.516   0.409  0.00  0.00    +0.171 C 
ATOM     15  C   UNL     1     -40.344  22.586  -0.593  0.00  0.00    +0.169 C 
ATOM     16  C   UNL     1     -39.184  23.539  -0.900  0.00  0.00    +0.175 C 
BRANCH  13  17
ATOM     17  O   UNL     1     -38.607  21.095   2.391  0.00  0.00    -0.378 OA
ATOM     18  H   UNL     1     -37.747  21.400   2.722  0.00  0.00    +0.211 HD
ENDBRANCH  13  17
BRANCH  14  19
ATOM     19  O   UNL     1     -41.051  20.776   0.842  0.00  0.00    -0.379 OA
ATOM     20  H   UNL     1     -41.785  21.385   1.014  0.00  0.00    +0.211 HD
ENDBRANCH  14  19
BRANCH  15  21
ATOM     21  O   UNL     1     -40.777  21.930  -1.781  0.00  0.00    -0.379 OA
ATOM     22  H   UNL     1     -41.304  21.150  -1.546  0.00  0.00    +0.211 HD
ENDBRANCH  15  21
BRANCH  16  23
ATOM     23  C   UNL     1     -39.610  24.696  -1.798  0.00  0.00    +0.169 C 
BRANCH  23  24
ATOM     24  O   UNL     1     -41.011  24.865  -1.682  0.00  0.00    -0.379 OA
ATOM     25  H   UNL     1     -41.426  24.008  -1.495  0.00  0.00    +0.211 HD
ENDBRANCH  23  24
ENDBRANCH  16  23
ENDBRANCH   4  12
BRANCH   6  26
ATOM     26  C   UNL     1     -35.071  25.599   2.933  0.00  0.00    +0.016 C 
ATOM     27  C   UNL     1     -33.732  25.152   2.347  0.00  0.00    +0.001 C 
BRANCH  26  28
ATOM     28  C   UNL     1     -34.878  26.873   3.772  0.00  0.00    +0.001 C 
BRANCH  28  29
ATOM     29  C   UNL     1     -33.419  27.143   4.150  0.00  0.00    +0.000 C 
ATOM     30  C   UNL     1     -33.186  26.941   5.639  0.00  0.00    +0.000 C 
ENDBRANCH  28  29
ENDBRANCH  26  28
ENDBRANCH   6  26
BRANCH   6  31
ATOM     31  C   UNL     1     -34.562  23.746   4.540  0.00  0.00    +0.017 C 
ATOM     32  C   UNL     1     -35.133  22.719   5.493  0.00  0.00    +0.001 C 
ENDBRANCH   6  31
TORSDOF 10
ENDMDL
