MODEL 1
REMARK VINA RESULT:      -7.5      0.000      0.000
REMARK  Name = 54758501
REMARK  6 active torsions:
REMARK  status: ('A' for Active; 'I' for Inactive)
REMARK    1  A    between atoms: N_2  and  C_17
REMARK    2  A    between atoms: C_8  and  O_26
REMARK    3  A    between atoms: C_12  and  N_18
REMARK    4  A    between atoms: O_26  and  C_27
REMARK    5  A    between atoms: C_29  and  N_34
REMARK    6  A    between atoms: C_35  and  C_37
REMARK                            x       y       z     vdW  Elec       q    Type
REMARK                         _______ _______ _______ _____ _____    ______ ____
ROOT
ATOM      1  S   UNL     1     -42.723  27.900   2.379  0.00  0.00    -0.096 S 
ATOM      2  N   UNL     1     -41.102  22.717   0.487  0.00  0.00    -0.238 N 
ATOM      3  N   UNL     1     -42.715  24.382   0.736  0.00  0.00    -0.331 NA
ATOM      4  N   UNL     1     -40.475  24.667   1.606  0.00  0.00    -0.293 NA
ATOM      5  C   UNL     1     -41.451  23.993   0.969  0.00  0.00    +0.206 C 
ATOM      6  C   UNL     1     -43.005  25.619   1.219  0.00  0.00    +0.143 C 
ATOM      7  C   UNL     1     -42.061  26.394   1.892  0.00  0.00    +0.195 C 
ATOM      8  C   UNL     1     -40.779  25.892   2.078  0.00  0.00    +0.286 C 
ATOM      9  C   UNL     1     -44.264  26.283   1.116  0.00  0.00    +0.037 C 
ATOM     10  C   UNL     1     -44.247  27.528   1.704  0.00  0.00    +0.034 C 
ATOM     11  H   UNL     1     -41.838  22.252   0.028  0.00  0.00    +0.166 HD
ENDROOT
BRANCH   2  17
ATOM     12  C   UNL     1     -37.534  20.504   0.621  0.00  0.00    +0.048 C 
ATOM     13  C   UNL     1     -38.382  20.395  -0.482  0.00  0.00    +0.016 C 
ATOM     14  C   UNL     1     -37.872  21.348   1.680  0.00  0.00    +0.016 C 
ATOM     15  C   UNL     1     -39.567  21.129  -0.525  0.00  0.00    +0.017 C 
ATOM     16  C   UNL     1     -39.057  22.082   1.635  0.00  0.00    +0.017 C 
ATOM     17  C   UNL     1     -39.904  21.972   0.533  0.00  0.00    +0.059 C 
BRANCH  12  18
ATOM     18  N   UNL     1     -36.345  19.768   0.664  0.00  0.00    -0.312 N 
ATOM     19  N   UNL     1     -34.017  18.139   0.956  0.00  0.00    +0.388 N 
ATOM     20  C   UNL     1     -36.274  18.463   0.000  0.00  0.00    +0.068 C 
ATOM     21  C   UNL     1     -35.471  19.934   1.833  0.00  0.00    +0.068 C 
ATOM     22  C   UNL     1     -34.818  18.076  -0.272  0.00  0.00    -0.056 C 
ATOM     23  C   UNL     1     -34.041  19.502   1.500  0.00  0.00    -0.056 C 
ATOM     24  C   UNL     1     -32.642  17.716   0.693  0.00  0.00    -0.101 C 
ATOM     25  H   UNL     1     -34.419  17.501   1.644  0.00  0.00    -0.080 HD
ENDBRANCH  12  18
ENDBRANCH   2  17
BRANCH   8  26
ATOM     26  O   UNL     1     -39.793  26.591   2.730  0.00  0.00    -0.429 OA
BRANCH  26  27
ATOM     27  C   UNL     1     -38.514  26.080   2.675  0.00  0.00    +0.149 C 
ATOM     28  C   UNL     1     -38.101  25.129   3.607  0.00  0.00    +0.052 C 
ATOM     29  C   UNL     1     -36.806  24.613   3.551  0.00  0.00    +0.054 C 
ATOM     30  C   UNL     1     -37.632  26.515   1.685  0.00  0.00    +0.038 C 
ATOM     31  C   UNL     1     -35.924  25.048   2.562  0.00  0.00    +0.015 C 
ATOM     32  C   UNL     1     -36.337  26.000   1.628  0.00  0.00    +0.004 C 
BRANCH  29  34
ATOM     33  O   UNL     1     -34.821  24.822   5.795  0.00  0.00    -0.270 OA
ATOM     34  N   UNL     1     -36.394  23.661   4.484  0.00  0.00    -0.280 N 
ATOM     35  C   UNL     1     -35.459  23.813   5.517  0.00  0.00    +0.250 C 
ATOM     36  H   UNL     1     -36.812  22.773   4.408  0.00  0.00    +0.155 HD
BRANCH  35  37
ATOM     37  C   UNL     1     -35.295  22.555   6.301  0.00  0.00    +0.058 C 
ATOM     38  C   UNL     1     -35.188  21.375   5.680  0.00  0.00    +0.005 C 
ENDBRANCH  35  37
ENDBRANCH  29  34
ENDBRANCH  26  27
ENDBRANCH   8  26
TORSDOF 6
ENDMDL
MODEL 2
REMARK VINA RESULT:      -7.2      3.102      4.967
REMARK  Name = 54758501
REMARK  6 active torsions:
REMARK  status: ('A' for Active; 'I' for Inactive)
REMARK    1  A    between atoms: N_2  and  C_17
REMARK    2  A    between atoms: C_8  and  O_26
REMARK    3  A    between atoms: C_12  and  N_18
REMARK    4  A    between atoms: O_26  and  C_27
REMARK    5  A    between atoms: C_29  and  N_34
REMARK    6  A    between atoms: C_35  and  C_37
REMARK                            x       y       z     vdW  Elec       q    Type
REMARK                         _______ _______ _______ _____ _____    ______ ____
ROOT
ATOM      1  S   UNL     1     -38.425  25.870   2.559  0.00  0.00    -0.096 S 
ATOM      2  N   UNL     1     -37.205  20.378   1.363  0.00  0.00    -0.238 N 
ATOM      3  N   UNL     1     -38.741  22.067   1.838  0.00  0.00    -0.331 NA
ATOM      4  N   UNL     1     -36.369  22.529   1.710  0.00  0.00    -0.293 NA
ATOM      5  C   UNL     1     -37.454  21.733   1.654  0.00  0.00    +0.206 C 
ATOM      6  C   UNL     1     -38.931  23.384   2.115  0.00  0.00    +0.143 C 
ATOM      7  C   UNL     1     -37.871  24.286   2.195  0.00  0.00    +0.195 C 
ATOM      8  C   UNL     1     -36.575  23.832   1.986  0.00  0.00    +0.286 C 
ATOM      9  C   UNL     1     -40.187  24.016   2.356  0.00  0.00    +0.037 C 
ATOM     10  C   UNL     1     -40.056  25.362   2.610  0.00  0.00    +0.034 C 
ATOM     11  H   UNL     1     -38.019  19.825   1.329  0.00  0.00    +0.166 HD
ENDROOT
BRANCH   2  17
ATOM     12  C   UNL     1     -33.676  18.226   0.615  0.00  0.00    +0.048 C 
ATOM     13  C   UNL     1     -33.707  19.187   1.627  0.00  0.00    +0.016 C 
ATOM     14  C   UNL     1     -34.818  17.981  -0.148  0.00  0.00    +0.016 C 
ATOM     15  C   UNL     1     -34.878  19.902   1.875  0.00  0.00    +0.017 C 
ATOM     16  C   UNL     1     -35.989  18.696   0.100  0.00  0.00    +0.017 C 
ATOM     17  C   UNL     1     -36.019  19.656   1.111  0.00  0.00    +0.059 C 
BRANCH  12  18
ATOM     18  N   UNL     1     -32.501  17.509   0.368  0.00  0.00    -0.312 N 
ATOM     19  N   UNL     1     -30.111  15.965   0.110  0.00  0.00    +0.388 N 
ATOM     20  C   UNL     1     -32.578  16.091  -0.000  0.00  0.00    +0.068 C 
ATOM     21  C   UNL     1     -31.281  17.915   1.078  0.00  0.00    +0.068 C 
ATOM     22  C   UNL     1     -31.293  15.647  -0.702  0.00  0.00    -0.056 C 
ATOM     23  C   UNL     1     -30.038  17.412   0.340  0.00  0.00    -0.056 C 
ATOM     24  C   UNL     1     -28.895  15.488  -0.547  0.00  0.00    -0.101 C 
ATOM     25  H   UNL     1     -30.193  15.491   1.009  0.00  0.00    -0.080 HD
ENDBRANCH  12  18
ENDBRANCH   2  17
BRANCH   8  26
ATOM     26  O   UNL     1     -35.478  24.656   2.047  0.00  0.00    -0.429 OA
BRANCH  26  27
ATOM     27  C   UNL     1     -35.037  25.029   3.300  0.00  0.00    +0.149 C 
ATOM     28  C   UNL     1     -34.387  26.250   3.477  0.00  0.00    +0.052 C 
ATOM     29  C   UNL     1     -33.941  26.625   4.743  0.00  0.00    +0.054 C 
ATOM     30  C   UNL     1     -35.242  24.184   4.390  0.00  0.00    +0.038 C 
ATOM     31  C   UNL     1     -34.145  25.780   5.834  0.00  0.00    +0.015 C 
ATOM     32  C   UNL     1     -34.796  24.559   5.657  0.00  0.00    +0.004 C 
BRANCH  29  34
ATOM     33  O   UNL     1     -31.154  27.469   4.008  0.00  0.00    -0.270 OA
ATOM     34  N   UNL     1     -33.291  27.847   4.919  0.00  0.00    -0.280 N 
ATOM     35  C   UNL     1     -31.981  28.189   4.555  0.00  0.00    +0.250 C 
ATOM     36  H   UNL     1     -33.817  28.557   5.352  0.00  0.00    +0.155 HD
BRANCH  35  37
ATOM     37  C   UNL     1     -31.660  29.600   4.915  0.00  0.00    +0.058 C 
ATOM     38  C   UNL     1     -31.812  30.034   6.170  0.00  0.00    +0.005 C 
ENDBRANCH  35  37
ENDBRANCH  29  34
ENDBRANCH  26  27
ENDBRANCH   8  26
TORSDOF 6
ENDMDL
MODEL 3
REMARK VINA RESULT:      -7.0      4.492      8.297
REMARK  Name = 54758501
REMARK  6 active torsions:
REMARK  status: ('A' for Active; 'I' for Inactive)
REMARK    1  A    between atoms: N_2  and  C_17
REMARK    2  A    between atoms: C_8  and  O_26
REMARK    3  A    between atoms: C_12  and  N_18
REMARK    4  A    between atoms: O_26  and  C_27
REMARK    5  A    between atoms: C_29  and  N_34
REMARK    6  A    between atoms: C_35  and  C_37
REMARK                            x       y       z     vdW  Elec       q    Type
REMARK                         _______ _______ _______ _____ _____    ______ ____
ROOT
ATOM      1  S   UNL     1     -30.603  30.313   4.933  0.00  0.00    -0.096 S 
ATOM      2  N   UNL     1     -34.103  25.818   5.722  0.00  0.00    -0.238 N 
ATOM      3  N   UNL     1     -32.457  27.278   6.493  0.00  0.00    -0.331 NA
ATOM      4  N   UNL     1     -33.377  27.490   4.265  0.00  0.00    -0.293 NA
ATOM      5  C   UNL     1     -33.265  26.924   5.481  0.00  0.00    +0.206 C 
ATOM      6  C   UNL     1     -31.667  28.350   6.214  0.00  0.00    +0.143 C 
ATOM      7  C   UNL     1     -31.711  29.004   4.984  0.00  0.00    +0.195 C 
ATOM      8  C   UNL     1     -32.588  28.551   4.005  0.00  0.00    +0.286 C 
ATOM      9  C   UNL     1     -30.717  28.941   7.098  0.00  0.00    +0.037 C 
ATOM     10  C   UNL     1     -30.070  30.014   6.528  0.00  0.00    +0.034 C 
ATOM     11  H   UNL     1     -33.995  25.428   6.620  0.00  0.00    +0.166 HD
ENDROOT
BRANCH   2  17
ATOM     12  C   UNL     1     -36.971  23.857   3.362  0.00  0.00    +0.048 C 
ATOM     13  C   UNL     1     -37.315  25.016   4.059  0.00  0.00    +0.016 C 
ATOM     14  C   UNL     1     -35.674  23.349   3.451  0.00  0.00    +0.016 C 
ATOM     15  C   UNL     1     -36.362  25.667   4.843  0.00  0.00    +0.017 C 
ATOM     16  C   UNL     1     -34.722  24.000   4.235  0.00  0.00    +0.017 C 
ATOM     17  C   UNL     1     -35.066  25.158   4.930  0.00  0.00    +0.059 C 
BRANCH  12  18
ATOM     18  N   UNL     1     -37.926  23.205   2.575  0.00  0.00    -0.312 N 
ATOM     19  N   UNL     1     -39.933  21.730   1.177  0.00  0.00    +0.388 N 
ATOM     20  C   UNL     1     -39.324  23.647   2.615  0.00  0.00    +0.068 C 
ATOM     21  C   UNL     1     -37.718  21.783   2.271  0.00  0.00    +0.068 C 
ATOM     22  C   UNL     1     -40.071  23.179   1.363  0.00  0.00    -0.056 C 
ATOM     23  C   UNL     1     -38.516  21.378   1.029  0.00  0.00    -0.056 C 
ATOM     24  C   UNL     1     -40.695  21.289   0.009  0.00  0.00    -0.101 C 
ATOM     25  H   UNL     1     -40.308  21.255   1.998  0.00  0.00    -0.080 HD
ENDBRANCH  12  18
ENDBRANCH   2  17
BRANCH   8  26
ATOM     26  O   UNL     1     -32.691  29.140   2.769  0.00  0.00    -0.429 OA
BRANCH  26  27
ATOM     27  C   UNL     1     -33.911  29.686   2.428  0.00  0.00    +0.149 C 
ATOM     28  C   UNL     1     -34.729  29.044   1.500  0.00  0.00    +0.052 C 
ATOM     29  C   UNL     1     -35.961  29.598   1.155  0.00  0.00    +0.054 C 
ATOM     30  C   UNL     1     -34.326  30.882   3.014  0.00  0.00    +0.038 C 
ATOM     31  C   UNL     1     -36.377  30.794   1.741  0.00  0.00    +0.015 C 
ATOM     32  C   UNL     1     -35.559  31.437   2.670  0.00  0.00    +0.004 C 
BRANCH  29  34
ATOM     33  O   UNL     1     -37.873  27.309   1.506  0.00  0.00    -0.270 OA
ATOM     34  N   UNL     1     -36.779  28.954   0.226  0.00  0.00    -0.280 N 
ATOM     35  C   UNL     1     -37.658  27.884   0.445  0.00  0.00    +0.250 C 
ATOM     36  H   UNL     1     -36.734  29.293  -0.697  0.00  0.00    +0.155 HD
BRANCH  35  37
ATOM     37  C   UNL     1     -38.356  27.479  -0.809  0.00  0.00    +0.058 C 
ATOM     38  C   UNL     1     -39.121  26.383  -0.839  0.00  0.00    +0.005 C 
ENDBRANCH  35  37
ENDBRANCH  29  34
ENDBRANCH  26  27
ENDBRANCH   8  26
TORSDOF 6
ENDMDL
MODEL 4
REMARK VINA RESULT:      -6.9      5.694      8.972
REMARK  Name = 54758501
REMARK  6 active torsions:
REMARK  status: ('A' for Active; 'I' for Inactive)
REMARK    1  A    between atoms: N_2  and  C_17
REMARK    2  A    between atoms: C_8  and  O_26
REMARK    3  A    between atoms: C_12  and  N_18
REMARK    4  A    between atoms: O_26  and  C_27
REMARK    5  A    between atoms: C_29  and  N_34
REMARK    6  A    between atoms: C_35  and  C_37
REMARK                            x       y       z     vdW  Elec       q    Type
REMARK                         _______ _______ _______ _____ _____    ______ ____
ROOT
ATOM      1  S   UNL     1     -30.898  29.921   4.889  0.00  0.00    -0.096 S 
ATOM      2  N   UNL     1     -34.612  25.585   5.593  0.00  0.00    -0.238 N 
ATOM      3  N   UNL     1     -32.964  27.011   6.422  0.00  0.00    -0.331 NA
ATOM      4  N   UNL     1     -33.729  27.178   4.133  0.00  0.00    -0.293 NA
ATOM      5  C   UNL     1     -33.718  26.651   5.371  0.00  0.00    +0.206 C 
ATOM      6  C   UNL     1     -32.118  28.043   6.161  0.00  0.00    +0.143 C 
ATOM      7  C   UNL     1     -32.057  28.655   4.910  0.00  0.00    +0.195 C 
ATOM      8  C   UNL     1     -32.885  28.200   3.891  0.00  0.00    +0.286 C 
ATOM      9  C   UNL     1     -31.205  28.631   7.086  0.00  0.00    +0.037 C 
ATOM     10  C   UNL     1     -30.482  29.659   6.526  0.00  0.00    +0.034 C 
ATOM     11  H   UNL     1     -34.577  25.224   6.507  0.00  0.00    +0.166 HD
ENDROOT
BRANCH   2  17
ATOM     12  C   UNL     1     -37.393  23.646   3.113  0.00  0.00    +0.048 C 
ATOM     13  C   UNL     1     -37.676  24.915   3.621  0.00  0.00    +0.016 C 
ATOM     14  C   UNL     1     -36.186  23.022   3.430  0.00  0.00    +0.016 C 
ATOM     15  C   UNL     1     -36.753  25.558   4.445  0.00  0.00    +0.017 C 
ATOM     16  C   UNL     1     -35.263  23.665   4.253  0.00  0.00    +0.017 C 
ATOM     17  C   UNL     1     -35.547  24.933   4.761  0.00  0.00    +0.059 C 
BRANCH  12  18
ATOM     18  N   UNL     1     -38.320  23.002   2.286  0.00  0.00    -0.312 N 
ATOM     19  N   UNL     1     -40.286  21.551   0.807  0.00  0.00    +0.388 N 
ATOM     20  C   UNL     1     -39.700  23.492   2.222  0.00  0.00    +0.068 C 
ATOM     21  C   UNL     1     -38.144  21.565   2.039  0.00  0.00    +0.068 C 
ATOM     22  C   UNL     1     -40.383  23.009   0.940  0.00  0.00    -0.056 C 
ATOM     23  C   UNL     1     -38.876  21.146   0.762  0.00  0.00    -0.056 C 
ATOM     24  C   UNL     1     -40.987  21.098  -0.394  0.00  0.00    -0.101 C 
ATOM     25  H   UNL     1     -40.729  21.116   1.616  0.00  0.00    -0.080 HD
ENDBRANCH  12  18
ENDBRANCH   2  17
BRANCH   8  26
ATOM     26  O   UNL     1     -32.885  28.748   2.631  0.00  0.00    -0.429 OA
BRANCH  26  27
ATOM     27  C   UNL     1     -33.769  29.780   2.391  0.00  0.00    +0.149 C 
ATOM     28  C   UNL     1     -33.328  31.102   2.438  0.00  0.00    +0.052 C 
ATOM     29  C   UNL     1     -34.222  32.145   2.196  0.00  0.00    +0.054 C 
ATOM     30  C   UNL     1     -35.104  29.500   2.101  0.00  0.00    +0.038 C 
ATOM     31  C   UNL     1     -35.557  31.865   1.907  0.00  0.00    +0.015 C 
ATOM     32  C   UNL     1     -35.999  30.542   1.859  0.00  0.00    +0.004 C 
BRANCH  29  34
ATOM     33  O   UNL     1     -33.191  33.927   0.011  0.00  0.00    -0.270 OA
ATOM     34  N   UNL     1     -33.780  33.467   2.243  0.00  0.00    -0.280 N 
ATOM     35  C   UNL     1     -33.306  34.256   1.185  0.00  0.00    +0.250 C 
ATOM     36  H   UNL     1     -33.803  33.899   3.126  0.00  0.00    +0.155 HD
BRANCH  35  37
ATOM     37  C   UNL     1     -32.928  35.623   1.646  0.00  0.00    +0.058 C 
ATOM     38  C   UNL     1     -32.239  35.795   2.779  0.00  0.00    +0.005 C 
ENDBRANCH  35  37
ENDBRANCH  29  34
ENDBRANCH  26  27
ENDBRANCH   8  26
TORSDOF 6
ENDMDL
MODEL 5
REMARK VINA RESULT:      -6.9      3.440      8.620
REMARK  Name = 54758501
REMARK  6 active torsions:
REMARK  status: ('A' for Active; 'I' for Inactive)
REMARK    1  A    between atoms: N_2  and  C_17
REMARK    2  A    between atoms: C_8  and  O_26
REMARK    3  A    between atoms: C_12  and  N_18
REMARK    4  A    between atoms: O_26  and  C_27
REMARK    5  A    between atoms: C_29  and  N_34
REMARK    6  A    between atoms: C_35  and  C_37
REMARK                            x       y       z     vdW  Elec       q    Type
REMARK                         _______ _______ _______ _____ _____    ______ ____
ROOT
ATOM      1  S   UNL     1     -35.457  21.379   2.177  0.00  0.00    -0.096 S 
ATOM      2  N   UNL     1     -40.304  24.284   1.106  0.00  0.00    -0.238 N 
ATOM      3  N   UNL     1     -38.587  22.863   0.421  0.00  0.00    -0.331 NA
ATOM      4  N   UNL     1     -38.662  23.743   2.674  0.00  0.00    -0.293 NA
ATOM      5  C   UNL     1     -39.118  23.591   1.416  0.00  0.00    +0.206 C 
ATOM      6  C   UNL     1     -37.445  22.212   0.767  0.00  0.00    +0.143 C 
ATOM      7  C   UNL     1     -36.894  22.308   2.044  0.00  0.00    +0.195 C 
ATOM      8  C   UNL     1     -37.529  23.092   3.001  0.00  0.00    +0.286 C 
ATOM      9  C   UNL     1     -36.670  21.371  -0.085  0.00  0.00    +0.037 C 
ATOM     10  C   UNL     1     -35.565  20.855   0.554  0.00  0.00    +0.034 C 
ATOM     11  H   UNL     1     -40.609  24.150   0.180  0.00  0.00    +0.166 HD
ENDROOT
BRANCH   2  17
ATOM     12  C   UNL     1     -42.795  26.811   3.353  0.00  0.00    +0.048 C 
ATOM     13  C   UNL     1     -41.464  26.628   3.730  0.00  0.00    +0.016 C 
ATOM     14  C   UNL     1     -43.298  26.155   2.229  0.00  0.00    +0.016 C 
ATOM     15  C   UNL     1     -40.638  25.788   2.984  0.00  0.00    +0.017 C 
ATOM     16  C   UNL     1     -42.471  25.315   1.484  0.00  0.00    +0.017 C 
ATOM     17  C   UNL     1     -41.141  25.132   1.861  0.00  0.00    +0.059 C 
BRANCH  12  18
ATOM     18  N   UNL     1     -43.624  27.655   4.101  0.00  0.00    -0.312 N 
ATOM     19  N   UNL     1     -45.315  29.538   5.425  0.00  0.00    +0.388 N 
ATOM     20  C   UNL     1     -45.078  27.582   3.931  0.00  0.00    +0.068 C 
ATOM     21  C   UNL     1     -43.096  28.966   4.500  0.00  0.00    +0.068 C 
ATOM     22  C   UNL     1     -45.793  28.178   5.147  0.00  0.00    -0.056 C 
ATOM     23  C   UNL     1     -43.874  29.515   5.699  0.00  0.00    -0.056 C 
ATOM     24  C   UNL     1     -46.043  30.115   6.555  0.00  0.00    -0.101 C 
ATOM     25  H   UNL     1     -45.487  30.120   4.606  0.00  0.00    -0.080 HD
ENDBRANCH  12  18
ENDBRANCH   2  17
BRANCH   8  26
ATOM     26  O   UNL     1     -37.050  23.238   4.280  0.00  0.00    -0.429 OA
BRANCH  26  27
ATOM     27  C   UNL     1     -36.125  24.237   4.498  0.00  0.00    +0.149 C 
ATOM     28  C   UNL     1     -36.312  25.498   3.933  0.00  0.00    +0.052 C 
ATOM     29  C   UNL     1     -35.374  26.507   4.153  0.00  0.00    +0.054 C 
ATOM     30  C   UNL     1     -35.001  23.985   5.285  0.00  0.00    +0.038 C 
ATOM     31  C   UNL     1     -34.251  26.255   4.940  0.00  0.00    +0.015 C 
ATOM     32  C   UNL     1     -34.063  24.994   5.506  0.00  0.00    +0.004 C 
BRANCH  29  34
ATOM     33  O   UNL     1     -34.278  27.684   1.617  0.00  0.00    -0.270 OA
ATOM     34  N   UNL     1     -35.563  27.768   3.588  0.00  0.00    -0.280 N 
ATOM     35  C   UNL     1     -35.024  28.268   2.394  0.00  0.00    +0.250 C 
ATOM     36  H   UNL     1     -36.146  28.383   4.088  0.00  0.00    +0.155 HD
BRANCH  35  37
ATOM     37  C   UNL     1     -35.467  29.669   2.135  0.00  0.00    +0.058 C 
ATOM     38  C   UNL     1     -35.186  30.644   3.006  0.00  0.00    +0.005 C 
ENDBRANCH  35  37
ENDBRANCH  29  34
ENDBRANCH  26  27
ENDBRANCH   8  26
TORSDOF 6
ENDMDL
MODEL 6
REMARK VINA RESULT:      -6.8      4.428      7.590
REMARK  Name = 54758501
REMARK  6 active torsions:
REMARK  status: ('A' for Active; 'I' for Inactive)
REMARK    1  A    between atoms: N_2  and  C_17
REMARK    2  A    between atoms: C_8  and  O_26
REMARK    3  A    between atoms: C_12  and  N_18
REMARK    4  A    between atoms: O_26  and  C_27
REMARK    5  A    between atoms: C_29  and  N_34
REMARK    6  A    between atoms: C_35  and  C_37
REMARK                            x       y       z     vdW  Elec       q    Type
REMARK                         _______ _______ _______ _____ _____    ______ ____
ROOT
ATOM      1  S   UNL     1     -40.756  24.957   1.633  0.00  0.00    -0.096 S 
ATOM      2  N   UNL     1     -36.078  28.298   1.459  0.00  0.00    -0.238 N 
ATOM      3  N   UNL     1     -38.113  27.595   0.565  0.00  0.00    -0.331 NA
ATOM      4  N   UNL     1     -37.234  26.622   2.599  0.00  0.00    -0.293 NA
ATOM      5  C   UNL     1     -37.205  27.459   1.545  0.00  0.00    +0.206 C 
ATOM      6  C   UNL     1     -39.183  26.765   0.691  0.00  0.00    +0.143 C 
ATOM      7  C   UNL     1     -39.303  25.864   1.748  0.00  0.00    +0.195 C 
ATOM      8  C   UNL     1     -38.301  25.807   2.709  0.00  0.00    +0.286 C 
ATOM      9  C   UNL     1     -40.295  26.692  -0.200  0.00  0.00    +0.037 C 
ATOM     10  C   UNL     1     -41.220  25.753   0.194  0.00  0.00    +0.034 C 
ATOM     11  H   UNL     1     -36.089  28.896   0.677  0.00  0.00    +0.166 HD
ENDROOT
BRANCH   2  17
ATOM     12  C   UNL     1     -32.680  28.753   3.885  0.00  0.00    +0.048 C 
ATOM     13  C   UNL     1     -33.366  29.879   3.428  0.00  0.00    +0.016 C 
ATOM     14  C   UNL     1     -33.122  27.477   3.536  0.00  0.00    +0.016 C 
ATOM     15  C   UNL     1     -34.494  29.727   2.622  0.00  0.00    +0.017 C 
ATOM     16  C   UNL     1     -34.250  27.326   2.730  0.00  0.00    +0.017 C 
ATOM     17  C   UNL     1     -34.935  28.451   2.273  0.00  0.00    +0.059 C 
BRANCH  12  18
ATOM     18  N   UNL     1     -31.548  28.906   4.695  0.00  0.00    -0.312 N 
ATOM     19  N   UNL     1     -29.259  28.964   6.402  0.00  0.00    +0.388 N 
ATOM     20  C   UNL     1     -30.221  28.595   4.155  0.00  0.00    +0.068 C 
ATOM     21  C   UNL     1     -31.705  28.719   6.143  0.00  0.00    +0.068 C 
ATOM     22  C   UNL     1     -29.131  29.287   4.976  0.00  0.00    -0.056 C 
ATOM     23  C   UNL     1     -30.567  29.409   6.899  0.00  0.00    -0.056 C 
ATOM     24  C   UNL     1     -28.181  29.588   7.168  0.00  0.00    -0.101 C 
ATOM     25  H   UNL     1     -29.188  27.953   6.519  0.00  0.00    -0.080 HD
ENDBRANCH  12  18
ENDBRANCH   2  17
BRANCH   8  26
ATOM     26  O   UNL     1     -38.345  24.947   3.780  0.00  0.00    -0.429 OA
BRANCH  26  27
ATOM     27  C   UNL     1     -37.188  24.264   4.089  0.00  0.00    +0.149 C 
ATOM     28  C   UNL     1     -36.877  23.079   3.423  0.00  0.00    +0.052 C 
ATOM     29  C   UNL     1     -35.707  22.388   3.738  0.00  0.00    +0.054 C 
ATOM     30  C   UNL     1     -36.327  24.759   5.068  0.00  0.00    +0.038 C 
ATOM     31  C   UNL     1     -34.847  22.883   4.717  0.00  0.00    +0.015 C 
ATOM     32  C   UNL     1     -35.156  24.069   5.383  0.00  0.00    +0.004 C 
BRANCH  29  34
ATOM     33  O   UNL     1     -34.462  21.943   1.042  0.00  0.00    -0.270 OA
ATOM     34  N   UNL     1     -35.398  21.202   3.070  0.00  0.00    -0.280 N 
ATOM     35  C   UNL     1     -34.813  21.051   1.805  0.00  0.00    +0.250 C 
ATOM     36  H   UNL     1     -35.617  20.369   3.546  0.00  0.00    +0.155 HD
BRANCH  35  37
ATOM     37  C   UNL     1     -34.645  19.614   1.445  0.00  0.00    +0.058 C 
ATOM     38  C   UNL     1     -33.429  19.059   1.408  0.00  0.00    +0.005 C 
ENDBRANCH  35  37
ENDBRANCH  29  34
ENDBRANCH  26  27
ENDBRANCH   8  26
TORSDOF 6
ENDMDL
MODEL 7
REMARK VINA RESULT:      -6.8      5.126      8.977
REMARK  Name = 54758501
REMARK  6 active torsions:
REMARK  status: ('A' for Active; 'I' for Inactive)
REMARK    1  A    between atoms: N_2  and  C_17
REMARK    2  A    between atoms: C_8  and  O_26
REMARK    3  A    between atoms: C_12  and  N_18
REMARK    4  A    between atoms: O_26  and  C_27
REMARK    5  A    between atoms: C_29  and  N_34
REMARK    6  A    between atoms: C_35  and  C_37
REMARK                            x       y       z     vdW  Elec       q    Type
REMARK                         _______ _______ _______ _____ _____    ______ ____
ROOT
ATOM      1  S   UNL     1     -34.705  17.015  -0.390  0.00  0.00    -0.096 S 
ATOM      2  N   UNL     1     -36.340  21.975   2.020  0.00  0.00    -0.238 N 
ATOM      3  N   UNL     1     -36.835  20.008   0.870  0.00  0.00    -0.331 NA
ATOM      4  N   UNL     1     -34.569  20.532   1.539  0.00  0.00    -0.293 NA
ATOM      5  C   UNL     1     -35.891  20.771   1.443  0.00  0.00    +0.206 C 
ATOM      6  C   UNL     1     -36.355  18.858   0.328  0.00  0.00    +0.143 C 
ATOM      7  C   UNL     1     -35.002  18.522   0.376  0.00  0.00    +0.195 C 
ATOM      8  C   UNL     1     -34.110  19.387   0.998  0.00  0.00    +0.286 C 
ATOM      9  C   UNL     1     -37.126  17.863  -0.343  0.00  0.00    +0.037 C 
ATOM     10  C   UNL     1     -36.355  16.811  -0.782  0.00  0.00    +0.034 C 
ATOM     11  H   UNL     1     -37.310  22.118   1.932  0.00  0.00    +0.166 HD
ENDROOT
BRANCH   2  17
ATOM     12  C   UNL     1     -34.351  25.075   4.039  0.00  0.00    +0.048 C 
ATOM     13  C   UNL     1     -34.980  24.061   4.763  0.00  0.00    +0.016 C 
ATOM     14  C   UNL     1     -34.384  25.059   2.645  0.00  0.00    +0.016 C 
ATOM     15  C   UNL     1     -35.641  23.032   4.092  0.00  0.00    +0.017 C 
ATOM     16  C   UNL     1     -35.045  24.030   1.974  0.00  0.00    +0.017 C 
ATOM     17  C   UNL     1     -35.673  23.017   2.698  0.00  0.00    +0.059 C 
BRANCH  12  18
ATOM     18  N   UNL     1     -33.687  26.106   4.713  0.00  0.00    -0.312 N 
ATOM     19  N   UNL     1     -32.551  28.351   6.066  0.00  0.00    +0.388 N 
ATOM     20  C   UNL     1     -33.852  26.250   6.163  0.00  0.00    +0.068 C 
ATOM     21  C   UNL     1     -33.415  27.348   3.979  0.00  0.00    +0.068 C 
ATOM     22  C   UNL     1     -32.699  27.064   6.757  0.00  0.00    -0.056 C 
ATOM     23  C   UNL     1     -32.275  28.125   4.642  0.00  0.00    -0.056 C 
ATOM     24  C   UNL     1     -31.483  29.141   6.676  0.00  0.00    -0.101 C 
ATOM     25  H   UNL     1     -33.423  28.874   6.155  0.00  0.00    -0.080 HD
ENDBRANCH  12  18
ENDBRANCH   2  17
BRANCH   8  26
ATOM     26  O   UNL     1     -32.764  19.130   1.087  0.00  0.00    -0.429 OA
BRANCH  26  27
ATOM     27  C   UNL     1     -31.924  19.873   0.285  0.00  0.00    +0.149 C 
ATOM     28  C   UNL     1     -32.356  21.090  -0.242  0.00  0.00    +0.052 C 
ATOM     29  C   UNL     1     -31.507  21.840  -1.054  0.00  0.00    +0.054 C 
ATOM     30  C   UNL     1     -30.640  19.408  -0.000  0.00  0.00    +0.038 C 
ATOM     31  C   UNL     1     -30.223  21.375  -1.338  0.00  0.00    +0.015 C 
ATOM     32  C   UNL     1     -29.789  20.158  -0.812  0.00  0.00    +0.004 C 
BRANCH  29  34
ATOM     33  O   UNL     1     -31.812  24.525   0.257  0.00  0.00    -0.270 OA
ATOM     34  N   UNL     1     -31.941  23.058  -1.579  0.00  0.00    -0.280 N 
ATOM     35  C   UNL     1     -32.065  24.288  -0.918  0.00  0.00    +0.250 C 
ATOM     36  H   UNL     1     -32.190  23.053  -2.531  0.00  0.00    +0.155 HD
BRANCH  35  37
ATOM     37  C   UNL     1     -32.565  25.355  -1.832  0.00  0.00    +0.058 C 
ATOM     38  C   UNL     1     -32.209  25.370  -3.121  0.00  0.00    +0.005 C 
ENDBRANCH  35  37
ENDBRANCH  29  34
ENDBRANCH  26  27
ENDBRANCH   8  26
TORSDOF 6
ENDMDL
MODEL 8
REMARK VINA RESULT:      -6.7      3.048      8.050
REMARK  Name = 54758501
REMARK  6 active torsions:
REMARK  status: ('A' for Active; 'I' for Inactive)
REMARK    1  A    between atoms: N_2  and  C_17
REMARK    2  A    between atoms: C_8  and  O_26
REMARK    3  A    between atoms: C_12  and  N_18
REMARK    4  A    between atoms: O_26  and  C_27
REMARK    5  A    between atoms: C_29  and  N_34
REMARK    6  A    between atoms: C_35  and  C_37
REMARK                            x       y       z     vdW  Elec       q    Type
REMARK                         _______ _______ _______ _____ _____    ______ ____
ROOT
ATOM      1  S   UNL     1     -33.252  18.749   1.490  0.00  0.00    -0.096 S 
ATOM      2  N   UNL     1     -37.313  22.334  -0.443  0.00  0.00    -0.238 N 
ATOM      3  N   UNL     1     -35.522  20.890  -0.822  0.00  0.00    -0.331 NA
ATOM      4  N   UNL     1     -36.337  21.316   1.416  0.00  0.00    -0.293 NA
ATOM      5  C   UNL     1     -36.336  21.465   0.078  0.00  0.00    +0.206 C 
ATOM      6  C   UNL     1     -34.596  20.061  -0.273  0.00  0.00    +0.143 C 
ATOM      7  C   UNL     1     -34.517  19.842   1.102  0.00  0.00    +0.195 C 
ATOM      8  C   UNL     1     -35.413  20.489   1.945  0.00  0.00    +0.286 C 
ATOM      9  C   UNL     1     -33.606  19.321  -0.987  0.00  0.00    +0.037 C 
ATOM     10  C   UNL     1     -32.812  18.569  -0.151  0.00  0.00    +0.034 C 
ATOM     11  H   UNL     1     -37.284  22.419  -1.423  0.00  0.00    +0.166 HD
ENDROOT
BRANCH   2  17
ATOM     12  C   UNL     1     -40.331  24.634   1.358  0.00  0.00    +0.048 C 
ATOM     13  C   UNL     1     -39.001  25.052   1.425  0.00  0.00    +0.016 C 
ATOM     14  C   UNL     1     -40.658  23.452   0.694  0.00  0.00    +0.016 C 
ATOM     15  C   UNL     1     -37.999  24.288   0.827  0.00  0.00    +0.017 C 
ATOM     16  C   UNL     1     -39.656  22.688   0.096  0.00  0.00    +0.017 C 
ATOM     17  C   UNL     1     -38.327  23.106   0.163  0.00  0.00    +0.059 C 
BRANCH  12  18
ATOM     18  N   UNL     1     -41.336  25.402   1.957  0.00  0.00    -0.312 N 
ATOM     19  N   UNL     1     -43.284  27.176   3.059  0.00  0.00    +0.388 N 
ATOM     20  C   UNL     1     -42.569  25.688   1.218  0.00  0.00    +0.068 C 
ATOM     21  C   UNL     1     -40.936  26.415   2.943  0.00  0.00    +0.068 C 
ATOM     22  C   UNL     1     -43.695  26.074   2.181  0.00  0.00    -0.056 C 
ATOM     23  C   UNL     1     -42.115  26.776   3.850  0.00  0.00    -0.056 C 
ATOM     24  C   UNL     1     -44.386  27.570   3.937  0.00  0.00    -0.101 C 
ATOM     25  H   UNL     1     -43.034  27.980   2.483  0.00  0.00    -0.080 HD
ENDBRANCH  12  18
ENDBRANCH   2  17
BRANCH   8  26
ATOM     26  O   UNL     1     -35.401  20.328   3.309  0.00  0.00    -0.429 OA
BRANCH  26  27
ATOM     27  C   UNL     1     -35.347  21.470   4.080  0.00  0.00    +0.149 C 
ATOM     28  C   UNL     1     -35.368  22.725   3.472  0.00  0.00    +0.052 C 
ATOM     29  C   UNL     1     -35.312  23.879   4.253  0.00  0.00    +0.054 C 
ATOM     30  C   UNL     1     -35.270  21.369   5.469  0.00  0.00    +0.038 C 
ATOM     31  C   UNL     1     -35.235  23.778   5.642  0.00  0.00    +0.015 C 
ATOM     32  C   UNL     1     -35.214  22.523   6.250  0.00  0.00    +0.004 C 
BRANCH  29  34
ATOM     33  O   UNL     1     -33.104  25.868   3.818  0.00  0.00    -0.270 OA
ATOM     34  N   UNL     1     -35.334  25.134   3.644  0.00  0.00    -0.280 N 
ATOM     35  C   UNL     1     -34.268  26.026   3.466  0.00  0.00    +0.250 C 
ATOM     36  H   UNL     1     -36.206  25.429   3.295  0.00  0.00    +0.155 HD
BRANCH  35  37
ATOM     37  C   UNL     1     -34.701  27.269   2.765  0.00  0.00    +0.058 C 
ATOM     38  C   UNL     1     -35.909  27.346   2.198  0.00  0.00    +0.005 C 
ENDBRANCH  35  37
ENDBRANCH  29  34
ENDBRANCH  26  27
ENDBRANCH   8  26
TORSDOF 6
ENDMDL
MODEL 9
REMARK VINA RESULT:      -6.7      4.687      7.802
REMARK  Name = 54758501
REMARK  6 active torsions:
REMARK  status: ('A' for Active; 'I' for Inactive)
REMARK    1  A    between atoms: N_2  and  C_17
REMARK    2  A    between atoms: C_8  and  O_26
REMARK    3  A    between atoms: C_12  and  N_18
REMARK    4  A    between atoms: O_26  and  C_27
REMARK    5  A    between atoms: C_29  and  N_34
REMARK    6  A    between atoms: C_35  and  C_37
REMARK                            x       y       z     vdW  Elec       q    Type
REMARK                         _______ _______ _______ _____ _____    ______ ____
ROOT
ATOM      1  S   UNL     1     -30.615  29.922   4.702  0.00  0.00    -0.096 S 
ATOM      2  N   UNL     1     -34.136  25.445   5.498  0.00  0.00    -0.238 N 
ATOM      3  N   UNL     1     -32.933  27.262   6.325  0.00  0.00    -0.331 NA
ATOM      4  N   UNL     1     -32.893  26.700   3.972  0.00  0.00    -0.293 NA
ATOM      5  C   UNL     1     -33.273  26.530   5.253  0.00  0.00    +0.206 C 
ATOM      6  C   UNL     1     -32.099  28.298   6.040  0.00  0.00    +0.143 C 
ATOM      7  C   UNL     1     -31.651  28.555   4.745  0.00  0.00    +0.195 C 
ATOM      8  C   UNL     1     -32.067  27.731   3.706  0.00  0.00    +0.286 C 
ATOM      9  C   UNL     1     -31.578  29.236   6.980  0.00  0.00    +0.037 C 
ATOM     10  C   UNL     1     -30.760  30.170   6.387  0.00  0.00    +0.034 C 
ATOM     11  H   UNL     1     -34.394  25.350   6.443  0.00  0.00    +0.166 HD
ENDROOT
BRANCH   2  17
ATOM     12  C   UNL     1     -35.828  22.533   2.987  0.00  0.00    +0.048 C 
ATOM     13  C   UNL     1     -35.508  23.793   2.478  0.00  0.00    +0.016 C 
ATOM     14  C   UNL     1     -35.586  22.241   4.330  0.00  0.00    +0.016 C 
ATOM     15  C   UNL     1     -34.947  24.759   3.312  0.00  0.00    +0.017 C 
ATOM     16  C   UNL     1     -35.025  23.209   5.163  0.00  0.00    +0.017 C 
ATOM     17  C   UNL     1     -34.706  24.467   4.655  0.00  0.00    +0.059 C 
BRANCH  12  18
ATOM     18  N   UNL     1     -36.390  21.563   2.150  0.00  0.00    -0.312 N 
ATOM     19  N   UNL     1     -37.585  19.443   0.654  0.00  0.00    +0.388 N 
ATOM     20  C   UNL     1     -37.839  21.549   1.925  0.00  0.00    +0.068 C 
ATOM     21  C   UNL     1     -35.720  20.260   2.055  0.00  0.00    +0.068 C 
ATOM     22  C   UNL     1     -38.176  20.787   0.641  0.00  0.00    -0.056 C 
ATOM     23  C   UNL     1     -36.125  19.541   0.766  0.00  0.00    -0.056 C 
ATOM     24  C   UNL     1     -37.959  18.707  -0.553  0.00  0.00    -0.101 C 
ATOM     25  H   UNL     1     -37.945  18.934   1.461  0.00  0.00    -0.080 HD
ENDBRANCH  12  18
ENDBRANCH   2  17
BRANCH   8  26
ATOM     26  O   UNL     1     -31.671  27.916   2.404  0.00  0.00    -0.429 OA
BRANCH  26  27
ATOM     27  C   UNL     1     -32.298  27.157   1.439  0.00  0.00    +0.149 C 
ATOM     28  C   UNL     1     -31.777  25.914   1.080  0.00  0.00    +0.052 C 
ATOM     29  C   UNL     1     -32.411  25.148   0.103  0.00  0.00    +0.054 C 
ATOM     30  C   UNL     1     -33.454  27.633   0.820  0.00  0.00    +0.038 C 
ATOM     31  C   UNL     1     -33.567  25.624  -0.516  0.00  0.00    +0.015 C 
ATOM     32  C   UNL     1     -34.089  26.867  -0.157  0.00  0.00    +0.004 C 
BRANCH  29  34
ATOM     33  O   UNL     1     -30.744  24.346  -2.263  0.00  0.00    -0.270 OA
ATOM     34  N   UNL     1     -31.889  23.904  -0.254  0.00  0.00    -0.280 N 
ATOM     35  C   UNL     1     -31.113  23.584  -1.377  0.00  0.00    +0.250 C 
ATOM     36  H   UNL     1     -32.091  23.160   0.357  0.00  0.00    +0.155 HD
BRANCH  35  37
ATOM     37  C   UNL     1     -30.750  22.138  -1.401  0.00  0.00    +0.058 C 
ATOM     38  C   UNL     1     -31.439  21.250  -0.675  0.00  0.00    +0.005 C 
ENDBRANCH  35  37
ENDBRANCH  29  34
ENDBRANCH  26  27
ENDBRANCH   8  26
TORSDOF 6
ENDMDL
