MODEL 1
REMARK VINA RESULT:      -6.5      0.000      0.000
REMARK  Name = 57348473
REMARK  10 active torsions:
REMARK  status: ('A' for Active; 'I' for Inactive)
REMARK    1  A    between atoms: N_3  and  C_14
REMARK    2  A    between atoms: C_7  and  C_26
REMARK    3  A    between atoms: C_11  and  P_15
REMARK    4  A    between atoms: C_11  and  O_19
REMARK    5  A    between atoms: C_12  and  O_21
REMARK    6  A    between atoms: C_13  and  C_23
REMARK    7  A    between atoms: C_23  and  O_24
REMARK    8  A    between atoms: C_26  and  C_27
REMARK    9  A    between atoms: C_28  and  N_30
REMARK   10  A    between atoms: C_31  and  C_34
REMARK                            x       y       z     vdW  Elec       q    Type
REMARK                         _______ _______ _______ _____ _____    ______ ____
ROOT
ATOM      1  O   UNL     1     -37.097  20.632   1.276  0.00  0.00    -0.252 OA
ATOM      2  O   UNL     1     -34.813  21.000   5.250  0.00  0.00    -0.270 OA
ATOM      3  N   UNL     1     -37.111  22.700   2.357  0.00  0.00    -0.217 N 
ATOM      4  N   UNL     1     -35.962  20.830   3.259  0.00  0.00    -0.236 N 
ATOM      5  C   UNL     1     -36.681  23.430   3.460  0.00  0.00    +0.072 C 
ATOM      6  C   UNL     1     -36.753  21.340   2.224  0.00  0.00    +0.315 C 
ATOM      7  C   UNL     1     -35.924  22.938   4.449  0.00  0.00    +0.051 C 
ATOM      8  C   UNL     1     -35.507  21.512   4.376  0.00  0.00    +0.250 C 
ATOM      9  H   UNL     1     -35.699  19.883   3.185  0.00  0.00    +0.159 HD
ENDROOT
BRANCH   3  14
ATOM     10  O   UNL     1     -37.192  24.476   0.842  0.00  0.00    -0.332 OA
ATOM     11  C   UNL     1     -39.453  25.134   1.097  0.00  0.00    +0.242 C 
ATOM     12  C   UNL     1     -39.206  23.913   1.958  0.00  0.00    +0.196 C 
ATOM     13  C   UNL     1     -38.038  25.647   0.860  0.00  0.00    +0.185 C 
ATOM     14  C   UNL     1     -37.920  23.358   1.372  0.00  0.00    +0.230 C 
BRANCH  11  15
ATOM     15  P   UNL     1     -40.645  26.302   1.732  0.00  0.00    +0.423 P 
ATOM     16  O   UNL     1     -42.010  25.621   1.527  0.00  0.00    -0.136 OA
ATOM     17  O   UNL     1     -40.449  27.567   0.877  0.00  0.00    -0.251 OA
ATOM     18  O   UNL     1     -40.261  26.489   3.211  0.00  0.00    -0.136 OA
ENDBRANCH  11  15
BRANCH  11  19
ATOM     19  O   UNL     1     -39.990  24.745  -0.166  0.00  0.00    -0.372 OA
ATOM     20  H   UNL     1     -39.280  24.728  -0.827  0.00  0.00    +0.211 HD
ENDBRANCH  11  19
BRANCH  12  21
ATOM     21  O   UNL     1     -40.254  22.964   1.884  0.00  0.00    -0.378 OA
ATOM     22  H   UNL     1     -40.880  23.229   1.192  0.00  0.00    +0.211 HD
ENDBRANCH  12  21
BRANCH  13  23
ATOM     23  C   UNL     1     -37.513  26.576   1.949  0.00  0.00    +0.170 C 
BRANCH  23  24
ATOM     24  O   UNL     1     -37.448  27.891   1.429  0.00  0.00    -0.379 OA
ATOM     25  H   UNL     1     -38.337  28.180   1.166  0.00  0.00    +0.211 HD
ENDBRANCH  23  24
ENDBRANCH  13  23
ENDBRANCH   3  14
BRANCH   7  26
ATOM     26  C   UNL     1     -35.471  23.744   5.624  0.00  0.00    +0.060 C 
BRANCH  26  27
ATOM     27  C   UNL     1     -34.453  24.774   5.240  0.00  0.00    -0.005 C 
ATOM     28  C   UNL     1     -34.663  26.093   5.341  0.00  0.00    +0.060 C 
BRANCH  28  30
ATOM     29  O   UNL     1     -32.501  26.999   6.983  0.00  0.00    -0.274 OA
ATOM     30  N   UNL     1     -33.723  27.015   4.998  0.00  0.00    -0.282 N 
ATOM     31  C   UNL     1     -32.694  27.416   5.842  0.00  0.00    +0.238 C 
ATOM     32  H   UNL     1     -33.774  27.421   4.104  0.00  0.00    +0.155 HD
BRANCH  31  34
ATOM     33 BR   UNL     1     -31.811  29.991   6.366  0.00  0.00    -0.070 Br
ATOM     34  C   UNL     1     -31.784  28.436   5.209  0.00  0.00    +0.153 C 
ENDBRANCH  31  34
ENDBRANCH  28  30
ENDBRANCH  26  27
ENDBRANCH   7  26
TORSDOF 10
ENDMDL
MODEL 2
REMARK VINA RESULT:      -6.3      3.698      6.399
REMARK  Name = 57348473
REMARK  10 active torsions:
REMARK  status: ('A' for Active; 'I' for Inactive)
REMARK    1  A    between atoms: N_3  and  C_14
REMARK    2  A    between atoms: C_7  and  C_26
REMARK    3  A    between atoms: C_11  and  P_15
REMARK    4  A    between atoms: C_11  and  O_19
REMARK    5  A    between atoms: C_12  and  O_21
REMARK    6  A    between atoms: C_13  and  C_23
REMARK    7  A    between atoms: C_23  and  O_24
REMARK    8  A    between atoms: C_26  and  C_27
REMARK    9  A    between atoms: C_28  and  N_30
REMARK   10  A    between atoms: C_31  and  C_34
REMARK                            x       y       z     vdW  Elec       q    Type
REMARK                         _______ _______ _______ _____ _____    ______ ____
ROOT
ATOM      1  O   UNL     1     -40.139  25.650   2.659  0.00  0.00    -0.252 OA
ATOM      2  O   UNL     1     -40.260  21.122   1.865  0.00  0.00    -0.270 OA
ATOM      3  N   UNL     1     -38.106  24.516   2.484  0.00  0.00    -0.217 N 
ATOM      4  N   UNL     1     -40.184  23.391   2.263  0.00  0.00    -0.236 N 
ATOM      5  C   UNL     1     -37.480  23.291   2.277  0.00  0.00    +0.072 C 
ATOM      6  C   UNL     1     -39.516  24.601   2.483  0.00  0.00    +0.315 C 
ATOM      7  C   UNL     1     -38.123  22.136   2.068  0.00  0.00    +0.051 C 
ATOM      8  C   UNL     1     -39.610  22.147   2.053  0.00  0.00    +0.250 C 
ATOM      9  H   UNL     1     -41.168  23.428   2.257  0.00  0.00    +0.159 HD
ENDROOT
BRANCH   3  14
ATOM     10  O   UNL     1     -36.433  25.859   1.559  0.00  0.00    -0.332 OA
ATOM     11  C   UNL     1     -35.174  26.349   3.505  0.00  0.00    +0.242 C 
ATOM     12  C   UNL     1     -36.384  25.530   3.906  0.00  0.00    +0.196 C 
ATOM     13  C   UNL     1     -35.076  26.059   2.012  0.00  0.00    +0.185 C 
ATOM     14  C   UNL     1     -37.289  25.677   2.697  0.00  0.00    +0.230 C 
BRANCH  11  15
ATOM     15  P   UNL     1     -33.703  26.088   4.482  0.00  0.00    +0.423 P 
ATOM     16  O   UNL     1     -33.958  26.858   5.789  0.00  0.00    -0.136 OA
ATOM     17  O   UNL     1     -32.560  26.671   3.632  0.00  0.00    -0.251 OA
ATOM     18  O   UNL     1     -33.621  24.562   4.668  0.00  0.00    -0.136 OA
ENDBRANCH  11  15
BRANCH  11  19
ATOM     19  O   UNL     1     -35.449  27.741   3.659  0.00  0.00    -0.372 OA
ATOM     20  H   UNL     1     -36.316  27.854   4.078  0.00  0.00    +0.211 HD
ENDBRANCH  11  19
BRANCH  12  21
ATOM     21  O   UNL     1     -37.012  26.013   5.079  0.00  0.00    -0.378 OA
ATOM     22  H   UNL     1     -37.728  26.621   4.834  0.00  0.00    +0.211 HD
ENDBRANCH  12  21
BRANCH  13  23
ATOM     23  C   UNL     1     -34.286  24.803   1.664  0.00  0.00    +0.170 C 
BRANCH  23  24
ATOM     24  O   UNL     1     -33.091  25.188   1.009  0.00  0.00    -0.379 OA
ATOM     25  H   UNL     1     -32.807  26.057   1.337  0.00  0.00    +0.211 HD
ENDBRANCH  23  24
ENDBRANCH  13  23
ENDBRANCH   3  14
BRANCH   7  26
ATOM     26  C   UNL     1     -37.428  20.831   1.845  0.00  0.00    +0.060 C 
BRANCH  26  27
ATOM     27  C   UNL     1     -36.061  21.015   1.261  0.00  0.00    -0.005 C 
ATOM     28  C   UNL     1     -35.107  20.076   1.303  0.00  0.00    +0.060 C 
BRANCH  28  30
ATOM     29  O   UNL     1     -32.866  18.315   1.565  0.00  0.00    -0.274 OA
ATOM     30  N   UNL     1     -33.874  20.255   0.757  0.00  0.00    -0.282 N 
ATOM     31  C   UNL     1     -32.822  19.362   0.921  0.00  0.00    +0.238 C 
ATOM     32  H   UNL     1     -33.717  21.062   0.217  0.00  0.00    +0.155 HD
BRANCH  31  34
ATOM     33 BR   UNL     1     -31.970  21.506  -0.616  0.00  0.00    -0.070 Br
ATOM     34  C   UNL     1     -31.573  19.792   0.198  0.00  0.00    +0.153 C 
ENDBRANCH  31  34
ENDBRANCH  28  30
ENDBRANCH  26  27
ENDBRANCH   7  26
TORSDOF 10
ENDMDL
MODEL 3
REMARK VINA RESULT:      -6.1      4.067      6.958
REMARK  Name = 57348473
REMARK  10 active torsions:
REMARK  status: ('A' for Active; 'I' for Inactive)
REMARK    1  A    between atoms: N_3  and  C_14
REMARK    2  A    between atoms: C_7  and  C_26
REMARK    3  A    between atoms: C_11  and  P_15
REMARK    4  A    between atoms: C_11  and  O_19
REMARK    5  A    between atoms: C_12  and  O_21
REMARK    6  A    between atoms: C_13  and  C_23
REMARK    7  A    between atoms: C_23  and  O_24
REMARK    8  A    between atoms: C_26  and  C_27
REMARK    9  A    between atoms: C_28  and  N_30
REMARK   10  A    between atoms: C_31  and  C_34
REMARK                            x       y       z     vdW  Elec       q    Type
REMARK                         _______ _______ _______ _____ _____    ______ ____
ROOT
ATOM      1  O   UNL     1     -32.169  27.002   6.637  0.00  0.00    -0.252 OA
ATOM      2  O   UNL     1     -31.741  30.696   3.932  0.00  0.00    -0.270 OA
ATOM      3  N   UNL     1     -33.601  27.186   4.803  0.00  0.00    -0.217 N 
ATOM      4  N   UNL     1     -31.967  28.839   5.279  0.00  0.00    -0.236 N 
ATOM      5  C   UNL     1     -33.977  27.949   3.702  0.00  0.00    +0.072 C 
ATOM      6  C   UNL     1     -32.556  27.624   5.645  0.00  0.00    +0.315 C 
ATOM      7  C   UNL     1     -33.412  29.111   3.356  0.00  0.00    +0.051 C 
ATOM      8  C   UNL     1     -32.303  29.636   4.196  0.00  0.00    +0.250 C 
ATOM      9  H   UNL     1     -31.234  29.163   5.852  0.00  0.00    +0.159 HD
ENDROOT
BRANCH   3  14
ATOM     10  O   UNL     1     -33.617  24.888   4.381  0.00  0.00    -0.332 OA
ATOM     11  C   UNL     1     -35.947  24.525   4.156  0.00  0.00    +0.242 C 
ATOM     12  C   UNL     1     -35.718  25.977   4.520  0.00  0.00    +0.196 C 
ATOM     13  C   UNL     1     -34.577  24.108   3.634  0.00  0.00    +0.185 C 
ATOM     14  C   UNL     1     -34.298  25.956   5.056  0.00  0.00    +0.230 C 
BRANCH  11  15
ATOM     15  P   UNL     1     -37.351  24.202   3.102  0.00  0.00    +0.423 P 
ATOM     16  O   UNL     1     -37.280  22.694   2.804  0.00  0.00    -0.136 OA
ATOM     17  O   UNL     1     -37.125  25.090   1.865  0.00  0.00    -0.251 OA
ATOM     18  O   UNL     1     -38.574  24.611   3.942  0.00  0.00    -0.136 OA
ENDBRANCH  11  15
BRANCH  11  19
ATOM     19  O   UNL     1     -36.213  23.759   5.331  0.00  0.00    -0.372 OA
ATOM     20  H   UNL     1     -36.390  22.839   5.083  0.00  0.00    +0.211 HD
ENDBRANCH  11  19
BRANCH  12  21
ATOM     21  O   UNL     1     -36.627  26.451   5.496  0.00  0.00    -0.378 OA
ATOM     22  H   UNL     1     -36.790  25.755   6.151  0.00  0.00    +0.211 HD
ENDBRANCH  12  21
BRANCH  13  23
ATOM     23  C   UNL     1     -34.351  24.397   2.155  0.00  0.00    +0.170 C 
BRANCH  23  24
ATOM     24  O   UNL     1     -34.568  23.205   1.423  0.00  0.00    -0.379 OA
ATOM     25  H   UNL     1     -33.786  23.010   0.882  0.00  0.00    +0.211 HD
ENDBRANCH  23  24
ENDBRANCH  13  23
ENDBRANCH   3  14
BRANCH   7  26
ATOM     26  C   UNL     1     -33.832  29.913   2.165  0.00  0.00    +0.060 C 
BRANCH  26  27
ATOM     27  C   UNL     1     -35.075  30.704   2.431  0.00  0.00    -0.005 C 
ATOM     28  C   UNL     1     -35.910  31.115   1.467  0.00  0.00    +0.060 C 
BRANCH  28  30
ATOM     29  O   UNL     1     -36.314  33.905   0.973  0.00  0.00    -0.274 OA
ATOM     30  N   UNL     1     -37.042  31.823   1.727  0.00  0.00    -0.282 N 
ATOM     31  C   UNL     1     -37.179  33.180   1.464  0.00  0.00    +0.238 C 
ATOM     32  H   UNL     1     -37.807  31.348   2.124  0.00  0.00    +0.155 HD
BRANCH  31  34
ATOM     33 BR   UNL     1     -38.397  35.646   1.821  0.00  0.00    -0.070 Br
ATOM     34  C   UNL     1     -38.539  33.712   1.832  0.00  0.00    +0.153 C 
ENDBRANCH  31  34
ENDBRANCH  28  30
ENDBRANCH  26  27
ENDBRANCH   7  26
TORSDOF 10
ENDMDL
MODEL 4
REMARK VINA RESULT:      -6.1      4.286      6.150
REMARK  Name = 57348473
REMARK  10 active torsions:
REMARK  status: ('A' for Active; 'I' for Inactive)
REMARK    1  A    between atoms: N_3  and  C_14
REMARK    2  A    between atoms: C_7  and  C_26
REMARK    3  A    between atoms: C_11  and  P_15
REMARK    4  A    between atoms: C_11  and  O_19
REMARK    5  A    between atoms: C_12  and  O_21
REMARK    6  A    between atoms: C_13  and  C_23
REMARK    7  A    between atoms: C_23  and  O_24
REMARK    8  A    between atoms: C_26  and  C_27
REMARK    9  A    between atoms: C_28  and  N_30
REMARK   10  A    between atoms: C_31  and  C_34
REMARK                            x       y       z     vdW  Elec       q    Type
REMARK                         _______ _______ _______ _____ _____    ______ ____
ROOT
ATOM      1  O   UNL     1     -39.424  22.633   2.309  0.00  0.00    -0.252 OA
ATOM      2  O   UNL     1     -36.845  19.147   0.779  0.00  0.00    -0.270 OA
ATOM      3  N   UNL     1     -37.133  22.691   2.752  0.00  0.00    -0.217 N 
ATOM      4  N   UNL     1     -38.126  20.901   1.552  0.00  0.00    -0.236 N 
ATOM      5  C   UNL     1     -35.911  22.046   2.603  0.00  0.00    +0.072 C 
ATOM      6  C   UNL     1     -38.308  22.119   2.216  0.00  0.00    +0.315 C 
ATOM      7  C   UNL     1     -35.740  20.880   1.968  0.00  0.00    +0.051 C 
ATOM      8  C   UNL     1     -36.933  20.217   1.376  0.00  0.00    +0.250 C 
ATOM      9  H   UNL     1     -38.931  20.484   1.169  0.00  0.00    +0.159 HD
ENDROOT
BRANCH   3  14
ATOM     10  O   UNL     1     -37.267  25.011   2.509  0.00  0.00    -0.332 OA
ATOM     11  C   UNL     1     -35.781  25.693   4.224  0.00  0.00    +0.242 C 
ATOM     12  C   UNL     1     -35.903  24.183   4.263  0.00  0.00    +0.196 C 
ATOM     13  C   UNL     1     -36.275  26.015   2.819  0.00  0.00    +0.185 C 
ATOM     14  C   UNL     1     -37.168  23.940   3.460  0.00  0.00    +0.230 C 
BRANCH  11  15
ATOM     15  P   UNL     1     -34.193  26.354   4.699  0.00  0.00    +0.423 P 
ATOM     16  O   UNL     1     -34.169  27.777   4.113  0.00  0.00    -0.136 OA
ATOM     17  O   UNL     1     -33.165  25.404   4.061  0.00  0.00    -0.251 OA
ATOM     18  O   UNL     1     -34.198  26.318   6.238  0.00  0.00    -0.136 OA
ENDBRANCH  11  15
BRANCH  11  19
ATOM     19  O   UNL     1     -36.693  26.283   5.149  0.00  0.00    -0.372 OA
ATOM     20  H   UNL     1     -37.158  25.585   5.635  0.00  0.00    +0.211 HD
ENDBRANCH  11  19
BRANCH  12  21
ATOM     21  O   UNL     1     -36.024  23.673   5.577  0.00  0.00    -0.378 OA
ATOM     22  H   UNL     1     -35.152  23.393   5.896  0.00  0.00    +0.211 HD
ENDBRANCH  12  21
BRANCH  13  23
ATOM     23  C   UNL     1     -35.200  25.945   1.741  0.00  0.00    +0.170 C 
BRANCH  23  24
ATOM     24  O   UNL     1     -34.961  27.254   1.255  0.00  0.00    -0.379 OA
ATOM     25  H   UNL     1     -35.079  27.893   1.976  0.00  0.00    +0.211 HD
ENDBRANCH  23  24
ENDBRANCH  13  23
ENDBRANCH   3  14
BRANCH   7  26
ATOM     26  C   UNL     1     -34.414  20.205   1.817  0.00  0.00    +0.060 C 
BRANCH  26  27
ATOM     27  C   UNL     1     -33.717  20.614   0.556  0.00  0.00    -0.005 C 
ATOM     28  C   UNL     1     -32.434  20.328   0.296  0.00  0.00    +0.060 C 
BRANCH  28  30
ATOM     29  O   UNL     1     -31.674  22.985  -0.448  0.00  0.00    -0.274 OA
ATOM     30  N   UNL     1     -31.819  20.696  -0.860  0.00  0.00    -0.282 N 
ATOM     31  C   UNL     1     -31.474  22.007  -1.166  0.00  0.00    +0.238 C 
ATOM     32  H   UNL     1     -31.606  19.995  -1.517  0.00  0.00    +0.155 HD
BRANCH  31  34
ATOM     33 BR   UNL     1     -31.819  21.072  -3.753  0.00  0.00    -0.070 Br
ATOM     34  C   UNL     1     -30.789  22.134  -2.501  0.00  0.00    +0.153 C 
ENDBRANCH  31  34
ENDBRANCH  28  30
ENDBRANCH  26  27
ENDBRANCH   7  26
TORSDOF 10
ENDMDL
MODEL 5
REMARK VINA RESULT:      -6.0      2.823      5.176
REMARK  Name = 57348473
REMARK  10 active torsions:
REMARK  status: ('A' for Active; 'I' for Inactive)
REMARK    1  A    between atoms: N_3  and  C_14
REMARK    2  A    between atoms: C_7  and  C_26
REMARK    3  A    between atoms: C_11  and  P_15
REMARK    4  A    between atoms: C_11  and  O_19
REMARK    5  A    between atoms: C_12  and  O_21
REMARK    6  A    between atoms: C_13  and  C_23
REMARK    7  A    between atoms: C_23  and  O_24
REMARK    8  A    between atoms: C_26  and  C_27
REMARK    9  A    between atoms: C_28  and  N_30
REMARK   10  A    between atoms: C_31  and  C_34
REMARK                            x       y       z     vdW  Elec       q    Type
REMARK                         _______ _______ _______ _____ _____    ______ ____
ROOT
ATOM      1  O   UNL     1     -35.857  28.397   2.226  0.00  0.00    -0.252 OA
ATOM      2  O   UNL     1     -34.065  26.376   5.949  0.00  0.00    -0.270 OA
ATOM      3  N   UNL     1     -36.610  26.257   2.778  0.00  0.00    -0.217 N 
ATOM      4  N   UNL     1     -34.972  27.377   4.080  0.00  0.00    -0.236 N 
ATOM      5  C   UNL     1     -36.509  25.189   3.663  0.00  0.00    +0.072 C 
ATOM      6  C   UNL     1     -35.821  27.413   2.969  0.00  0.00    +0.315 C 
ATOM      7  C   UNL     1     -35.695  25.158   4.726  0.00  0.00    +0.051 C 
ATOM      8  C   UNL     1     -34.833  26.341   4.990  0.00  0.00    +0.250 C 
ATOM      9  H   UNL     1     -34.414  28.173   4.233  0.00  0.00    +0.159 HD
ENDROOT
BRANCH   3  14
ATOM     10  O   UNL     1     -38.728  26.868   2.004  0.00  0.00    -0.332 OA
ATOM     11  C   UNL     1     -39.347  24.877   0.880  0.00  0.00    +0.242 C 
ATOM     12  C   UNL     1     -37.934  24.716   1.402  0.00  0.00    +0.196 C 
ATOM     13  C   UNL     1     -39.871  26.028   1.730  0.00  0.00    +0.185 C 
ATOM     14  C   UNL     1     -37.527  26.152   1.679  0.00  0.00    +0.230 C 
BRANCH  11  15
ATOM     15  P   UNL     1     -40.330  23.387   0.834  0.00  0.00    +0.423 P 
ATOM     16  O   UNL     1     -39.820  22.618  -0.397  0.00  0.00    -0.136 OA
ATOM     17  O   UNL     1     -41.782  23.879   0.699  0.00  0.00    -0.251 OA
ATOM     18  O   UNL     1     -40.037  22.683   2.171  0.00  0.00    -0.136 OA
ENDBRANCH  11  15
BRANCH  11  19
ATOM     19  O   UNL     1     -39.323  25.317  -0.477  0.00  0.00    -0.372 OA
ATOM     20  H   UNL     1     -39.075  24.577  -1.052  0.00  0.00    +0.211 HD
ENDBRANCH  11  19
BRANCH  12  21
ATOM     21  O   UNL     1     -37.065  24.108   0.465  0.00  0.00    -0.378 OA
ATOM     22  H   UNL     1     -36.380  23.610   0.937  0.00  0.00    +0.211 HD
ENDBRANCH  12  21
BRANCH  13  23
ATOM     23  C   UNL     1     -40.462  25.605   3.070  0.00  0.00    +0.170 C 
BRANCH  23  24
ATOM     24  O   UNL     1     -40.644  26.759   3.869  0.00  0.00    -0.379 OA
ATOM     25  H   UNL     1     -40.588  27.552   3.311  0.00  0.00    +0.211 HD
ENDBRANCH  23  24
ENDBRANCH  13  23
ENDBRANCH   3  14
BRANCH   7  26
ATOM     26  C   UNL     1     -35.605  23.998   5.666  0.00  0.00    +0.060 C 
BRANCH  26  27
ATOM     27  C   UNL     1     -35.215  22.734   4.963  0.00  0.00    -0.005 C 
ATOM     28  C   UNL     1     -35.932  22.188   3.972  0.00  0.00    +0.060 C 
BRANCH  28  30
ATOM     29  O   UNL     1     -35.107  21.961   1.241  0.00  0.00    -0.274 OA
ATOM     30  N   UNL     1     -35.558  21.045   3.337  0.00  0.00    -0.282 N 
ATOM     31  C   UNL     1     -35.166  20.998   2.005  0.00  0.00    +0.238 C 
ATOM     32  H   UNL     1     -35.565  20.205   3.848  0.00  0.00    +0.155 HD
BRANCH  31  34
ATOM     33 BR   UNL     1     -33.045  19.758   0.720  0.00  0.00    -0.070 Br
ATOM     34  C   UNL     1     -34.787  19.611   1.556  0.00  0.00    +0.153 C 
ENDBRANCH  31  34
ENDBRANCH  28  30
ENDBRANCH  26  27
ENDBRANCH   7  26
TORSDOF 10
ENDMDL
MODEL 6
REMARK VINA RESULT:      -5.9      2.218      3.344
REMARK  Name = 57348473
REMARK  10 active torsions:
REMARK  status: ('A' for Active; 'I' for Inactive)
REMARK    1  A    between atoms: N_3  and  C_14
REMARK    2  A    between atoms: C_7  and  C_26
REMARK    3  A    between atoms: C_11  and  P_15
REMARK    4  A    between atoms: C_11  and  O_19
REMARK    5  A    between atoms: C_12  and  O_21
REMARK    6  A    between atoms: C_13  and  C_23
REMARK    7  A    between atoms: C_23  and  O_24
REMARK    8  A    between atoms: C_26  and  C_27
REMARK    9  A    between atoms: C_28  and  N_30
REMARK   10  A    between atoms: C_31  and  C_34
REMARK                            x       y       z     vdW  Elec       q    Type
REMARK                         _______ _______ _______ _____ _____    ______ ____
ROOT
ATOM      1  O   UNL     1     -35.208  19.936   2.746  0.00  0.00    -0.252 OA
ATOM      2  O   UNL     1     -35.288  22.893   6.267  0.00  0.00    -0.270 OA
ATOM      3  N   UNL     1     -36.229  22.008   2.411  0.00  0.00    -0.217 N 
ATOM      4  N   UNL     1     -35.255  21.420   4.493  0.00  0.00    -0.236 N 
ATOM      5  C   UNL     1     -36.571  23.232   2.975  0.00  0.00    +0.072 C 
ATOM      6  C   UNL     1     -35.543  21.041   3.178  0.00  0.00    +0.315 C 
ATOM      7  C   UNL     1     -36.295  23.592   4.234  0.00  0.00    +0.051 C 
ATOM      8  C   UNL     1     -35.572  22.624   5.103  0.00  0.00    +0.250 C 
ATOM      9  H   UNL     1     -34.775  20.762   5.046  0.00  0.00    +0.159 HD
ENDROOT
BRANCH   3  14
ATOM     10  O   UNL     1     -36.927  23.002   0.415  0.00  0.00    -0.332 OA
ATOM     11  C   UNL     1     -38.455  21.362  -0.352  0.00  0.00    +0.242 C 
ATOM     12  C   UNL     1     -37.813  20.864   0.926  0.00  0.00    +0.196 C 
ATOM     13  C   UNL     1     -38.186  22.861  -0.278  0.00  0.00    +0.185 C 
ATOM     14  C   UNL     1     -36.591  21.757   1.045  0.00  0.00    +0.230 C 
BRANCH  11  15
ATOM     15  P   UNL     1     -40.144  20.852  -0.621  0.00  0.00    +0.423 P 
ATOM     16  O   UNL     1     -40.686  21.829  -1.677  0.00  0.00    -0.136 OA
ATOM     17  O   UNL     1     -40.819  20.989   0.755  0.00  0.00    -0.251 OA
ATOM     18  O   UNL     1     -40.040  19.398  -1.117  0.00  0.00    -0.136 OA
ENDBRANCH  11  15
BRANCH  11  19
ATOM     19  O   UNL     1     -37.755  20.853  -1.485  0.00  0.00    -0.372 OA
ATOM     20  H   UNL     1     -36.849  21.198  -1.487  0.00  0.00    +0.211 HD
ENDBRANCH  11  19
BRANCH  12  21
ATOM     21  O   UNL     1     -37.446  19.498   0.863  0.00  0.00    -0.378 OA
ATOM     22  H   UNL     1     -37.118  19.212   1.730  0.00  0.00    +0.211 HD
ENDBRANCH  12  21
BRANCH  13  23
ATOM     23  C   UNL     1     -39.231  23.651   0.502  0.00  0.00    +0.170 C 
BRANCH  23  24
ATOM     24  O   UNL     1     -39.888  24.534  -0.388  0.00  0.00    -0.379 OA
ATOM     25  H   UNL     1     -39.229  25.006  -0.922  0.00  0.00    +0.211 HD
ENDBRANCH  23  24
ENDBRANCH  13  23
ENDBRANCH   3  14
BRANCH   7  26
ATOM     26  C   UNL     1     -36.670  24.916   4.818  0.00  0.00    +0.060 C 
BRANCH  26  27
ATOM     27  C   UNL     1     -35.687  25.988   4.459  0.00  0.00    -0.005 C 
ATOM     28  C   UNL     1     -34.608  26.278   5.197  0.00  0.00    +0.060 C 
BRANCH  28  30
ATOM     29  O   UNL     1     -32.296  27.069   6.687  0.00  0.00    -0.274 OA
ATOM     30  N   UNL     1     -33.718  27.247   4.850  0.00  0.00    -0.282 N 
ATOM     31  C   UNL     1     -32.611  27.587   5.617  0.00  0.00    +0.238 C 
ATOM     32  H   UNL     1     -33.867  27.735   4.008  0.00  0.00    +0.155 HD
BRANCH  31  34
ATOM     33 BR   UNL     1     -31.534  30.031   6.363  0.00  0.00    -0.070 Br
ATOM     34  C   UNL     1     -31.783  28.681   4.994  0.00  0.00    +0.153 C 
ENDBRANCH  31  34
ENDBRANCH  28  30
ENDBRANCH  26  27
ENDBRANCH   7  26
TORSDOF 10
ENDMDL
MODEL 7
REMARK VINA RESULT:      -5.8      3.442      6.238
REMARK  Name = 57348473
REMARK  10 active torsions:
REMARK  status: ('A' for Active; 'I' for Inactive)
REMARK    1  A    between atoms: N_3  and  C_14
REMARK    2  A    between atoms: C_7  and  C_26
REMARK    3  A    between atoms: C_11  and  P_15
REMARK    4  A    between atoms: C_11  and  O_19
REMARK    5  A    between atoms: C_12  and  O_21
REMARK    6  A    between atoms: C_13  and  C_23
REMARK    7  A    between atoms: C_23  and  O_24
REMARK    8  A    between atoms: C_26  and  C_27
REMARK    9  A    between atoms: C_28  and  N_30
REMARK   10  A    between atoms: C_31  and  C_34
REMARK                            x       y       z     vdW  Elec       q    Type
REMARK                         _______ _______ _______ _____ _____    ______ ____
ROOT
ATOM      1  O   UNL     1     -35.120  20.858   5.718  0.00  0.00    -0.252 OA
ATOM      2  O   UNL     1     -34.908  25.452   5.706  0.00  0.00    -0.270 OA
ATOM      3  N   UNL     1     -35.651  21.972   3.736  0.00  0.00    -0.217 N 
ATOM      4  N   UNL     1     -35.019  23.149   5.697  0.00  0.00    -0.236 N 
ATOM      5  C   UNL     1     -35.780  23.203   3.101  0.00  0.00    +0.072 C 
ATOM      6  C   UNL     1     -35.256  21.911   5.091  0.00  0.00    +0.315 C 
ATOM      7  C   UNL     1     -35.553  24.386   3.685  0.00  0.00    +0.051 C 
ATOM      8  C   UNL     1     -35.133  24.400   5.112  0.00  0.00    +0.250 C 
ATOM      9  H   UNL     1     -34.740  23.130   6.642  0.00  0.00    +0.159 HD
ENDROOT
BRANCH   3  14
ATOM     10  O   UNL     1     -34.711  20.314   2.386  0.00  0.00    -0.332 OA
ATOM     11  C   UNL     1     -36.457  20.023   0.812  0.00  0.00    +0.242 C 
ATOM     12  C   UNL     1     -36.908  21.027   1.852  0.00  0.00    +0.196 C 
ATOM     13  C   UNL     1     -34.943  20.043   0.986  0.00  0.00    +0.185 C 
ATOM     14  C   UNL     1     -35.928  20.780   2.986  0.00  0.00    +0.230 C 
BRANCH  11  15
ATOM     15  P   UNL     1     -37.089  20.280  -0.838  0.00  0.00    +0.423 P 
ATOM     16  O   UNL     1     -36.131  19.496  -1.752  0.00  0.00    -0.136 OA
ATOM     17  O   UNL     1     -37.036  21.804  -1.046  0.00  0.00    -0.251 OA
ATOM     18  O   UNL     1     -38.519  19.709  -0.804  0.00  0.00    -0.136 OA
ENDBRANCH  11  15
BRANCH  11  19
ATOM     19  O   UNL     1     -36.915  18.717   1.158  0.00  0.00    -0.372 OA
ATOM     20  H   UNL     1     -36.212  18.072   0.985  0.00  0.00    +0.211 HD
ENDBRANCH  11  19
BRANCH  12  21
ATOM     21  O   UNL     1     -38.243  20.823   2.274  0.00  0.00    -0.378 OA
ATOM     22  H   UNL     1     -38.773  20.508   1.526  0.00  0.00    +0.211 HD
ENDBRANCH  12  21
BRANCH  13  23
ATOM     23  C   UNL     1     -34.230  21.126   0.184  0.00  0.00    +0.170 C 
BRANCH  23  24
ATOM     24  O   UNL     1     -33.377  20.503  -0.759  0.00  0.00    -0.379 OA
ATOM     25  H   UNL     1     -32.454  20.720  -0.553  0.00  0.00    +0.211 HD
ENDBRANCH  23  24
ENDBRANCH  13  23
ENDBRANCH   3  14
BRANCH   7  26
ATOM     26  C   UNL     1     -35.697  25.697   2.981  0.00  0.00    +0.060 C 
BRANCH  26  27
ATOM     27  C   UNL     1     -37.126  26.134   2.894  0.00  0.00    -0.005 C 
ATOM     28  C   UNL     1     -37.927  25.839   1.861  0.00  0.00    +0.060 C 
BRANCH  28  30
ATOM     29  O   UNL     1     -40.220  24.208   2.386  0.00  0.00    -0.274 OA
ATOM     30  N   UNL     1     -39.228  26.235   1.803  0.00  0.00    -0.282 N 
ATOM     31  C   UNL     1     -40.301  25.394   2.069  0.00  0.00    +0.238 C 
ATOM     32  H   UNL     1     -39.419  27.168   1.558  0.00  0.00    +0.155 HD
BRANCH  31  34
ATOM     33 BR   UNL     1     -41.994  26.892   3.675  0.00  0.00    -0.070 Br
ATOM     34  C   UNL     1     -41.632  26.090   1.948  0.00  0.00    +0.153 C 
ENDBRANCH  31  34
ENDBRANCH  28  30
ENDBRANCH  26  27
ENDBRANCH   7  26
TORSDOF 10
ENDMDL
MODEL 8
REMARK VINA RESULT:      -5.7      3.813      6.783
REMARK  Name = 57348473
REMARK  10 active torsions:
REMARK  status: ('A' for Active; 'I' for Inactive)
REMARK    1  A    between atoms: N_3  and  C_14
REMARK    2  A    between atoms: C_7  and  C_26
REMARK    3  A    between atoms: C_11  and  P_15
REMARK    4  A    between atoms: C_11  and  O_19
REMARK    5  A    between atoms: C_12  and  O_21
REMARK    6  A    between atoms: C_13  and  C_23
REMARK    7  A    between atoms: C_23  and  O_24
REMARK    8  A    between atoms: C_26  and  C_27
REMARK    9  A    between atoms: C_28  and  N_30
REMARK   10  A    between atoms: C_31  and  C_34
REMARK                            x       y       z     vdW  Elec       q    Type
REMARK                         _______ _______ _______ _____ _____    ______ ____
ROOT
ATOM      1  O   UNL     1     -40.540  25.182   1.661  0.00  0.00    -0.252 OA
ATOM      2  O   UNL     1     -41.117  20.877   0.150  0.00  0.00    -0.270 OA
ATOM      3  N   UNL     1     -38.635  23.868   1.348  0.00  0.00    -0.217 N 
ATOM      4  N   UNL     1     -40.813  23.033   0.908  0.00  0.00    -0.236 N 
ATOM      5  C   UNL     1     -38.138  22.629   0.961  0.00  0.00    +0.072 C 
ATOM      6  C   UNL     1     -40.027  24.110   1.332  0.00  0.00    +0.315 C 
ATOM      7  C   UNL     1     -38.893  21.600   0.557  0.00  0.00    +0.051 C 
ATOM      8  C   UNL     1     -40.368  21.781   0.513  0.00  0.00    +0.250 C 
ATOM      9  H   UNL     1     -41.786  23.180   0.887  0.00  0.00    +0.159 HD
ENDROOT
BRANCH   3  14
ATOM     10  O   UNL     1     -36.410  24.570   1.231  0.00  0.00    -0.332 OA
ATOM     11  C   UNL     1     -36.119  25.390   3.435  0.00  0.00    +0.242 C 
ATOM     12  C   UNL     1     -37.558  24.947   3.271  0.00  0.00    +0.196 C 
ATOM     13  C   UNL     1     -35.430  24.660   2.288  0.00  0.00    +0.185 C 
ATOM     14  C   UNL     1     -37.707  24.882   1.761  0.00  0.00    +0.230 C 
BRANCH  11  15
ATOM     15  P   UNL     1     -35.425  25.182   5.066  0.00  0.00    +0.423 P 
ATOM     16  O   UNL     1     -35.941  26.388   5.870  0.00  0.00    -0.136 OA
ATOM     17  O   UNL     1     -33.902  25.188   4.848  0.00  0.00    -0.251 OA
ATOM     18  O   UNL     1     -35.974  23.830   5.556  0.00  0.00    -0.136 OA
ENDBRANCH  11  15
BRANCH  11  19
ATOM     19  O   UNL     1     -36.004  26.790   3.186  0.00  0.00    -0.372 OA
ATOM     20  H   UNL     1     -35.319  27.165   3.762  0.00  0.00    +0.211 HD
ENDBRANCH  11  19
BRANCH  12  21
ATOM     21  O   UNL     1     -38.483  25.855   3.839  0.00  0.00    -0.378 OA
ATOM     22  H   UNL     1     -38.331  25.915   4.795  0.00  0.00    +0.211 HD
ENDBRANCH  12  21
BRANCH  13  23
ATOM     23  C   UNL     1     -34.984  23.241   2.622  0.00  0.00    +0.170 C 
BRANCH  23  24
ATOM     24  O   UNL     1     -34.508  22.626   1.439  0.00  0.00    -0.379 OA
ATOM     25  H   UNL     1     -33.767  23.141   1.082  0.00  0.00    +0.211 HD
ENDBRANCH  23  24
ENDBRANCH  13  23
ENDBRANCH   3  14
BRANCH   7  26
ATOM     26  C   UNL     1     -38.335  20.276   0.142  0.00  0.00    +0.060 C 
BRANCH  26  27
ATOM     27  C   UNL     1     -37.039  19.973   0.830  0.00  0.00    -0.005 C 
ATOM     28  C   UNL     1     -35.882  19.795   0.180  0.00  0.00    +0.060 C 
BRANCH  28  30
ATOM     29  O   UNL     1     -34.236  17.481  -0.180  0.00  0.00    -0.274 OA
ATOM     30  N   UNL     1     -34.711  19.531   0.821  0.00  0.00    -0.282 N 
ATOM     31  C   UNL     1     -33.954  18.387   0.604  0.00  0.00    +0.238 C 
ATOM     32  H   UNL     1     -34.382  20.187   1.476  0.00  0.00    +0.155 HD
BRANCH  31  34
ATOM     33 BR   UNL     1     -31.237  18.796   0.235  0.00  0.00    -0.070 Br
ATOM     34  C   UNL     1     -32.696  18.352   1.431  0.00  0.00    +0.153 C 
ENDBRANCH  31  34
ENDBRANCH  28  30
ENDBRANCH  26  27
ENDBRANCH   7  26
TORSDOF 10
ENDMDL
MODEL 9
REMARK VINA RESULT:      -5.7      3.444      6.416
REMARK  Name = 57348473
REMARK  10 active torsions:
REMARK  status: ('A' for Active; 'I' for Inactive)
REMARK    1  A    between atoms: N_3  and  C_14
REMARK    2  A    between atoms: C_7  and  C_26
REMARK    3  A    between atoms: C_11  and  P_15
REMARK    4  A    between atoms: C_11  and  O_19
REMARK    5  A    between atoms: C_12  and  O_21
REMARK    6  A    between atoms: C_13  and  C_23
REMARK    7  A    between atoms: C_23  and  O_24
REMARK    8  A    between atoms: C_26  and  C_27
REMARK    9  A    between atoms: C_28  and  N_30
REMARK   10  A    between atoms: C_31  and  C_34
REMARK                            x       y       z     vdW  Elec       q    Type
REMARK                         _______ _______ _______ _____ _____    ______ ____
ROOT
ATOM      1  O   UNL     1     -35.175  21.333   4.976  0.00  0.00    -0.252 OA
ATOM      2  O   UNL     1     -36.883  19.772   1.002  0.00  0.00    -0.270 OA
ATOM      3  N   UNL     1     -36.180  22.873   3.538  0.00  0.00    -0.217 N 
ATOM      4  N   UNL     1     -36.031  20.569   2.990  0.00  0.00    -0.236 N 
ATOM      5  C   UNL     1     -36.826  23.067   2.321  0.00  0.00    +0.072 C 
ATOM      6  C   UNL     1     -35.752  21.581   3.915  0.00  0.00    +0.315 C 
ATOM      7  C   UNL     1     -37.090  22.096   1.439  0.00  0.00    +0.051 C 
ATOM      8  C   UNL     1     -36.669  20.709   1.768  0.00  0.00    +0.250 C 
ATOM      9  H   UNL     1     -35.743  19.659   3.234  0.00  0.00    +0.159 HD
ENDROOT
BRANCH   3  14
ATOM     10  O   UNL     1     -36.875  25.051   4.017  0.00  0.00    -0.332 OA
ATOM     11  C   UNL     1     -34.786  26.054   4.506  0.00  0.00    +0.242 C 
ATOM     12  C   UNL     1     -34.563  24.580   4.238  0.00  0.00    +0.196 C 
ATOM     13  C   UNL     1     -36.149  26.291   3.865  0.00  0.00    +0.185 C 
ATOM     14  C   UNL     1     -35.961  24.009   4.388  0.00  0.00    +0.230 C 
BRANCH  11  15
ATOM     15  P   UNL     1     -33.457  27.141   4.015  0.00  0.00    +0.423 P 
ATOM     16  O   UNL     1     -32.798  26.438   2.815  0.00  0.00    -0.136 OA
ATOM     17  O   UNL     1     -32.549  27.235   5.253  0.00  0.00    -0.251 OA
ATOM     18  O   UNL     1     -34.150  28.468   3.652  0.00  0.00    -0.136 OA
ENDBRANCH  11  15
BRANCH  11  19
ATOM     19  O   UNL     1     -34.921  26.285   5.907  0.00  0.00    -0.372 OA
ATOM     20  H   UNL     1     -35.818  26.048   6.189  0.00  0.00    +0.211 HD
ENDBRANCH  11  19
BRANCH  12  21
ATOM     21  O   UNL     1     -33.664  23.983   5.154  0.00  0.00    -0.378 OA
ATOM     22  H   UNL     1     -33.919  24.223   6.059  0.00  0.00    +0.211 HD
ENDBRANCH  12  21
BRANCH  13  23
ATOM     23  C   UNL     1     -36.098  26.614   2.377  0.00  0.00    +0.170 C 
BRANCH  23  24
ATOM     24  O   UNL     1     -36.739  27.859   2.163  0.00  0.00    -0.379 OA
ATOM     25  H   UNL     1     -36.139  28.579   2.416  0.00  0.00    +0.211 HD
ENDBRANCH  23  24
ENDBRANCH  13  23
ENDBRANCH   3  14
BRANCH   7  26
ATOM     26  C   UNL     1     -37.789  22.329   0.137  0.00  0.00    +0.060 C 
BRANCH  26  27
ATOM     27  C   UNL     1     -38.992  23.207   0.295  0.00  0.00    -0.005 C 
ATOM     28  C   UNL     1     -38.999  24.512  -0.006  0.00  0.00    +0.060 C 
BRANCH  28  30
ATOM     29  O   UNL     1     -39.382  26.580   1.935  0.00  0.00    -0.274 OA
ATOM     30  N   UNL     1     -40.105  25.293   0.132  0.00  0.00    -0.282 N 
ATOM     31  C   UNL     1     -40.232  26.284   1.097  0.00  0.00    +0.238 C 
ATOM     32  H   UNL     1     -40.857  25.147  -0.486  0.00  0.00    +0.155 HD
BRANCH  31  34
ATOM     33 BR   UNL     1     -42.907  25.751   1.598  0.00  0.00    -0.070 Br
ATOM     34  C   UNL     1     -41.550  27.009   1.019  0.00  0.00    +0.153 C 
ENDBRANCH  31  34
ENDBRANCH  28  30
ENDBRANCH  26  27
ENDBRANCH   7  26
TORSDOF 10
ENDMDL
