MODEL 1
REMARK VINA RESULT:      -6.6      0.000      0.000
REMARK  Name = 194868
REMARK  12 active torsions:
REMARK  status: ('A' for Active; 'I' for Inactive)
REMARK    1  A    between atoms: CA_1  and  N_3
REMARK    2  A    between atoms: CA_1  and  C_20
REMARK    3  A    between atoms: CA_1  and  CB_33
REMARK    4  A    between atoms: C_4  and  CA_8
REMARK    5  A    between atoms: C_12  and  CA_13
REMARK    6  A    between atoms: CA_13  and  N_14
REMARK    7  A    between atoms: N_19  and  CA_22
REMARK    8  A    between atoms: CA_22  and  C_25
REMARK    9  A    between atoms: N_24  and  CA_27
REMARK   10  A    between atoms: CA_27  and  CB_28
REMARK   11  A    between atoms: CA_27  and  C_32
REMARK   12  A    between atoms: CB_33  and  CG_34
REMARK                            x       y       z     vdW  Elec       q    Type
REMARK                         _______ _______ _______ _____ _____    ______ ____
ROOT
ATOM      1  CA  PHE A   3     -36.143  21.853   2.682  0.00  0.00    +0.153 C 
ENDROOT
BRANCH   1   3
ATOM      2  O   PRO A   2     -37.698  22.711   0.387  0.00  0.00    -0.273 OA
ATOM      3  N   PHE A   3     -37.579  21.998   2.599  0.00  0.00    -0.297 N 
ATOM      4  C   PRO A   2     -38.232  22.417   1.452  0.00  0.00    +0.242 C 
ATOM      5  H   PHE A   3     -38.118  21.788   3.395  0.00  0.00    +0.150 HD
BRANCH   4   8
ATOM      6  O   GLY A   1     -39.223  24.355   3.741  0.00  0.00    -0.277 OA
ATOM      7  N   PRO A   2     -40.111  23.875   1.662  0.00  0.00    -0.252 N 
ATOM      8  CA  PRO A   2     -39.721  22.455   1.630  0.00  0.00    +0.160 C 
ATOM      9  CB  PRO A   2     -40.435  21.873   0.405  0.00  0.00    +0.057 C 
ATOM     10  CG  PRO A   2     -41.006  23.096  -0.244  0.00  0.00    -0.008 C 
ATOM     11  CD  PRO A   2     -40.807  24.175   0.516  0.00  0.00    +0.063 C 
ATOM     12  C   GLY A   1     -39.861  24.705   2.744  0.00  0.00    +0.208 C 
BRANCH  12  13
ATOM     13  CA  GLY A   1     -40.413  26.107   2.658  0.00  0.00    +0.002 C 
BRANCH  13  14
ATOM     14  N   GLY A   1     -41.111  26.344   3.903  0.00  0.00    +0.386 N 
ATOM     15  H1  GLY A   1     -40.522  26.900   4.522  0.00  0.00    -0.089 HD
ATOM     16  H2  GLY A   1     -41.325  25.452   4.348  0.00  0.00    -0.089 HD
ATOM     17  H3  GLY A   1     -41.978  26.848   3.716  0.00  0.00    -0.089 HD
ENDBRANCH  13  14
ENDBRANCH  12  13
ENDBRANCH   4   8
ENDBRANCH   1   3
BRANCH   1  20
ATOM     18  O   PHE A   3     -35.161  21.580   4.881  0.00  0.00    -0.273 OA
ATOM     19  N   GLY A   4     -36.009  23.658   4.282  0.00  0.00    -0.295 N 
ATOM     20  C   PHE A   3     -35.723  22.315   4.073  0.00  0.00    +0.241 C 
ATOM     21  H   GLY A   4     -36.465  24.155   3.565  0.00  0.00    +0.150 HD
BRANCH  19  22
ATOM     22  CA  GLY A   4     -35.670  24.361   5.498  0.00  0.00    +0.176 C 
BRANCH  22  25
ATOM     23  O   GLY A   4     -34.343  26.312   6.020  0.00  0.00    -0.273 OA
ATOM     24  N   VAL A   5     -34.605  25.679   3.799  0.00  0.00    -0.298 N 
ATOM     25  C   GLY A   4     -34.790  25.548   5.168  0.00  0.00    +0.243 C 
ATOM     26  H   VAL A   5     -35.010  25.006   3.206  0.00  0.00    +0.150 HD
BRANCH  24  27
ATOM     27  CA  VAL A   5     -33.850  26.756   3.200  0.00  0.00    +0.137 C 
BRANCH  27  28
ATOM     28  CB  VAL A   5     -33.114  26.348   1.911  0.00  0.00    +0.026 C 
ATOM     29  CG1 VAL A   5     -31.597  26.316   2.130  0.00  0.00    +0.002 C 
ATOM     30  CG2 VAL A   5     -33.586  25.004   1.349  0.00  0.00    +0.002 C 
ENDBRANCH  27  28
BRANCH  27  32
ATOM     31  O   VAL A   5     -34.615  29.040   3.428  0.00  0.00    -0.286 OA
ATOM     32  C   VAL A   5     -34.810  27.909   2.992  0.00  0.00    +0.227 C 
ENDBRANCH  27  32
ENDBRANCH  24  27
ENDBRANCH  22  25
ENDBRANCH  19  22
ENDBRANCH   1  20
BRANCH   1  33
ATOM     33  CB  PHE A   3     -35.692  20.406   2.444  0.00  0.00    +0.055 C 
BRANCH  33  34
ATOM     34  CG  PHE A   3     -34.454  20.315   1.585  0.00  0.00    -0.020 C 
ATOM     35  CD1 PHE A   3     -33.659  19.169   1.629  0.00  0.00    -0.004 C 
ATOM     36  CD2 PHE A   3     -34.105  21.375   0.750  0.00  0.00    -0.004 C 
ATOM     37  CE1 PHE A   3     -32.515  19.084   0.836  0.00  0.00    -0.000 C 
ATOM     38  CE2 PHE A   3     -32.961  21.291  -0.043  0.00  0.00    -0.000 C 
ATOM     39  CZ  PHE A   3     -32.165  20.145  -0.001  0.00  0.00    -0.000 C 
ENDBRANCH  33  34
ENDBRANCH   1  33
TORSDOF 12
ENDMDL
MODEL 2
REMARK VINA RESULT:      -6.2      4.155      7.006
REMARK  Name = 194868
REMARK  12 active torsions:
REMARK  status: ('A' for Active; 'I' for Inactive)
REMARK    1  A    between atoms: CA_1  and  N_3
REMARK    2  A    between atoms: CA_1  and  C_20
REMARK    3  A    between atoms: CA_1  and  CB_33
REMARK    4  A    between atoms: C_4  and  CA_8
REMARK    5  A    between atoms: C_12  and  CA_13
REMARK    6  A    between atoms: CA_13  and  N_14
REMARK    7  A    between atoms: N_19  and  CA_22
REMARK    8  A    between atoms: CA_22  and  C_25
REMARK    9  A    between atoms: N_24  and  CA_27
REMARK   10  A    between atoms: CA_27  and  CB_28
REMARK   11  A    between atoms: CA_27  and  C_32
REMARK   12  A    between atoms: CB_33  and  CG_34
REMARK                            x       y       z     vdW  Elec       q    Type
REMARK                         _______ _______ _______ _____ _____    ______ ____
ROOT
ATOM      1  CA  PHE A   3     -34.676  26.334   4.539  0.00  0.00    +0.153 C 
ENDROOT
BRANCH   1   3
ATOM      2  O   PRO A   2     -34.477  27.017   1.726  0.00  0.00    -0.273 OA
ATOM      3  N   PHE A   3     -35.128  27.547   3.896  0.00  0.00    -0.297 N 
ATOM      4  C   PRO A   2     -34.988  27.782   2.539  0.00  0.00    +0.242 C 
ATOM      5  H   PHE A   3     -35.558  28.238   4.450  0.00  0.00    +0.150 HD
BRANCH   4   8
ATOM      6  O   GLY A   1     -33.742  30.268   4.037  0.00  0.00    -0.277 OA
ATOM      7  N   PRO A   2     -34.429  29.997   1.847  0.00  0.00    -0.252 N 
ATOM      8  CA  PRO A   2     -35.565  29.105   2.130  0.00  0.00    +0.160 C 
ATOM      9  CB  PRO A   2     -36.319  28.986   0.801  0.00  0.00    +0.057 C 
ATOM     10  CG  PRO A   2     -35.399  29.684  -0.153  0.00  0.00    -0.008 C 
ATOM     11  CD  PRO A   2     -34.374  30.241   0.496  0.00  0.00    +0.063 C 
ATOM     12  C   GLY A   1     -33.628  30.542   2.839  0.00  0.00    +0.208 C 
BRANCH  12  13
ATOM     13  CA  GLY A   1     -32.567  31.516   2.388  0.00  0.00    +0.002 C 
BRANCH  13  14
ATOM     14  N   GLY A   1     -31.604  31.593   3.464  0.00  0.00    +0.386 N 
ATOM     15  H1  GLY A   1     -31.535  30.686   3.924  0.00  0.00    -0.089 HD
ATOM     16  H2  GLY A   1     -31.905  32.295   4.140  0.00  0.00    -0.089 HD
ATOM     17  H3  GLY A   1     -30.692  31.852   3.087  0.00  0.00    -0.089 HD
ENDBRANCH  13  14
ENDBRANCH  12  13
ENDBRANCH   4   8
ENDBRANCH   1   3
BRANCH   1  20
ATOM     18  O   PHE A   3     -33.631  26.120   6.715  0.00  0.00    -0.273 OA
ATOM     19  N   GLY A   4     -32.978  27.862   5.326  0.00  0.00    -0.295 N 
ATOM     20  C   PHE A   3     -33.730  26.745   5.662  0.00  0.00    +0.241 C 
ATOM     21  H   GLY A   4     -33.140  28.288   4.452  0.00  0.00    +0.150 HD
BRANCH  19  22
ATOM     22  CA  GLY A   4     -31.971  28.430   6.191  0.00  0.00    +0.176 C 
BRANCH  22  25
ATOM     23  O   GLY A   4     -30.641  28.759   4.200  0.00  0.00    -0.273 OA
ATOM     24  N   VAL A   5     -29.574  28.521   6.251  0.00  0.00    -0.298 N 
ATOM     25  C   GLY A   4     -30.681  28.606   5.418  0.00  0.00    +0.243 C 
ATOM     26  H   VAL A   5     -29.723  28.398   7.215  0.00  0.00    +0.150 HD
BRANCH  24  27
ATOM     27  CA  VAL A   5     -28.212  28.603   5.772  0.00  0.00    +0.137 C 
BRANCH  27  28
ATOM     28  CB  VAL A   5     -27.418  29.776   6.373  0.00  0.00    +0.026 C 
ATOM     29  CG1 VAL A   5     -27.715  31.082   5.628  0.00  0.00    +0.002 C 
ATOM     30  CG2 VAL A   5     -27.667  29.965   7.872  0.00  0.00    +0.002 C 
ENDBRANCH  27  28
BRANCH  27  32
ATOM     31  O   VAL A   5     -28.067  26.398   6.756  0.00  0.00    -0.286 OA
ATOM     32  C   VAL A   5     -27.569  27.257   6.035  0.00  0.00    +0.227 C 
ENDBRANCH  27  32
ENDBRANCH  24  27
ENDBRANCH  22  25
ENDBRANCH  19  22
ENDBRANCH   1  20
BRANCH   1  33
ATOM     33  CB  PHE A   3     -35.840  25.507   5.100  0.00  0.00    +0.055 C 
BRANCH  33  34
ATOM     34  CG  PHE A   3     -35.646  24.022   4.908  0.00  0.00    -0.020 C 
ATOM     35  CD1 PHE A   3     -35.364  23.208   6.006  0.00  0.00    -0.004 C 
ATOM     36  CD2 PHE A   3     -35.748  23.464   3.634  0.00  0.00    -0.004 C 
ATOM     37  CE1 PHE A   3     -35.184  21.837   5.830  0.00  0.00    -0.000 C 
ATOM     38  CE2 PHE A   3     -35.568  22.092   3.457  0.00  0.00    -0.000 C 
ATOM     39  CZ  PHE A   3     -35.286  21.278   4.554  0.00  0.00    -0.000 C 
ENDBRANCH  33  34
ENDBRANCH   1  33
TORSDOF 12
ENDMDL
MODEL 3
REMARK VINA RESULT:      -6.1      4.082      6.541
REMARK  Name = 194868
REMARK  12 active torsions:
REMARK  status: ('A' for Active; 'I' for Inactive)
REMARK    1  A    between atoms: CA_1  and  N_3
REMARK    2  A    between atoms: CA_1  and  C_20
REMARK    3  A    between atoms: CA_1  and  CB_33
REMARK    4  A    between atoms: C_4  and  CA_8
REMARK    5  A    between atoms: C_12  and  CA_13
REMARK    6  A    between atoms: CA_13  and  N_14
REMARK    7  A    between atoms: N_19  and  CA_22
REMARK    8  A    between atoms: CA_22  and  C_25
REMARK    9  A    between atoms: N_24  and  CA_27
REMARK   10  A    between atoms: CA_27  and  CB_28
REMARK   11  A    between atoms: CA_27  and  C_32
REMARK   12  A    between atoms: CB_33  and  CG_34
REMARK                            x       y       z     vdW  Elec       q    Type
REMARK                         _______ _______ _______ _____ _____    ______ ____
ROOT
ATOM      1  CA  PHE A   3     -36.116  19.443   0.353  0.00  0.00    +0.153 C 
ENDROOT
BRANCH   1   3
ATOM      2  O   PRO A   2     -35.279  17.511  -1.644  0.00  0.00    -0.273 OA
ATOM      3  N   PHE A   3     -36.387  18.024   0.338  0.00  0.00    -0.297 N 
ATOM      4  C   PRO A   2     -35.942  17.179  -0.665  0.00  0.00    +0.242 C 
ATOM      5  H   PHE A   3     -36.912  17.639   1.076  0.00  0.00    +0.150 HD
BRANCH   4   8
ATOM      6  O   GLY A   1     -39.062  16.697  -0.544  0.00  0.00    -0.277 OA
ATOM      7  N   PRO A   2     -37.356  15.416  -1.434  0.00  0.00    -0.252 N 
ATOM      8  CA  PRO A   2     -36.340  15.753  -0.423  0.00  0.00    +0.160 C 
ATOM      9  CB  PRO A   2     -35.170  14.803  -0.702  0.00  0.00    +0.057 C 
ATOM     10  CG  PRO A   2     -35.584  14.151  -1.985  0.00  0.00    -0.008 C 
ATOM     11  CD  PRO A   2     -36.820  14.522  -2.329  0.00  0.00    +0.063 C 
ATOM     12  C   GLY A   1     -38.658  15.890  -1.387  0.00  0.00    +0.208 C 
BRANCH  12  13
ATOM     13  CA  GLY A   1     -39.602  15.370  -2.443  0.00  0.00    +0.002 C 
BRANCH  13  14
ATOM     14  N   GLY A   1     -40.491  14.447  -1.773  0.00  0.00    +0.386 N 
ATOM     15  H1  GLY A   1     -40.250  14.402  -0.783  0.00  0.00    -0.089 HD
ATOM     16  H2  GLY A   1     -40.396  13.521  -2.189  0.00  0.00    -0.089 HD
ATOM     17  H3  GLY A   1     -41.454  14.768  -1.874  0.00  0.00    -0.089 HD
ENDBRANCH  13  14
ENDBRANCH  12  13
ENDBRANCH   4   8
ENDBRANCH   1   3
BRANCH   1  20
ATOM     18  O   PHE A   3     -38.382  20.082  -0.221  0.00  0.00    -0.273 OA
ATOM     19  N   GLY A   4     -37.479  20.836   1.781  0.00  0.00    -0.295 N 
ATOM     20  C   PHE A   3     -37.447  20.154   0.572  0.00  0.00    +0.241 C 
ATOM     21  H   GLY A   4     -36.670  20.829   2.342  0.00  0.00    +0.150 HD
BRANCH  19  22
ATOM     22  CA  GLY A   4     -38.640  21.553   2.256  0.00  0.00    +0.176 C 
BRANCH  22  25
ATOM     23  O   GLY A   4     -38.837  23.958   2.394  0.00  0.00    -0.273 OA
ATOM     24  N   VAL A   5     -37.069  22.901   3.471  0.00  0.00    -0.298 N 
ATOM     25  C   GLY A   4     -38.228  22.938   2.710  0.00  0.00    +0.243 C 
ATOM     26  H   VAL A   5     -36.665  22.025   3.664  0.00  0.00    +0.150 HD
BRANCH  24  27
ATOM     27  CA  VAL A   5     -36.424  24.084   3.993  0.00  0.00    +0.137 C 
BRANCH  27  28
ATOM     28  CB  VAL A   5     -35.767  23.871   5.368  0.00  0.00    +0.026 C 
ATOM     29  CG1 VAL A   5     -35.471  22.388   5.613  0.00  0.00    +0.002 C 
ATOM     30  CG2 VAL A   5     -34.489  24.694   5.558  0.00  0.00    +0.002 C 
ENDBRANCH  27  28
BRANCH  27  32
ATOM     31  O   VAL A   5     -34.804  23.795   2.219  0.00  0.00    -0.286 OA
ATOM     32  C   VAL A   5     -35.445  24.557   2.937  0.00  0.00    +0.227 C 
ENDBRANCH  27  32
ENDBRANCH  24  27
ENDBRANCH  22  25
ENDBRANCH  19  22
ENDBRANCH   1  20
BRANCH   1  33
ATOM     33  CB  PHE A   3     -35.119  19.831   1.452  0.00  0.00    +0.055 C 
BRANCH  33  34
ATOM     34  CG  PHE A   3     -33.686  19.566   1.059  0.00  0.00    -0.020 C 
ATOM     35  CD1 PHE A   3     -32.985  20.508   0.305  0.00  0.00    -0.004 C 
ATOM     36  CD2 PHE A   3     -33.062  18.381   1.449  0.00  0.00    -0.004 C 
ATOM     37  CE1 PHE A   3     -31.661  20.264  -0.059  0.00  0.00    -0.000 C 
ATOM     38  CE2 PHE A   3     -31.738  18.137   1.085  0.00  0.00    -0.000 C 
ATOM     39  CZ  PHE A   3     -31.037  19.078   0.331  0.00  0.00    -0.000 C 
ENDBRANCH  33  34
ENDBRANCH   1  33
TORSDOF 12
ENDMDL
MODEL 4
REMARK VINA RESULT:      -6.1      1.627      2.178
REMARK  Name = 194868
REMARK  12 active torsions:
REMARK  status: ('A' for Active; 'I' for Inactive)
REMARK    1  A    between atoms: CA_1  and  N_3
REMARK    2  A    between atoms: CA_1  and  C_20
REMARK    3  A    between atoms: CA_1  and  CB_33
REMARK    4  A    between atoms: C_4  and  CA_8
REMARK    5  A    between atoms: C_12  and  CA_13
REMARK    6  A    between atoms: CA_13  and  N_14
REMARK    7  A    between atoms: N_19  and  CA_22
REMARK    8  A    between atoms: CA_22  and  C_25
REMARK    9  A    between atoms: N_24  and  CA_27
REMARK   10  A    between atoms: CA_27  and  CB_28
REMARK   11  A    between atoms: CA_27  and  C_32
REMARK   12  A    between atoms: CB_33  and  CG_34
REMARK                            x       y       z     vdW  Elec       q    Type
REMARK                         _______ _______ _______ _____ _____    ______ ____
ROOT
ATOM      1  CA  PHE A   3     -36.095  22.334   3.002  0.00  0.00    +0.153 C 
ENDROOT
BRANCH   1   3
ATOM      2  O   PRO A   2     -37.631  22.936   0.614  0.00  0.00    -0.273 OA
ATOM      3  N   PHE A   3     -37.532  22.315   2.855  0.00  0.00    -0.297 N 
ATOM      4  C   PRO A   2     -38.176  22.620   1.668  0.00  0.00    +0.242 C 
ATOM      5  H   PHE A   3     -38.080  22.073   3.636  0.00  0.00    +0.150 HD
BRANCH   4   8
ATOM      6  O   GLY A   1     -39.484  24.555   3.795  0.00  0.00    -0.277 OA
ATOM      7  N   PRO A   2     -40.214  23.862   1.714  0.00  0.00    -0.252 N 
ATOM      8  CA  PRO A   2     -39.667  22.497   1.783  0.00  0.00    +0.160 C 
ATOM      9  CB  PRO A   2     -40.253  21.771   0.567  0.00  0.00    +0.057 C 
ATOM     10  CG  PRO A   2     -40.927  22.883  -0.176  0.00  0.00    -0.008 C 
ATOM     11  CD  PRO A   2     -40.886  24.018   0.526  0.00  0.00    +0.063 C 
ATOM     12  C   GLY A   1     -40.110  24.774   2.754  0.00  0.00    +0.208 C 
BRANCH  12  13
ATOM     13  CA  GLY A   1     -40.811  26.097   2.562  0.00  0.00    +0.002 C 
BRANCH  13  14
ATOM     14  N   GLY A   1     -41.100  26.597   3.887  0.00  0.00    +0.386 N 
ATOM     15  H1  GLY A   1     -40.250  26.982   4.299  0.00  0.00    -0.089 HD
ATOM     16  H2  GLY A   1     -41.446  25.835   4.471  0.00  0.00    -0.089 HD
ATOM     17  H3  GLY A   1     -41.809  27.328   3.827  0.00  0.00    -0.089 HD
ENDBRANCH  13  14
ENDBRANCH  12  13
ENDBRANCH   4   8
ENDBRANCH   1   3
BRANCH   1  20
ATOM     18  O   PHE A   3     -36.182  22.666   5.401  0.00  0.00    -0.273 OA
ATOM     19  N   GLY A   4     -34.972  24.166   4.106  0.00  0.00    -0.295 N 
ATOM     20  C   PHE A   3     -35.785  23.059   4.307  0.00  0.00    +0.241 C 
ATOM     21  H   GLY A   4     -34.712  24.393   3.184  0.00  0.00    +0.150 HD
BRANCH  19  22
ATOM     22  CA  GLY A   4     -34.489  25.001   5.182  0.00  0.00    +0.176 C 
BRANCH  22  25
ATOM     23  O   GLY A   4     -35.344  27.076   4.285  0.00  0.00    -0.273 OA
ATOM     24  N   VAL A   5     -33.074  26.891   4.752  0.00  0.00    -0.298 N 
ATOM     25  C   GLY A   4     -34.383  26.433   4.703  0.00  0.00    +0.243 C 
ATOM     26  H   VAL A   5     -32.382  26.289   5.107  0.00  0.00    +0.150 HD
BRANCH  24  27
ATOM     27  CA  VAL A   5     -32.676  28.207   4.306  0.00  0.00    +0.137 C 
BRANCH  27  28
ATOM     28  CB  VAL A   5     -31.820  28.972   5.332  0.00  0.00    +0.026 C 
ATOM     29  CG1 VAL A   5     -32.145  30.469   5.313  0.00  0.00    +0.002 C 
ATOM     30  CG2 VAL A   5     -31.961  28.427   6.757  0.00  0.00    +0.002 C 
ENDBRANCH  27  28
BRANCH  27  32
ATOM     31  O   VAL A   5     -32.531  27.560   1.980  0.00  0.00    -0.286 OA
ATOM     32  C   VAL A   5     -31.982  28.031   2.972  0.00  0.00    +0.227 C 
ENDBRANCH  27  32
ENDBRANCH  24  27
ENDBRANCH  22  25
ENDBRANCH  19  22
ENDBRANCH   1  20
BRANCH   1  33
ATOM     33  CB  PHE A   3     -35.496  20.922   3.022  0.00  0.00    +0.055 C 
BRANCH  33  34
ATOM     34  CG  PHE A   3     -34.534  20.681   1.883  0.00  0.00    -0.020 C 
ATOM     35  CD1 PHE A   3     -34.288  21.693   0.953  0.00  0.00    -0.004 C 
ATOM     36  CD2 PHE A   3     -33.893  19.449   1.760  0.00  0.00    -0.004 C 
ATOM     37  CE1 PHE A   3     -33.400  21.470  -0.099  0.00  0.00    -0.000 C 
ATOM     38  CE2 PHE A   3     -33.005  19.227   0.708  0.00  0.00    -0.000 C 
ATOM     39  CZ  PHE A   3     -32.758  20.237  -0.222  0.00  0.00    -0.000 C 
ENDBRANCH  33  34
ENDBRANCH   1  33
TORSDOF 12
ENDMDL
MODEL 5
REMARK VINA RESULT:      -5.9      3.086      4.789
REMARK  Name = 194868
REMARK  12 active torsions:
REMARK  status: ('A' for Active; 'I' for Inactive)
REMARK    1  A    between atoms: CA_1  and  N_3
REMARK    2  A    between atoms: CA_1  and  C_20
REMARK    3  A    between atoms: CA_1  and  CB_33
REMARK    4  A    between atoms: C_4  and  CA_8
REMARK    5  A    between atoms: C_12  and  CA_13
REMARK    6  A    between atoms: CA_13  and  N_14
REMARK    7  A    between atoms: N_19  and  CA_22
REMARK    8  A    between atoms: CA_22  and  C_25
REMARK    9  A    between atoms: N_24  and  CA_27
REMARK   10  A    between atoms: CA_27  and  CB_28
REMARK   11  A    between atoms: CA_27  and  C_32
REMARK   12  A    between atoms: CB_33  and  CG_34
REMARK                            x       y       z     vdW  Elec       q    Type
REMARK                         _______ _______ _______ _____ _____    ______ ____
ROOT
ATOM      1  CA  PHE A   3     -36.255  25.812   3.144  0.00  0.00    +0.153 C 
ENDROOT
BRANCH   1   3
ATOM      2  O   PRO A   2     -38.491  24.410   1.938  0.00  0.00    -0.273 OA
ATOM      3  N   PHE A   3     -37.576  26.333   2.877  0.00  0.00    -0.297 N 
ATOM      4  C   PRO A   2     -38.583  25.582   2.294  0.00  0.00    +0.242 C 
ATOM      5  H   PHE A   3     -37.770  27.267   3.122  0.00  0.00    +0.150 HD
BRANCH   4   8
ATOM      6  O   GLY A   1     -38.326  28.224   0.582  0.00  0.00    -0.277 OA
ATOM      7  N   PRO A   2     -40.021  26.659   0.723  0.00  0.00    -0.252 N 
ATOM      8  CA  PRO A   2     -39.860  26.356   2.155  0.00  0.00    +0.160 C 
ATOM      9  CB  PRO A   2     -41.070  25.488   2.517  0.00  0.00    +0.057 C 
ATOM     10  CG  PRO A   2     -41.692  25.230   1.179  0.00  0.00    -0.008 C 
ATOM     11  CD  PRO A   2     -41.072  25.927   0.224  0.00  0.00    +0.063 C 
ATOM     12  C   GLY A   1     -39.258  27.607   0.058  0.00  0.00    +0.208 C 
BRANCH  12  13
ATOM     13  CA  GLY A   1     -39.617  27.868  -1.385  0.00  0.00    +0.002 C 
BRANCH  13  14
ATOM     14  N   GLY A   1     -38.501  27.391  -2.171  0.00  0.00    +0.386 N 
ATOM     15  H1  GLY A   1     -38.669  27.590  -3.157  0.00  0.00    -0.089 HD
ATOM     16  H2  GLY A   1     -38.398  26.385  -2.040  0.00  0.00    -0.089 HD
ATOM     17  H3  GLY A   1     -37.647  27.862  -1.871  0.00  0.00    -0.089 HD
ENDBRANCH  13  14
ENDBRANCH  12  13
ENDBRANCH   4   8
ENDBRANCH   1   3
BRANCH   1  20
ATOM     18  O   PHE A   3     -34.050  26.671   2.620  0.00  0.00    -0.273 OA
ATOM     19  N   GLY A   4     -35.876  28.094   2.447  0.00  0.00    -0.295 N 
ATOM     20  C   PHE A   3     -35.254  26.885   2.728  0.00  0.00    +0.241 C 
ATOM     21  H   GLY A   4     -36.852  28.157   2.569  0.00  0.00    +0.150 HD
BRANCH  19  22
ATOM     22  CA  GLY A   4     -35.165  29.263   1.984  0.00  0.00    +0.176 C 
BRANCH  22  25
ATOM     23  O   GLY A   4     -35.287  30.912   3.746  0.00  0.00    -0.273 OA
ATOM     24  N   VAL A   5     -33.338  29.673   3.484  0.00  0.00    -0.298 N 
ATOM     25  C   GLY A   4     -34.639  30.040   3.172  0.00  0.00    +0.243 C 
ATOM     26  H   VAL A   5     -32.915  28.959   2.956  0.00  0.00    +0.150 HD
BRANCH  24  27
ATOM     27  CA  VAL A   5     -32.572  30.290   4.543  0.00  0.00    +0.137 C 
BRANCH  27  28
ATOM     28  CB  VAL A   5     -31.799  29.281   5.411  0.00  0.00    +0.026 C 
ATOM     29  CG1 VAL A   5     -31.612  29.811   6.837  0.00  0.00    +0.002 C 
ATOM     30  CG2 VAL A   5     -32.454  27.898   5.452  0.00  0.00    +0.002 C 
ENDBRANCH  27  28
BRANCH  27  32
ATOM     31  O   VAL A   5     -31.123  31.157   2.810  0.00  0.00    -0.286 OA
ATOM     32  C   VAL A   5     -31.673  31.323   3.896  0.00  0.00    +0.227 C 
ENDBRANCH  27  32
ENDBRANCH  24  27
ENDBRANCH  22  25
ENDBRANCH  19  22
ENDBRANCH   1  20
BRANCH   1  33
ATOM     33  CB  PHE A   3     -36.063  25.450   4.622  0.00  0.00    +0.055 C 
BRANCH  33  34
ATOM     34  CG  PHE A   3     -35.740  23.990   4.828  0.00  0.00    -0.020 C 
ATOM     35  CD1 PHE A   3     -35.769  23.111   3.744  0.00  0.00    -0.004 C 
ATOM     36  CD2 PHE A   3     -35.414  23.519   6.099  0.00  0.00    -0.004 C 
ATOM     37  CE1 PHE A   3     -35.471  21.762   3.932  0.00  0.00    -0.000 C 
ATOM     38  CE2 PHE A   3     -35.116  22.170   6.288  0.00  0.00    -0.000 C 
ATOM     39  CZ  PHE A   3     -35.144  21.290   5.205  0.00  0.00    -0.000 C 
ENDBRANCH  33  34
ENDBRANCH   1  33
TORSDOF 12
ENDMDL
MODEL 6
REMARK VINA RESULT:      -5.8      4.246      6.631
REMARK  Name = 194868
REMARK  12 active torsions:
REMARK  status: ('A' for Active; 'I' for Inactive)
REMARK    1  A    between atoms: CA_1  and  N_3
REMARK    2  A    between atoms: CA_1  and  C_20
REMARK    3  A    between atoms: CA_1  and  CB_33
REMARK    4  A    between atoms: C_4  and  CA_8
REMARK    5  A    between atoms: C_12  and  CA_13
REMARK    6  A    between atoms: CA_13  and  N_14
REMARK    7  A    between atoms: N_19  and  CA_22
REMARK    8  A    between atoms: CA_22  and  C_25
REMARK    9  A    between atoms: N_24  and  CA_27
REMARK   10  A    between atoms: CA_27  and  CB_28
REMARK   11  A    between atoms: CA_27  and  C_32
REMARK   12  A    between atoms: CB_33  and  CG_34
REMARK                            x       y       z     vdW  Elec       q    Type
REMARK                         _______ _______ _______ _____ _____    ______ ____
ROOT
ATOM      1  CA  PHE A   3     -34.282  26.405   4.797  0.00  0.00    +0.153 C 
ENDROOT
BRANCH   1   3
ATOM      2  O   PRO A   2     -33.743  27.322   2.096  0.00  0.00    -0.273 OA
ATOM      3  N   PHE A   3     -34.917  27.499   4.098  0.00  0.00    -0.297 N 
ATOM      4  C   PRO A   2     -34.590  27.862   2.803  0.00  0.00    +0.242 C 
ATOM      5  H   PHE A   3     -35.618  28.009   4.565  0.00  0.00    +0.150 HD
BRANCH   4   8
ATOM      6  O   GLY A   1     -33.983  30.615   4.229  0.00  0.00    -0.277 OA
ATOM      7  N   PRO A   2     -34.489  30.118   2.029  0.00  0.00    -0.252 N 
ATOM      8  CA  PRO A   2     -35.419  29.011   2.310  0.00  0.00    +0.160 C 
ATOM      9  CB  PRO A   2     -36.065  28.681   0.959  0.00  0.00    +0.057 C 
ATOM     10  CG  PRO A   2     -35.272  29.526   0.010  0.00  0.00    -0.008 C 
ATOM     11  CD  PRO A   2     -34.424  30.317   0.671  0.00  0.00    +0.063 C 
ATOM     12  C   GLY A   1     -33.873  30.861   3.025  0.00  0.00    +0.208 C 
BRANCH  12  13
ATOM     13  CA  GLY A   1     -33.027  32.025   2.569  0.00  0.00    +0.002 C 
BRANCH  13  14
ATOM     14  N   GLY A   1     -31.744  31.872   3.220  0.00  0.00    +0.386 N 
ATOM     15  H1  GLY A   1     -31.852  32.020   4.223  0.00  0.00    -0.089 HD
ATOM     16  H2  GLY A   1     -31.088  32.555   2.843  0.00  0.00    -0.089 HD
ATOM     17  H3  GLY A   1     -31.389  30.930   3.052  0.00  0.00    -0.089 HD
ENDBRANCH  13  14
ENDBRANCH  12  13
ENDBRANCH   4   8
ENDBRANCH   1   3
BRANCH   1  20
ATOM     18  O   PHE A   3     -32.972  26.504   6.834  0.00  0.00    -0.273 OA
ATOM     19  N   GLY A   4     -32.684  28.163   5.235  0.00  0.00    -0.295 N 
ATOM     20  C   PHE A   3     -33.262  27.013   5.754  0.00  0.00    +0.241 C 
ATOM     21  H   GLY A   4     -32.992  28.486   4.357  0.00  0.00    +0.150 HD
BRANCH  19  22
ATOM     22  CA  GLY A   4     -31.651  28.909   5.916  0.00  0.00    +0.176 C 
BRANCH  22  25
ATOM     23  O   GLY A   4     -29.553  27.746   6.208  0.00  0.00    -0.273 OA
ATOM     24  N   VAL A   5     -29.982  28.825   4.194  0.00  0.00    -0.298 N 
ATOM     25  C   GLY A   4     -30.292  28.406   5.480  0.00  0.00    +0.243 C 
ATOM     26  H   VAL A   5     -30.652  29.350   3.700  0.00  0.00    +0.150 HD
BRANCH  24  27
ATOM     27  CA  VAL A   5     -28.725  28.531   3.544  0.00  0.00    +0.137 C 
BRANCH  27  28
ATOM     28  CB  VAL A   5     -28.804  27.354   2.556  0.00  0.00    +0.026 C 
ATOM     29  CG1 VAL A   5     -27.959  26.171   3.041  0.00  0.00    +0.002 C 
ATOM     30  CG2 VAL A   5     -30.239  26.891   2.285  0.00  0.00    +0.002 C 
ENDBRANCH  27  28
BRANCH  27  32
ATOM     31  O   VAL A   5     -28.996  30.751   2.622  0.00  0.00    -0.286 OA
ATOM     32  C   VAL A   5     -28.250  29.815   2.897  0.00  0.00    +0.227 C 
ENDBRANCH  27  32
ENDBRANCH  24  27
ENDBRANCH  22  25
ENDBRANCH  19  22
ENDBRANCH   1  20
BRANCH   1  33
ATOM     33  CB  PHE A   3     -35.291  25.546   5.569  0.00  0.00    +0.055 C 
BRANCH  33  34
ATOM     34  CG  PHE A   3     -35.315  24.112   5.101  0.00  0.00    -0.020 C 
ATOM     35  CD1 PHE A   3     -35.457  23.825   3.742  0.00  0.00    -0.004 C 
ATOM     36  CD2 PHE A   3     -35.195  23.073   6.024  0.00  0.00    -0.004 C 
ATOM     37  CE1 PHE A   3     -35.480  22.499   3.309  0.00  0.00    -0.000 C 
ATOM     38  CE2 PHE A   3     -35.217  21.748   5.590  0.00  0.00    -0.000 C 
ATOM     39  CZ  PHE A   3     -35.360  21.460   4.233  0.00  0.00    -0.000 C 
ENDBRANCH  33  34
ENDBRANCH   1  33
TORSDOF 12
ENDMDL
MODEL 7
REMARK VINA RESULT:      -5.8      2.787      7.312
REMARK  Name = 194868
REMARK  12 active torsions:
REMARK  status: ('A' for Active; 'I' for Inactive)
REMARK    1  A    between atoms: CA_1  and  N_3
REMARK    2  A    between atoms: CA_1  and  C_20
REMARK    3  A    between atoms: CA_1  and  CB_33
REMARK    4  A    between atoms: C_4  and  CA_8
REMARK    5  A    between atoms: C_12  and  CA_13
REMARK    6  A    between atoms: CA_13  and  N_14
REMARK    7  A    between atoms: N_19  and  CA_22
REMARK    8  A    between atoms: CA_22  and  C_25
REMARK    9  A    between atoms: N_24  and  CA_27
REMARK   10  A    between atoms: CA_27  and  CB_28
REMARK   11  A    between atoms: CA_27  and  C_32
REMARK   12  A    between atoms: CB_33  and  CG_34
REMARK                            x       y       z     vdW  Elec       q    Type
REMARK                         _______ _______ _______ _____ _____    ______ ____
ROOT
ATOM      1  CA  PHE A   3     -35.154  21.746   2.224  0.00  0.00    +0.153 C 
ENDROOT
BRANCH   1   3
ATOM      2  O   PRO A   2     -33.071  20.760   0.460  0.00  0.00    -0.273 OA
ATOM      3  N   PHE A   3     -34.766  20.371   2.006  0.00  0.00    -0.297 N 
ATOM      4  C   PRO A   2     -33.754  19.998   1.138  0.00  0.00    +0.242 C 
ATOM      5  H   PHE A   3     -35.244  19.665   2.499  0.00  0.00    +0.150 HD
BRANCH   4   8
ATOM      6  O   GLY A   1     -36.210  18.337   0.049  0.00  0.00    -0.277 OA
ATOM      7  N   PRO A   2     -33.933  18.040  -0.216  0.00  0.00    -0.252 N 
ATOM      8  CA  PRO A   2     -33.540  18.513   1.122  0.00  0.00    +0.160 C 
ATOM      9  CB  PRO A   2     -32.050  18.173   1.242  0.00  0.00    +0.057 C 
ATOM     10  CG  PRO A   2     -31.714  17.709  -0.142  0.00  0.00    -0.008 C 
ATOM     11  CD  PRO A   2     -32.811  17.641  -0.900  0.00  0.00    +0.063 C 
ATOM     12  C   GLY A   1     -35.254  17.953  -0.631  0.00  0.00    +0.208 C 
BRANCH  12  13
ATOM     13  CA  GLY A   1     -35.493  17.354  -1.996  0.00  0.00    +0.002 C 
BRANCH  13  14
ATOM     14  N   GLY A   1     -36.025  16.029  -1.768  0.00  0.00    +0.386 N 
ATOM     15  H1  GLY A   1     -37.041  16.078  -1.699  0.00  0.00    -0.089 HD
ATOM     16  H2  GLY A   1     -35.642  15.654  -0.900  0.00  0.00    -0.089 HD
ATOM     17  H3  GLY A   1     -35.766  15.421  -2.545  0.00  0.00    -0.089 HD
ENDBRANCH  13  14
ENDBRANCH  12  13
ENDBRANCH   4   8
ENDBRANCH   1   3
BRANCH   1  20
ATOM     18  O   PHE A   3     -36.476  23.009   0.634  0.00  0.00    -0.273 OA
ATOM     19  N   GLY A   4     -37.303  20.987   1.422  0.00  0.00    -0.295 N 
ATOM     20  C   PHE A   3     -36.372  22.015   1.347  0.00  0.00    +0.241 C 
ATOM     21  H   GLY A   4     -37.119  20.234   2.029  0.00  0.00    +0.150 HD
BRANCH  19  22
ATOM     22  CA  GLY A   4     -38.526  20.968   0.653  0.00  0.00    +0.176 C 
BRANCH  22  25
ATOM     23  O   GLY A   4     -40.447  21.124   2.110  0.00  0.00    -0.273 OA
ATOM     24  N   VAL A   5     -39.569  23.064   1.179  0.00  0.00    -0.298 N 
ATOM     25  C   GLY A   4     -39.613  21.697   1.413  0.00  0.00    +0.243 C 
ATOM     26  H   VAL A   5     -38.854  23.416   0.602  0.00  0.00    +0.150 HD
BRANCH  24  27
ATOM     27  CA  VAL A   5     -40.521  23.997   1.738  0.00  0.00    +0.137 C 
BRANCH  27  28
ATOM     28  CB  VAL A   5     -39.975  24.787   2.941  0.00  0.00    +0.026 C 
ATOM     29  CG1 VAL A   5     -38.465  25.008   2.814  0.00  0.00    +0.002 C 
ATOM     30  CG2 VAL A   5     -40.681  26.130   3.148  0.00  0.00    +0.002 C 
ENDBRANCH  27  28
BRANCH  27  32
ATOM     31  O   VAL A   5     -40.541  24.818  -0.538  0.00  0.00    -0.286 OA
ATOM     32  C   VAL A   5     -40.984  24.889   0.605  0.00  0.00    +0.227 C 
ENDBRANCH  27  32
ENDBRANCH  24  27
ENDBRANCH  22  25
ENDBRANCH  19  22
ENDBRANCH   1  20
BRANCH   1  33
ATOM     33  CB  PHE A   3     -35.484  22.029   3.694  0.00  0.00    +0.055 C 
BRANCH  33  34
ATOM     34  CG  PHE A   3     -35.263  23.473   4.074  0.00  0.00    -0.020 C 
ATOM     35  CD1 PHE A   3     -35.853  23.988   5.229  0.00  0.00    -0.004 C 
ATOM     36  CD2 PHE A   3     -34.471  24.293   3.270  0.00  0.00    -0.004 C 
ATOM     37  CE1 PHE A   3     -35.649  25.323   5.580  0.00  0.00    -0.000 C 
ATOM     38  CE2 PHE A   3     -34.267  25.627   3.621  0.00  0.00    -0.000 C 
ATOM     39  CZ  PHE A   3     -34.856  26.143   4.776  0.00  0.00    -0.000 C 
ENDBRANCH  33  34
ENDBRANCH   1  33
TORSDOF 12
ENDMDL
MODEL 8
REMARK VINA RESULT:      -5.8      2.251      5.764
REMARK  Name = 194868
REMARK  12 active torsions:
REMARK  status: ('A' for Active; 'I' for Inactive)
REMARK    1  A    between atoms: CA_1  and  N_3
REMARK    2  A    between atoms: CA_1  and  C_20
REMARK    3  A    between atoms: CA_1  and  CB_33
REMARK    4  A    between atoms: C_4  and  CA_8
REMARK    5  A    between atoms: C_12  and  CA_13
REMARK    6  A    between atoms: CA_13  and  N_14
REMARK    7  A    between atoms: N_19  and  CA_22
REMARK    8  A    between atoms: CA_22  and  C_25
REMARK    9  A    between atoms: N_24  and  CA_27
REMARK   10  A    between atoms: CA_27  and  CB_28
REMARK   11  A    between atoms: CA_27  and  C_32
REMARK   12  A    between atoms: CB_33  and  CG_34
REMARK                            x       y       z     vdW  Elec       q    Type
REMARK                         _______ _______ _______ _____ _____    ______ ____
ROOT
ATOM      1  CA  PHE A   3     -35.121  21.693   0.893  0.00  0.00    +0.153 C 
ENDROOT
BRANCH   1   3
ATOM      2  O   PRO A   2     -36.299  22.455   3.433  0.00  0.00    -0.273 OA
ATOM      3  N   PHE A   3     -34.790  22.843   1.704  0.00  0.00    -0.297 N 
ATOM      4  C   PRO A   2     -35.412  23.123   2.909  0.00  0.00    +0.242 C 
ATOM      5  H   PHE A   3     -34.088  23.455   1.385  0.00  0.00    +0.150 HD
BRANCH   4   8
ATOM      6  O   GLY A   1     -35.295  25.649   1.015  0.00  0.00    -0.277 OA
ATOM      7  N   PRO A   2     -35.802  25.452   3.261  0.00  0.00    -0.252 N 
ATOM      8  CA  PRO A   2     -34.861  24.359   3.557  0.00  0.00    +0.160 C 
ATOM      9  CB  PRO A   2     -34.870  24.228   5.084  0.00  0.00    +0.057 C 
ATOM     10  CG  PRO A   2     -35.983  25.150   5.478  0.00  0.00    -0.008 C 
ATOM     11  CD  PRO A   2     -36.447  25.816   4.418  0.00  0.00    +0.063 C 
ATOM     12  C   GLY A   1     -35.913  26.039   2.009  0.00  0.00    +0.208 C 
BRANCH  12  13
ATOM     13  CA  GLY A   1     -36.854  27.214   1.898  0.00  0.00    +0.002 C 
BRANCH  13  14
ATOM     14  N   GLY A   1     -36.065  28.392   2.180  0.00  0.00    +0.386 N 
ATOM     15  H1  GLY A   1     -36.220  29.088   1.451  0.00  0.00    -0.089 HD
ATOM     16  H2  GLY A   1     -35.077  28.141   2.207  0.00  0.00    -0.089 HD
ATOM     17  H3  GLY A   1     -36.343  28.778   3.082  0.00  0.00    -0.089 HD
ENDBRANCH  13  14
ENDBRANCH  12  13
ENDBRANCH   4   8
ENDBRANCH   1   3
BRANCH   1  20
ATOM     18  O   PHE A   3     -36.645  22.893  -0.561  0.00  0.00    -0.273 OA
ATOM     19  N   GLY A   4     -37.435  21.054   0.617  0.00  0.00    -0.295 N 
ATOM     20  C   PHE A   3     -36.469  21.977   0.238  0.00  0.00    +0.241 C 
ATOM     21  H   GLY A   4     -37.186  20.358   1.267  0.00  0.00    +0.150 HD
BRANCH  19  22
ATOM     22  CA  GLY A   4     -38.785  21.064   0.104  0.00  0.00    +0.176 C 
BRANCH  22  25
ATOM     23  O   GLY A   4     -40.069  21.394   2.125  0.00  0.00    -0.273 OA
ATOM     24  N   VAL A   5     -40.029  23.074   0.519  0.00  0.00    -0.298 N 
ATOM     25  C   GLY A   4     -39.679  21.840   1.048  0.00  0.00    +0.243 C 
ATOM     26  H   VAL A   5     -39.656  23.330  -0.355  0.00  0.00    +0.150 HD
BRANCH  24  27
ATOM     27  CA  VAL A   5     -40.916  24.001   1.186  0.00  0.00    +0.137 C 
BRANCH  27  28
ATOM     28  CB  VAL A   5     -40.201  25.248   1.736  0.00  0.00    +0.026 C 
ATOM     29  CG1 VAL A   5     -41.065  26.501   1.561  0.00  0.00    +0.002 C 
ATOM     30  CG2 VAL A   5     -39.786  25.104   3.204  0.00  0.00    +0.002 C 
ENDBRANCH  27  28
BRANCH  27  32
ATOM     31  O   VAL A   5     -43.041  23.666   0.080  0.00  0.00    -0.286 OA
ATOM     32  C   VAL A   5     -42.021  24.338   0.207  0.00  0.00    +0.227 C 
ENDBRANCH  27  32
ENDBRANCH  24  27
ENDBRANCH  22  25
ENDBRANCH  19  22
ENDBRANCH   1  20
BRANCH   1  33
ATOM     33  CB  PHE A   3     -34.058  21.414  -0.177  0.00  0.00    +0.055 C 
BRANCH  33  34
ATOM     34  CG  PHE A   3     -33.103  20.316   0.224  0.00  0.00    -0.020 C 
ATOM     35  CD1 PHE A   3     -33.529  19.299   1.079  0.00  0.00    -0.004 C 
ATOM     36  CD2 PHE A   3     -31.795  20.318  -0.260  0.00  0.00    -0.004 C 
ATOM     37  CE1 PHE A   3     -32.647  18.284   1.450  0.00  0.00    -0.000 C 
ATOM     38  CE2 PHE A   3     -30.912  19.304   0.111  0.00  0.00    -0.000 C 
ATOM     39  CZ  PHE A   3     -31.338  18.286   0.965  0.00  0.00    -0.000 C 
ENDBRANCH  33  34
ENDBRANCH   1  33
TORSDOF 12
ENDMDL
MODEL 9
REMARK VINA RESULT:      -5.7      3.692      9.310
REMARK  Name = 194868
REMARK  12 active torsions:
REMARK  status: ('A' for Active; 'I' for Inactive)
REMARK    1  A    between atoms: CA_1  and  N_3
REMARK    2  A    between atoms: CA_1  and  C_20
REMARK    3  A    between atoms: CA_1  and  CB_33
REMARK    4  A    between atoms: C_4  and  CA_8
REMARK    5  A    between atoms: C_12  and  CA_13
REMARK    6  A    between atoms: CA_13  and  N_14
REMARK    7  A    between atoms: N_19  and  CA_22
REMARK    8  A    between atoms: CA_22  and  C_25
REMARK    9  A    between atoms: N_24  and  CA_27
REMARK   10  A    between atoms: CA_27  and  CB_28
REMARK   11  A    between atoms: CA_27  and  C_32
REMARK   12  A    between atoms: CB_33  and  CG_34
REMARK                            x       y       z     vdW  Elec       q    Type
REMARK                         _______ _______ _______ _____ _____    ______ ____
ROOT
ATOM      1  CA  PHE A   3     -33.748  27.962   3.390  0.00  0.00    +0.153 C 
ENDROOT
BRANCH   1   3
ATOM      2  O   PRO A   2     -31.278  29.402   2.895  0.00  0.00    -0.273 OA
ATOM      3  N   PHE A   3     -33.015  28.793   4.318  0.00  0.00    -0.297 N 
ATOM      4  C   PRO A   2     -31.839  29.442   3.987  0.00  0.00    +0.242 C 
ATOM      5  H   PHE A   3     -33.370  28.903   5.230  0.00  0.00    +0.150 HD
BRANCH   4   8
ATOM      6  O   GLY A   1     -30.817  27.738   6.443  0.00  0.00    -0.277 OA
ATOM      7  N   PRO A   2     -29.997  29.677   5.487  0.00  0.00    -0.252 N 
ATOM      8  CA  PRO A   2     -31.301  30.258   5.126  0.00  0.00    +0.160 C 
ATOM      9  CB  PRO A   2     -30.988  31.689   4.675  0.00  0.00    +0.057 C 
ATOM     10  CG  PRO A   2     -29.490  31.697   4.649  0.00  0.00    -0.008 C 
ATOM     11  CD  PRO A   2     -29.000  30.552   5.131  0.00  0.00    +0.063 C 
ATOM     12  C   GLY A   1     -29.865  28.470   6.159  0.00  0.00    +0.208 C 
BRANCH  12  13
ATOM     13  CA  GLY A   1     -28.462  28.064   6.543  0.00  0.00    +0.002 C 
BRANCH  13  14
ATOM     14  N   GLY A   1     -28.299  28.439   7.930  0.00  0.00    +0.386 N 
ATOM     15  H1  GLY A   1     -27.548  29.123   8.012  0.00  0.00    -0.089 HD
ATOM     16  H2  GLY A   1     -28.067  27.612   8.481  0.00  0.00    -0.089 HD
ATOM     17  H3  GLY A   1     -29.168  28.846   8.277  0.00  0.00    -0.089 HD
ENDBRANCH  13  14
ENDBRANCH  12  13
ENDBRANCH   4   8
ENDBRANCH   1   3
BRANCH   1  20
ATOM     18  O   PHE A   3     -33.319  25.770   4.329  0.00  0.00    -0.273 OA
ATOM     19  N   GLY A   4     -35.433  26.698   4.574  0.00  0.00    -0.295 N 
ATOM     20  C   PHE A   3     -34.119  26.680   4.128  0.00  0.00    +0.241 C 
ATOM     21  H   GLY A   4     -35.989  27.481   4.355  0.00  0.00    +0.150 HD
BRANCH  19  22
ATOM     22  CA  GLY A   4     -36.024  25.629   5.344  0.00  0.00    +0.176 C 
BRANCH  22  25
ATOM     23  O   GLY A   4     -37.809  24.580   4.096  0.00  0.00    -0.273 OA
ATOM     24  N   VAL A   5     -35.670  23.675   3.996  0.00  0.00    -0.298 N 
ATOM     25  C   GLY A   4     -36.620  24.600   4.406  0.00  0.00    +0.243 C 
ATOM     26  H   VAL A   5     -34.743  23.788   4.306  0.00  0.00    +0.150 HD
BRANCH  24  27
ATOM     27  CA  VAL A   5     -35.974  22.553   3.137  0.00  0.00    +0.137 C 
BRANCH  27  28
ATOM     28  CB  VAL A   5     -35.443  22.715   1.702  0.00  0.00    +0.026 C 
ATOM     29  CG1 VAL A   5     -34.547  23.952   1.583  0.00  0.00    +0.002 C 
ATOM     30  CG2 VAL A   5     -34.693  21.479   1.195  0.00  0.00    +0.002 C 
ENDBRANCH  27  28
BRANCH  27  32
ATOM     31  O   VAL A   5     -35.198  21.258   5.028  0.00  0.00    -0.286 OA
ATOM     32  C   VAL A   5     -35.445  21.312   3.826  0.00  0.00    +0.227 C 
ENDBRANCH  27  32
ENDBRANCH  24  27
ENDBRANCH  22  25
ENDBRANCH  19  22
ENDBRANCH   1  20
BRANCH   1  33
ATOM     33  CB  PHE A   3     -35.011  28.656   2.864  0.00  0.00    +0.055 C 
BRANCH  33  34
ATOM     34  CG  PHE A   3     -34.703  29.913   2.086  0.00  0.00    -0.020 C 
ATOM     35  CD1 PHE A   3     -34.979  31.163   2.643  0.00  0.00    -0.004 C 
ATOM     36  CD2 PHE A   3     -34.145  29.826   0.811  0.00  0.00    -0.004 C 
ATOM     37  CE1 PHE A   3     -34.695  32.324   1.925  0.00  0.00    -0.000 C 
ATOM     38  CE2 PHE A   3     -33.861  30.987   0.093  0.00  0.00    -0.000 C 
ATOM     39  CZ  PHE A   3     -34.136  32.237   0.649  0.00  0.00    -0.000 C 
ENDBRANCH  33  34
ENDBRANCH   1  33
TORSDOF 12
ENDMDL
