MODEL 1
REMARK VINA RESULT:      -6.1      0.000      0.000
REMARK  Name = 5284397
REMARK  6 active torsions:
REMARK  status: ('A' for Active; 'I' for Inactive)
REMARK    1  A    between atoms: C_6  and  C_26
REMARK    2  A    between atoms: C_8  and  O_22
REMARK    3  A    between atoms: C_10  and  O_18
REMARK    4  A    between atoms: C_13  and  O_20
REMARK    5  A    between atoms: O_22  and  C_24
REMARK    6  A    between atoms: C_26  and  O_27
REMARK                            x       y       z     vdW  Elec       q    Type
REMARK                         _______ _______ _______ _____ _____    ______ ____
ROOT
ATOM      1  O   UNL     1     -35.024  23.396   0.591  0.00  0.00    -0.351 OA
ATOM      2  O   UNL     1     -38.668  22.915   0.394  0.00  0.00    -0.349 OA
ATOM      3  O   UNL     1     -40.973  26.872   3.423  0.00  0.00    -0.289 OA
ATOM      4  C   UNL     1     -36.825  24.301   2.085  0.00  0.00    +0.074 C 
ATOM      5  C   UNL     1     -36.427  23.672   0.755  0.00  0.00    +0.151 C 
ATOM      6  C   UNL     1     -38.286  24.908   1.807  0.00  0.00    +0.093 C 
ATOM      7  C   UNL     1     -37.310  22.471   0.617  0.00  0.00    +0.173 C 
ATOM      8  C   UNL     1     -36.882  22.986   2.977  0.00  0.00    +0.200 C 
ATOM      9  C   UNL     1     -35.616  24.288  -0.361  0.00  0.00    +0.172 C 
ATOM     10  C   UNL     1     -37.089  21.802   1.986  0.00  0.00    +0.180 C 
ATOM     11  C   UNL     1     -39.220  23.715   1.454  0.00  0.00    +0.142 C 
ATOM     12  C   UNL     1     -35.837  25.340   2.623  0.00  0.00    +0.006 C 
ATOM     13  C   UNL     1     -38.930  25.689   2.982  0.00  0.00    +0.176 C 
ATOM     14  C   UNL     1     -40.614  24.164   1.135  0.00  0.00    +0.002 C 
ATOM     15  C   UNL     1     -40.412  26.002   2.755  0.00  0.00    +0.196 C 
ATOM     16  C   UNL     1     -41.192  25.216   1.739  0.00  0.00    +0.013 C 
ATOM     17  C   UNL     1     -42.600  25.645   1.468  0.00  0.00    +0.034 C 
ENDROOT
BRANCH  10  18
ATOM     18  O   UNL     1     -38.158  20.952   2.351  0.00  0.00    -0.379 OA
ATOM     19  H   UNL     1     -38.652  21.353   3.085  0.00  0.00    +0.211 HD
ENDBRANCH  10  18
BRANCH  13  20
ATOM     20  O   UNL     1     -38.889  24.967   4.200  0.00  0.00    -0.377 OA
ATOM     21  H   UNL     1     -37.978  24.686   4.380  0.00  0.00    +0.211 HD
ENDBRANCH  13  20
BRANCH   8  22
ATOM     22  O   UNL     1     -35.650  22.753   3.661  0.00  0.00    -0.450 OA
BRANCH  22  24
ATOM     23  O   UNL     1     -36.194  23.761   5.667  0.00  0.00    -0.250 OA
ATOM     24  C   UNL     1     -35.705  22.843   5.021  0.00  0.00    +0.318 C 
ATOM     25  C   UNL     1     -35.067  21.634   5.633  0.00  0.00    +0.121 C 
ENDBRANCH  22  24
ENDBRANCH   8  22
BRANCH   6  26
ATOM     26  C   UNL     1     -38.221  25.913   0.601  0.00  0.00    +0.143 C 
BRANCH  26  27
ATOM     27  O   UNL     1     -38.091  27.197   1.150  0.00  0.00    -0.382 OA
ATOM     28  H   UNL     1     -38.524  27.842   0.569  0.00  0.00    +0.210 HD
ENDBRANCH  26  27
ENDBRANCH   6  26
TORSDOF 6
ENDMDL
MODEL 2
REMARK VINA RESULT:      -6.0      1.507      5.366
REMARK  Name = 5284397
REMARK  6 active torsions:
REMARK  status: ('A' for Active; 'I' for Inactive)
REMARK    1  A    between atoms: C_6  and  C_26
REMARK    2  A    between atoms: C_8  and  O_22
REMARK    3  A    between atoms: C_10  and  O_18
REMARK    4  A    between atoms: C_13  and  O_20
REMARK    5  A    between atoms: O_22  and  C_24
REMARK    6  A    between atoms: C_26  and  O_27
REMARK                            x       y       z     vdW  Elec       q    Type
REMARK                         _______ _______ _______ _____ _____    ______ ____
ROOT
ATOM      1  O   UNL     1     -37.504  26.748   0.372  0.00  0.00    -0.351 OA
ATOM      2  O   UNL     1     -37.034  25.685   3.864  0.00  0.00    -0.349 OA
ATOM      3  O   UNL     1     -35.265  20.488   3.732  0.00  0.00    -0.289 OA
ATOM      4  C   UNL     1     -37.317  24.428   1.311  0.00  0.00    +0.074 C 
ATOM      5  C   UNL     1     -37.104  25.928   1.484  0.00  0.00    +0.151 C 
ATOM      6  C   UNL     1     -36.386  23.769   2.441  0.00  0.00    +0.093 C 
ATOM      7  C   UNL     1     -37.785  26.268   2.775  0.00  0.00    +0.173 C 
ATOM      8  C   UNL     1     -38.861  24.350   1.684  0.00  0.00    +0.200 C 
ATOM      9  C   UNL     1     -36.126  26.820   0.757  0.00  0.00    +0.172 C 
ATOM     10  C   UNL     1     -39.160  25.615   2.545  0.00  0.00    +0.180 C 
ATOM     11  C   UNL     1     -36.923  24.252   3.818  0.00  0.00    +0.142 C 
ATOM     12  C   UNL     1     -37.020  23.899  -0.095  0.00  0.00    +0.006 C 
ATOM     13  C   UNL     1     -36.340  22.219   2.460  0.00  0.00    +0.176 C 
ATOM     14  C   UNL     1     -36.104  23.727   4.959  0.00  0.00    +0.002 C 
ATOM     15  C   UNL     1     -35.663  21.654   3.713  0.00  0.00    +0.196 C 
ATOM     16  C   UNL     1     -35.523  22.516   4.936  0.00  0.00    +0.013 C 
ATOM     17  C   UNL     1     -34.745  21.959   6.087  0.00  0.00    +0.034 C 
ENDROOT
BRANCH  10  18
ATOM     18  O   UNL     1     -39.826  25.317   3.756  0.00  0.00    -0.379 OA
ATOM     19  H   UNL     1     -40.141  26.141   4.161  0.00  0.00    +0.211 HD
ENDBRANCH  10  18
BRANCH  13  20
ATOM     20  O   UNL     1     -37.631  21.637   2.445  0.00  0.00    -0.377 OA
ATOM     21  H   UNL     1     -38.211  22.150   1.859  0.00  0.00    +0.211 HD
ENDBRANCH  13  20
BRANCH   8  22
ATOM     22  O   UNL     1     -39.693  24.421   0.527  0.00  0.00    -0.450 OA
BRANCH  22  24
ATOM     23  O   UNL     1     -41.931  23.913   0.796  0.00  0.00    -0.250 OA
ATOM     24  C   UNL     1     -40.779  23.595   0.530  0.00  0.00    +0.318 C 
ATOM     25  C   UNL     1     -40.358  22.208   0.153  0.00  0.00    +0.121 C 
ENDBRANCH  22  24
ENDBRANCH   8  22
BRANCH   6  26
ATOM     26  C   UNL     1     -34.901  24.246   2.248  0.00  0.00    +0.143 C 
BRANCH  26  27
ATOM     27  O   UNL     1     -34.302  23.353   1.348  0.00  0.00    -0.382 OA
ATOM     28  H   UNL     1     -34.099  23.815   0.520  0.00  0.00    +0.210 HD
ENDBRANCH  26  27
ENDBRANCH   6  26
TORSDOF 6
ENDMDL
MODEL 3
REMARK VINA RESULT:      -5.8      3.564      6.329
REMARK  Name = 5284397
REMARK  6 active torsions:
REMARK  status: ('A' for Active; 'I' for Inactive)
REMARK    1  A    between atoms: C_6  and  C_26
REMARK    2  A    between atoms: C_8  and  O_22
REMARK    3  A    between atoms: C_10  and  O_18
REMARK    4  A    between atoms: C_13  and  O_20
REMARK    5  A    between atoms: O_22  and  C_24
REMARK    6  A    between atoms: C_26  and  O_27
REMARK                            x       y       z     vdW  Elec       q    Type
REMARK                         _______ _______ _______ _____ _____    ______ ____
ROOT
ATOM      1  O   UNL     1     -32.408  27.928   0.520  0.00  0.00    -0.351 OA
ATOM      2  O   UNL     1     -32.490  26.078   3.701  0.00  0.00    -0.349 OA
ATOM      3  O   UNL     1     -37.488  23.842   4.125  0.00  0.00    -0.289 OA
ATOM      4  C   UNL     1     -34.388  27.118   1.832  0.00  0.00    +0.074 C 
ATOM      5  C   UNL     1     -32.891  27.047   1.550  0.00  0.00    +0.151 C 
ATOM      6  C   UNL     1     -34.699  25.762   2.634  0.00  0.00    +0.093 C 
ATOM      7  C   UNL     1     -32.238  27.243   2.883  0.00  0.00    +0.173 C 
ATOM      8  C   UNL     1     -34.403  28.394   2.781  0.00  0.00    +0.200 C 
ATOM      9  C   UNL     1     -32.201  26.525   0.312  0.00  0.00    +0.172 C 
ATOM     10  C   UNL     1     -32.964  28.514   3.365  0.00  0.00    +0.180 C 
ATOM     11  C   UNL     1     -33.880  25.813   3.956  0.00  0.00    +0.142 C 
ATOM     12  C   UNL     1     -35.265  27.294   0.589  0.00  0.00    +0.006 C 
ATOM     13  C   UNL     1     -36.186  25.518   2.999  0.00  0.00    +0.176 C 
ATOM     14  C   UNL     1     -34.062  24.573   4.779  0.00  0.00    +0.002 C 
ATOM     15  C   UNL     1     -36.379  24.363   3.987  0.00  0.00    +0.196 C 
ATOM     16  C   UNL     1     -35.220  23.893   4.819  0.00  0.00    +0.013 C 
ATOM     17  C   UNL     1     -35.431  22.684   5.675  0.00  0.00    +0.034 C 
ENDROOT
BRANCH  10  18
ATOM     18  O   UNL     1     -32.945  28.645   4.773  0.00  0.00    -0.379 OA
ATOM     19  H   UNL     1     -33.817  28.941   5.081  0.00  0.00    +0.211 HD
ENDBRANCH  10  18
BRANCH  13  20
ATOM     20  O   UNL     1     -36.783  26.640   3.623  0.00  0.00    -0.377 OA
ATOM     21  H   UNL     1     -36.159  27.030   4.256  0.00  0.00    +0.211 HD
ENDBRANCH  13  20
BRANCH   8  22
ATOM     22  O   UNL     1     -34.664  29.596   2.055  0.00  0.00    -0.450 OA
BRANCH  22  24
ATOM     23  O   UNL     1     -35.159  30.874   3.915  0.00  0.00    -0.250 OA
ATOM     24  C   UNL     1     -35.333  30.566   2.742  0.00  0.00    +0.318 C 
ATOM     25  C   UNL     1     -36.335  31.222   1.843  0.00  0.00    +0.121 C 
ENDBRANCH  22  24
ENDBRANCH   8  22
BRANCH   6  26
ATOM     26  C   UNL     1     -34.253  24.525   1.774  0.00  0.00    +0.143 C 
BRANCH  26  27
ATOM     27  O   UNL     1     -35.368  24.132   1.021  0.00  0.00    -0.382 OA
ATOM     28  H   UNL     1     -36.096  24.755   1.171  0.00  0.00    +0.210 HD
ENDBRANCH  26  27
ENDBRANCH   6  26
TORSDOF 6
ENDMDL
MODEL 4
REMARK VINA RESULT:      -5.6      2.550      4.978
REMARK  Name = 5284397
REMARK  6 active torsions:
REMARK  status: ('A' for Active; 'I' for Inactive)
REMARK    1  A    between atoms: C_6  and  C_26
REMARK    2  A    between atoms: C_8  and  O_22
REMARK    3  A    between atoms: C_10  and  O_18
REMARK    4  A    between atoms: C_13  and  O_20
REMARK    5  A    between atoms: O_22  and  C_24
REMARK    6  A    between atoms: C_26  and  O_27
REMARK                            x       y       z     vdW  Elec       q    Type
REMARK                         _______ _______ _______ _____ _____    ______ ____
ROOT
ATOM      1  O   UNL     1     -37.199  23.333   0.697  0.00  0.00    -0.351 OA
ATOM      2  O   UNL     1     -36.861  26.641   2.273  0.00  0.00    -0.349 OA
ATOM      3  O   UNL     1     -31.552  27.289   3.520  0.00  0.00    -0.289 OA
ATOM      4  C   UNL     1     -35.330  24.232   2.111  0.00  0.00    +0.074 C 
ATOM      5  C   UNL     1     -36.563  24.498   1.254  0.00  0.00    +0.151 C 
ATOM      6  C   UNL     1     -34.594  25.657   2.188  0.00  0.00    +0.093 C 
ATOM      7  C   UNL     1     -37.458  25.335   2.114  0.00  0.00    +0.173 C 
ATOM      8  C   UNL     1     -36.052  23.855   3.477  0.00  0.00    +0.200 C 
ATOM      9  C   UNL     1     -36.719  24.308  -0.237  0.00  0.00    +0.172 C 
ATOM     10  C   UNL     1     -37.471  24.493   3.404  0.00  0.00    +0.180 C 
ATOM     11  C   UNL     1     -35.567  26.639   2.901  0.00  0.00    +0.142 C 
ATOM     12  C   UNL     1     -34.421  23.114   1.593  0.00  0.00    +0.006 C 
ATOM     13  C   UNL     1     -33.244  25.681   2.950  0.00  0.00    +0.176 C 
ATOM     14  C   UNL     1     -35.000  28.023   2.999  0.00  0.00    +0.002 C 
ATOM     15  C   UNL     1     -32.733  27.099   3.222  0.00  0.00    +0.196 C 
ATOM     16  C   UNL     1     -33.688  28.258   3.164  0.00  0.00    +0.013 C 
ATOM     17  C   UNL     1     -33.114  29.632   3.314  0.00  0.00    +0.034 C 
ENDROOT
BRANCH  10  18
ATOM     18  O   UNL     1     -37.794  25.261   4.547  0.00  0.00    -0.379 OA
ATOM     19  H   UNL     1     -38.725  25.532   4.501  0.00  0.00    +0.211 HD
ENDBRANCH  10  18
BRANCH  13  20
ATOM     20  O   UNL     1     -33.329  25.070   4.225  0.00  0.00    -0.377 OA
ATOM     21  H   UNL     1     -32.466  25.119   4.666  0.00  0.00    +0.211 HD
ENDBRANCH  13  20
BRANCH   8  22
ATOM     22  O   UNL     1     -36.231  22.445   3.613  0.00  0.00    -0.450 OA
BRANCH  22  24
ATOM     23  O   UNL     1     -35.086  20.727   4.651  0.00  0.00    -0.250 OA
ATOM     24  C   UNL     1     -35.548  21.861   4.640  0.00  0.00    +0.318 C 
ATOM     25  C   UNL     1     -35.438  22.822   5.784  0.00  0.00    +0.121 C 
ENDBRANCH  22  24
ENDBRANCH   8  22
BRANCH   6  26
ATOM     26  C   UNL     1     -34.283  26.171   0.736  0.00  0.00    +0.143 C 
BRANCH  26  27
ATOM     27  O   UNL     1     -33.001  25.709   0.408  0.00  0.00    -0.382 OA
ATOM     28  H   UNL     1     -32.666  26.199  -0.359  0.00  0.00    +0.210 HD
ENDBRANCH  26  27
ENDBRANCH   6  26
TORSDOF 6
ENDMDL
MODEL 5
REMARK VINA RESULT:      -5.6      2.198      3.810
REMARK  Name = 5284397
REMARK  6 active torsions:
REMARK  status: ('A' for Active; 'I' for Inactive)
REMARK    1  A    between atoms: C_6  and  C_26
REMARK    2  A    between atoms: C_8  and  O_22
REMARK    3  A    between atoms: C_10  and  O_18
REMARK    4  A    between atoms: C_13  and  O_20
REMARK    5  A    between atoms: O_22  and  C_24
REMARK    6  A    between atoms: C_26  and  O_27
REMARK                            x       y       z     vdW  Elec       q    Type
REMARK                         _______ _______ _______ _____ _____    ______ ____
ROOT
ATOM      1  O   UNL     1     -34.559  23.666   3.033  0.00  0.00    -0.351 OA
ATOM      2  O   UNL     1     -37.973  24.505   4.122  0.00  0.00    -0.349 OA
ATOM      3  O   UNL     1     -40.381  27.149  -0.044  0.00  0.00    -0.289 OA
ATOM      4  C   UNL     1     -36.156  25.352   2.083  0.00  0.00    +0.074 C 
ATOM      5  C   UNL     1     -35.921  24.122   2.952  0.00  0.00    +0.151 C 
ATOM      6  C   UNL     1     -37.738  25.338   1.806  0.00  0.00    +0.093 C 
ATOM      7  C   UNL     1     -36.536  24.460   4.275  0.00  0.00    +0.173 C 
ATOM      8  C   UNL     1     -35.741  26.478   3.127  0.00  0.00    +0.200 C 
ATOM      9  C   UNL     1     -35.515  22.735   2.511  0.00  0.00    +0.172 C 
ATOM     10  C   UNL     1     -35.893  25.834   4.538  0.00  0.00    +0.180 C 
ATOM     11  C   UNL     1     -38.447  25.484   3.182  0.00  0.00    +0.142 C 
ATOM     12  C   UNL     1     -35.323  25.397   0.800  0.00  0.00    +0.006 C 
ATOM     13  C   UNL     1     -38.271  26.454   0.871  0.00  0.00    +0.176 C 
ATOM     14  C   UNL     1     -39.941  25.446   3.055  0.00  0.00    +0.002 C 
ATOM     15  C   UNL     1     -39.800  26.552   0.863  0.00  0.00    +0.196 C 
ATOM     16  C   UNL     1     -40.589  25.951   1.992  0.00  0.00    +0.013 C 
ATOM     17  C   UNL     1     -42.081  25.965   1.874  0.00  0.00    +0.034 C 
ENDROOT
BRANCH  10  18
ATOM     18  O   UNL     1     -36.654  26.625   5.429  0.00  0.00    -0.379 OA
ATOM     19  H   UNL     1     -37.572  26.309   5.437  0.00  0.00    +0.211 HD
ENDBRANCH  10  18
BRANCH  13  20
ATOM     20  O   UNL     1     -37.821  27.742   1.250  0.00  0.00    -0.377 OA
ATOM     21  H   UNL     1     -37.663  27.761   2.208  0.00  0.00    +0.211 HD
ENDBRANCH  13  20
BRANCH   8  22
ATOM     22  O   UNL     1     -34.372  26.858   2.984  0.00  0.00    -0.450 OA
BRANCH  22  24
ATOM     23  O   UNL     1     -33.309  28.425   4.308  0.00  0.00    -0.250 OA
ATOM     24  C   UNL     1     -34.065  28.123   3.394  0.00  0.00    +0.318 C 
ATOM     25  C   UNL     1     -34.801  29.119   2.551  0.00  0.00    +0.121 C 
ENDBRANCH  22  24
ENDBRANCH   8  22
BRANCH   6  26
ATOM     26  C   UNL     1     -38.145  23.976   1.136  0.00  0.00    +0.143 C 
BRANCH  26  27
ATOM     27  O   UNL     1     -38.053  24.164  -0.251  0.00  0.00    -0.382 OA
ATOM     28  H   UNL     1     -38.424  25.029  -0.486  0.00  0.00    +0.210 HD
ENDBRANCH  26  27
ENDBRANCH   6  26
TORSDOF 6
ENDMDL
MODEL 6
REMARK VINA RESULT:      -5.5      2.468      5.491
REMARK  Name = 5284397
REMARK  6 active torsions:
REMARK  status: ('A' for Active; 'I' for Inactive)
REMARK    1  A    between atoms: C_6  and  C_26
REMARK    2  A    between atoms: C_8  and  O_22
REMARK    3  A    between atoms: C_10  and  O_18
REMARK    4  A    between atoms: C_13  and  O_20
REMARK    5  A    between atoms: O_22  and  C_24
REMARK    6  A    between atoms: C_26  and  O_27
REMARK                            x       y       z     vdW  Elec       q    Type
REMARK                         _______ _______ _______ _____ _____    ______ ____
ROOT
ATOM      1  O   UNL     1     -36.287  22.911   5.240  0.00  0.00    -0.351 OA
ATOM      2  O   UNL     1     -34.286  23.818   2.288  0.00  0.00    -0.349 OA
ATOM      3  O   UNL     1     -33.728  29.280   2.345  0.00  0.00    -0.289 OA
ATOM      4  C   UNL     1     -36.037  25.142   4.119  0.00  0.00    +0.074 C 
ATOM      5  C   UNL     1     -35.519  23.725   4.336  0.00  0.00    +0.151 C 
ATOM      6  C   UNL     1     -34.785  25.923   3.485  0.00  0.00    +0.093 C 
ATOM      7  C   UNL     1     -35.378  23.151   2.960  0.00  0.00    +0.173 C 
ATOM      8  C   UNL     1     -37.162  24.834   3.038  0.00  0.00    +0.200 C 
ATOM      9  C   UNL     1     -34.916  23.136   5.590  0.00  0.00    +0.172 C 
ATOM     10  C   UNL     1     -36.765  23.480   2.377  0.00  0.00    +0.180 C 
ATOM     11  C   UNL     1     -34.455  25.237   2.129  0.00  0.00    +0.142 C 
ATOM     12  C   UNL     1     -36.592  25.819   5.375  0.00  0.00    +0.006 C 
ATOM     13  C   UNL     1     -34.995  27.436   3.219  0.00  0.00    +0.176 C 
ATOM     14  C   UNL     1     -33.269  25.860   1.455  0.00  0.00    +0.002 C 
ATOM     15  C   UNL     1     -33.879  28.057   2.373  0.00  0.00    +0.196 C 
ATOM     16  C   UNL     1     -32.993  27.172   1.544  0.00  0.00    +0.013 C 
ATOM     17  C   UNL     1     -31.843  27.816   0.836  0.00  0.00    +0.034 C 
ENDROOT
BRANCH  10  18
ATOM     18  O   UNL     1     -36.758  23.532   0.965  0.00  0.00    -0.379 OA
ATOM     19  H   UNL     1     -37.379  24.215   0.664  0.00  0.00    +0.211 HD
ENDBRANCH  10  18
BRANCH  13  20
ATOM     20  O   UNL     1     -36.189  27.701   2.505  0.00  0.00    -0.377 OA
ATOM     21  H   UNL     1     -35.976  27.908   1.581  0.00  0.00    +0.211 HD
ENDBRANCH  13  20
BRANCH   8  22
ATOM     22  O   UNL     1     -38.444  24.649   3.640  0.00  0.00    -0.450 OA
BRANCH  22  24
ATOM     23  O   UNL     1     -39.760  26.455   3.056  0.00  0.00    -0.250 OA
ATOM     24  C   UNL     1     -39.485  25.263   3.009  0.00  0.00    +0.318 C 
ATOM     25  C   UNL     1     -40.268  24.252   2.228  0.00  0.00    +0.121 C 
ENDBRANCH  22  24
ENDBRANCH   8  22
BRANCH   6  26
ATOM     26  C   UNL     1     -33.551  25.818   4.453  0.00  0.00    +0.143 C 
BRANCH  26  27
ATOM     27  O   UNL     1     -33.629  26.911   5.328  0.00  0.00    -0.382 OA
ATOM     28  H   UNL     1     -34.470  26.880   5.811  0.00  0.00    +0.210 HD
ENDBRANCH  26  27
ENDBRANCH   6  26
TORSDOF 6
ENDMDL
MODEL 7
REMARK VINA RESULT:      -5.4      1.818      2.198
REMARK  Name = 5284397
REMARK  6 active torsions:
REMARK  status: ('A' for Active; 'I' for Inactive)
REMARK    1  A    between atoms: C_6  and  C_26
REMARK    2  A    between atoms: C_8  and  O_22
REMARK    3  A    between atoms: C_10  and  O_18
REMARK    4  A    between atoms: C_13  and  O_20
REMARK    5  A    between atoms: O_22  and  C_24
REMARK    6  A    between atoms: C_26  and  O_27
REMARK                            x       y       z     vdW  Elec       q    Type
REMARK                         _______ _______ _______ _____ _____    ______ ____
ROOT
ATOM      1  O   UNL     1     -34.021  22.933   1.286  0.00  0.00    -0.351 OA
ATOM      2  O   UNL     1     -37.557  22.377   2.144  0.00  0.00    -0.349 OA
ATOM      3  O   UNL     1     -40.131  27.188   1.532  0.00  0.00    -0.289 OA
ATOM      4  C   UNL     1     -35.791  24.610   1.880  0.00  0.00    +0.074 C 
ATOM      5  C   UNL     1     -35.428  23.200   1.426  0.00  0.00    +0.151 C 
ATOM      6  C   UNL     1     -37.345  24.754   1.499  0.00  0.00    +0.093 C 
ATOM      7  C   UNL     1     -36.134  22.293   2.386  0.00  0.00    +0.173 C 
ATOM      8  C   UNL     1     -35.571  24.434   3.445  0.00  0.00    +0.200 C 
ATOM      9  C   UNL     1     -34.823  22.773   0.110  0.00  0.00    +0.172 C 
ATOM     10  C   UNL     1     -35.691  22.906   3.727  0.00  0.00    +0.180 C 
ATOM     11  C   UNL     1     -38.120  23.687   2.323  0.00  0.00    +0.142 C 
ATOM     12  C   UNL     1     -34.921  25.718   1.280  0.00  0.00    +0.006 C 
ATOM     13  C   UNL     1     -37.985  26.138   1.782  0.00  0.00    +0.176 C 
ATOM     14  C   UNL     1     -39.589  23.700   2.022  0.00  0.00    +0.002 C 
ATOM     15  C   UNL     1     -39.511  26.130   1.656  0.00  0.00    +0.196 C 
ATOM     16  C   UNL     1     -40.257  24.827   1.725  0.00  0.00    +0.013 C 
ATOM     17  C   UNL     1     -41.732  24.863   1.472  0.00  0.00    +0.034 C 
ENDROOT
BRANCH  10  18
ATOM     18  O   UNL     1     -36.585  22.605   4.780  0.00  0.00    -0.379 OA
ATOM     19  H   UNL     1     -36.195  22.883   5.625  0.00  0.00    +0.211 HD
ENDBRANCH  10  18
BRANCH  13  20
ATOM     20  O   UNL     1     -37.726  26.598   3.096  0.00  0.00    -0.377 OA
ATOM     21  H   UNL     1     -36.901  26.203   3.421  0.00  0.00    +0.211 HD
ENDBRANCH  13  20
BRANCH   8  22
ATOM     22  O   UNL     1     -34.260  24.834   3.847  0.00  0.00    -0.450 OA
BRANCH  22  24
ATOM     23  O   UNL     1     -33.199  26.197   5.381  0.00  0.00    -0.250 OA
ATOM     24  C   UNL     1     -34.204  25.663   4.929  0.00  0.00    +0.318 C 
ATOM     25  C   UNL     1     -35.575  25.834   5.506  0.00  0.00    +0.121 C 
ENDBRANCH  22  24
ENDBRANCH   8  22
BRANCH   6  26
ATOM     26  C   UNL     1     -37.539  24.491  -0.038  0.00  0.00    +0.143 C 
BRANCH  26  27
ATOM     27  O   UNL     1     -37.435  25.734  -0.679  0.00  0.00    -0.382 OA
ATOM     28  H   UNL     1     -37.932  26.399  -0.177  0.00  0.00    +0.210 HD
ENDBRANCH  26  27
ENDBRANCH   6  26
TORSDOF 6
ENDMDL
MODEL 8
REMARK VINA RESULT:      -5.4      2.658      5.345
REMARK  Name = 5284397
REMARK  6 active torsions:
REMARK  status: ('A' for Active; 'I' for Inactive)
REMARK    1  A    between atoms: C_6  and  C_26
REMARK    2  A    between atoms: C_8  and  O_22
REMARK    3  A    between atoms: C_10  and  O_18
REMARK    4  A    between atoms: C_13  and  O_20
REMARK    5  A    between atoms: O_22  and  C_24
REMARK    6  A    between atoms: C_26  and  O_27
REMARK                            x       y       z     vdW  Elec       q    Type
REMARK                         _______ _______ _______ _____ _____    ______ ____
ROOT
ATOM      1  O   UNL     1     -36.455  27.691   2.120  0.00  0.00    -0.351 OA
ATOM      2  O   UNL     1     -34.814  24.752   0.634  0.00  0.00    -0.349 OA
ATOM      3  O   UNL     1     -35.420  20.610   4.188  0.00  0.00    -0.289 OA
ATOM      4  C   UNL     1     -35.700  25.569   3.227  0.00  0.00    +0.074 C 
ATOM      5  C   UNL     1     -36.054  26.320   1.948  0.00  0.00    +0.151 C 
ATOM      6  C   UNL     1     -35.758  24.022   2.800  0.00  0.00    +0.093 C 
ATOM      7  C   UNL     1     -34.869  26.135   1.051  0.00  0.00    +0.173 C 
ATOM      8  C   UNL     1     -34.206  26.084   3.413  0.00  0.00    +0.200 C 
ATOM      9  C   UNL     1     -37.410  26.817   1.506  0.00  0.00    +0.172 C 
ATOM     10  C   UNL     1     -33.731  26.546   2.003  0.00  0.00    +0.180 C 
ATOM     11  C   UNL     1     -34.673  23.806   1.708  0.00  0.00    +0.142 C 
ATOM     12  C   UNL     1     -36.592  25.895   4.427  0.00  0.00    +0.006 C 
ATOM     13  C   UNL     1     -35.508  22.997   3.936  0.00  0.00    +0.176 C 
ATOM     14  C   UNL     1     -34.657  22.395   1.200  0.00  0.00    +0.002 C 
ATOM     15  C   UNL     1     -35.308  21.568   3.421  0.00  0.00    +0.196 C 
ATOM     16  C   UNL     1     -34.934  21.340   1.984  0.00  0.00    +0.013 C 
ATOM     17  C   UNL     1     -34.873  19.924   1.503  0.00  0.00    +0.034 C 
ENDROOT
BRANCH  10  18
ATOM     18  O   UNL     1     -32.486  25.991   1.628  0.00  0.00    -0.379 OA
ATOM     19  H   UNL     1     -32.345  25.160   2.109  0.00  0.00    +0.211 HD
ENDBRANCH  10  18
BRANCH  13  20
ATOM     20  O   UNL     1     -34.340  23.287   4.681  0.00  0.00    -0.377 OA
ATOM     21  H   UNL     1     -34.004  22.472   5.088  0.00  0.00    +0.211 HD
ENDBRANCH  13  20
BRANCH   8  22
ATOM     22  O   UNL     1     -34.138  27.221   4.274  0.00  0.00    -0.450 OA
BRANCH  22  24
ATOM     23  O   UNL     1     -31.969  27.739   4.877  0.00  0.00    -0.250 OA
ATOM     24  C   UNL     1     -33.068  27.257   5.120  0.00  0.00    +0.318 C 
ATOM     25  C   UNL     1     -33.430  26.608   6.420  0.00  0.00    +0.121 C 
ENDBRANCH  22  24
ENDBRANCH   8  22
BRANCH   6  26
ATOM     26  C   UNL     1     -37.179  23.688   2.217  0.00  0.00    +0.143 C 
BRANCH  26  27
ATOM     27  O   UNL     1     -37.974  23.277   3.297  0.00  0.00    -0.382 OA
ATOM     28  H   UNL     1     -37.581  23.591   4.126  0.00  0.00    +0.210 HD
ENDBRANCH  26  27
ENDBRANCH   6  26
TORSDOF 6
ENDMDL
MODEL 9
REMARK VINA RESULT:      -5.3      1.892      2.385
REMARK  Name = 5284397
REMARK  6 active torsions:
REMARK  status: ('A' for Active; 'I' for Inactive)
REMARK    1  A    between atoms: C_6  and  C_26
REMARK    2  A    between atoms: C_8  and  O_22
REMARK    3  A    between atoms: C_10  and  O_18
REMARK    4  A    between atoms: C_13  and  O_20
REMARK    5  A    between atoms: O_22  and  C_24
REMARK    6  A    between atoms: C_26  and  O_27
REMARK                            x       y       z     vdW  Elec       q    Type
REMARK                         _______ _______ _______ _____ _____    ______ ____
ROOT
ATOM      1  O   UNL     1     -34.000  22.549   0.750  0.00  0.00    -0.351 OA
ATOM      2  O   UNL     1     -37.081  20.647   0.093  0.00  0.00    -0.349 OA
ATOM      3  O   UNL     1     -41.293  24.034   1.062  0.00  0.00    -0.289 OA
ATOM      4  C   UNL     1     -36.350  23.038   1.481  0.00  0.00    +0.074 C 
ATOM      5  C   UNL     1     -35.401  22.287   0.554  0.00  0.00    +0.151 C 
ATOM      6  C   UNL     1     -37.777  22.927   0.752  0.00  0.00    +0.093 C 
ATOM      7  C   UNL     1     -35.782  20.846   0.696  0.00  0.00    +0.173 C 
ATOM      8  C   UNL     1     -36.254  22.092   2.757  0.00  0.00    +0.200 C 
ATOM      9  C   UNL     1     -34.532  22.853  -0.545  0.00  0.00    +0.172 C 
ATOM     10  C   UNL     1     -35.778  20.705   2.229  0.00  0.00    +0.180 C 
ATOM     11  C   UNL     1     -38.142  21.416   0.684  0.00  0.00    +0.142 C 
ATOM     12  C   UNL     1     -35.941  24.482   1.783  0.00  0.00    +0.006 C 
ATOM     13  C   UNL     1     -38.949  23.674   1.440  0.00  0.00    +0.176 C 
ATOM     14  C   UNL     1     -39.447  21.182  -0.015  0.00  0.00    +0.002 C 
ATOM     15  C   UNL     1     -40.317  23.310   0.856  0.00  0.00    +0.196 C 
ATOM     16  C   UNL     1     -40.476  22.043   0.065  0.00  0.00    +0.013 C 
ATOM     17  C   UNL     1     -41.801  21.798  -0.587  0.00  0.00    +0.034 C 
ENDROOT
BRANCH  10  18
ATOM     18  O   UNL     1     -36.586  19.634   2.676  0.00  0.00    -0.379 OA
ATOM     19  H   UNL     1     -37.509  19.802   2.428  0.00  0.00    +0.211 HD
ENDBRANCH  10  18
BRANCH  13  20
ATOM     20  O   UNL     1     -39.046  23.376   2.821  0.00  0.00    -0.377 OA
ATOM     21  H   UNL     1     -39.917  22.991   3.009  0.00  0.00    +0.211 HD
ENDBRANCH  13  20
BRANCH   8  22
ATOM     22  O   UNL     1     -35.271  22.549   3.686  0.00  0.00    -0.450 OA
BRANCH  22  24
ATOM     23  O   UNL     1     -36.447  23.757   5.265  0.00  0.00    -0.250 OA
ATOM     24  C   UNL     1     -35.728  22.820   4.942  0.00  0.00    +0.318 C 
ATOM     25  C   UNL     1     -35.217  21.788   5.899  0.00  0.00    +0.121 C 
ENDBRANCH  22  24
ENDBRANCH   8  22
BRANCH   6  26
ATOM     26  C   UNL     1     -37.676  23.519  -0.700  0.00  0.00    +0.143 C 
BRANCH  26  27
ATOM     27  O   UNL     1     -38.010  24.878  -0.608  0.00  0.00    -0.382 OA
ATOM     28  H   UNL     1     -37.200  25.410  -0.593  0.00  0.00    +0.210 HD
ENDBRANCH  26  27
ENDBRANCH   6  26
TORSDOF 6
ENDMDL
