MODEL 1
REMARK VINA RESULT:      -5.5      0.000      0.000
REMARK  Name = 191599
REMARK  5 active torsions:
REMARK  status: ('A' for Active; 'I' for Inactive)
REMARK    1  A    between atoms: C_2  and  C_18
REMARK    2  A    between atoms: C_3  and  O_16
REMARK    3  A    between atoms: C_5  and  N_7
REMARK    4  A    between atoms: C_18  and  C_19
REMARK    5  A    between atoms: C_19  and  O_20
REMARK                            x       y       z     vdW  Elec       q    Type
REMARK                         _______ _______ _______ _____ _____    ______ ____
ROOT
ATOM      1  O   UNL     1     -36.596  24.217   4.691  0.00  0.00    -0.337 OA
ATOM      2  C   UNL     1     -36.695  25.635   4.461  0.00  0.00    +0.146 C 
ATOM      3  C   UNL     1     -35.267  26.153   4.366  0.00  0.00    +0.142 C 
ATOM      4  C   UNL     1     -34.508  24.964   3.825  0.00  0.00    +0.084 C 
ATOM      5  C   UNL     1     -35.248  23.791   4.446  0.00  0.00    +0.209 C 
ENDROOT
BRANCH   5   7
ATOM      6  O   UNL     1     -35.200  21.124   5.347  0.00  0.00    -0.193 OA
ATOM      7  N   UNL     1     -35.263  22.632   3.602  0.00  0.00    -0.180 N 
ATOM      8  N   UNL     1     -35.253  20.247   3.255  0.00  0.00    -0.306 NA
ATOM      9  N   UNL     1     -35.305  19.353   1.109  0.00  0.00    -0.332 N 
ATOM     10  C   UNL     1     -35.302  22.813   2.228  0.00  0.00    +0.083 C 
ATOM     11  C   UNL     1     -35.237  21.319   4.131  0.00  0.00    +0.275 C 
ATOM     12  C   UNL     1     -35.316  21.795   1.370  0.00  0.00    +0.065 C 
ATOM     13  C   UNL     1     -35.290  20.432   1.961  0.00  0.00    +0.193 C 
ATOM     14  H   UNL     1     -35.288  18.438   1.472  0.00  0.00    +0.145 HD
ATOM     15  H   UNL     1     -35.333  19.495   0.135  0.00  0.00    +0.145 HD
ENDBRANCH   5   7
BRANCH   3  16
ATOM     16  O   UNL     1     -34.782  26.481   5.665  0.00  0.00    -0.382 OA
ATOM     17  H   UNL     1     -35.463  26.277   6.327  0.00  0.00    +0.210 HD
ENDBRANCH   3  16
BRANCH   2  18
ATOM     18  C   UNL     1     -37.490  25.848   3.180  0.00  0.00    +0.064 C 
BRANCH  18  19
ATOM     19  C   UNL     1     -38.535  24.762   2.974  0.00  0.00    +0.140 C 
BRANCH  19  20
ATOM     20  O   UNL     1     -39.512  24.864   4.001  0.00  0.00    -0.382 OA
ATOM     21  H   UNL     1     -39.743  23.976   4.317  0.00  0.00    +0.210 HD
ENDBRANCH  19  20
ENDBRANCH  18  19
ENDBRANCH   2  18
TORSDOF 5
ENDMDL
MODEL 2
REMARK VINA RESULT:      -5.4      3.401      6.134
REMARK  Name = 191599
REMARK  5 active torsions:
REMARK  status: ('A' for Active; 'I' for Inactive)
REMARK    1  A    between atoms: C_2  and  C_18
REMARK    2  A    between atoms: C_3  and  O_16
REMARK    3  A    between atoms: C_5  and  N_7
REMARK    4  A    between atoms: C_18  and  C_19
REMARK    5  A    between atoms: C_19  and  O_20
REMARK                            x       y       z     vdW  Elec       q    Type
REMARK                         _______ _______ _______ _____ _____    ______ ____
ROOT
ATOM      1  O   UNL     1     -35.887  25.231   5.031  0.00  0.00    -0.337 OA
ATOM      2  C   UNL     1     -36.028  23.823   4.760  0.00  0.00    +0.146 C 
ATOM      3  C   UNL     1     -35.363  23.580   3.412  0.00  0.00    +0.142 C 
ATOM      4  C   UNL     1     -34.295  24.646   3.360  0.00  0.00    +0.084 C 
ATOM      5  C   UNL     1     -34.943  25.798   4.113  0.00  0.00    +0.209 C 
ENDROOT
BRANCH   5   7
ATOM      6  O   UNL     1     -33.515  27.984   3.060  0.00  0.00    -0.193 OA
ATOM      7  N   UNL     1     -33.994  26.592   4.837  0.00  0.00    -0.180 N 
ATOM      8  N   UNL     1     -32.412  28.404   4.997  0.00  0.00    -0.306 NA
ATOM      9  N   UNL     1     -31.282  28.828   6.985  0.00  0.00    -0.332 N 
ATOM     10  C   UNL     1     -33.741  26.278   6.163  0.00  0.00    +0.083 C 
ATOM     11  C   UNL     1     -33.314  27.680   4.236  0.00  0.00    +0.275 C 
ATOM     12  C   UNL     1     -32.876  26.961   6.910  0.00  0.00    +0.065 C 
ATOM     13  C   UNL     1     -32.183  28.096   6.247  0.00  0.00    +0.193 C 
ATOM     14  H   UNL     1     -30.808  29.585   6.572  0.00  0.00    +0.145 HD
ATOM     15  H   UNL     1     -31.112  28.594   7.926  0.00  0.00    +0.145 HD
ENDBRANCH   5   7
BRANCH   3  16
ATOM     16  O   UNL     1     -36.305  23.792   2.363  0.00  0.00    -0.382 OA
ATOM     17  H   UNL     1     -35.833  24.011   1.543  0.00  0.00    +0.210 HD
ENDBRANCH   3  16
BRANCH   2  18
ATOM     18  C   UNL     1     -35.362  23.058   5.896  0.00  0.00    +0.064 C 
BRANCH  18  19
ATOM     19  C   UNL     1     -34.824  21.712   5.433  0.00  0.00    +0.140 C 
BRANCH  19  20
ATOM     20  O   UNL     1     -35.624  20.681   5.994  0.00  0.00    -0.382 OA
ATOM     21  H   UNL     1     -35.285  19.817   5.709  0.00  0.00    +0.210 HD
ENDBRANCH  19  20
ENDBRANCH  18  19
ENDBRANCH   2  18
TORSDOF 5
ENDMDL
MODEL 3
REMARK VINA RESULT:      -5.3      3.198      5.028
REMARK  Name = 191599
REMARK  5 active torsions:
REMARK  status: ('A' for Active; 'I' for Inactive)
REMARK    1  A    between atoms: C_2  and  C_18
REMARK    2  A    between atoms: C_3  and  O_16
REMARK    3  A    between atoms: C_5  and  N_7
REMARK    4  A    between atoms: C_18  and  C_19
REMARK    5  A    between atoms: C_19  and  O_20
REMARK                            x       y       z     vdW  Elec       q    Type
REMARK                         _______ _______ _______ _____ _____    ______ ____
ROOT
ATOM      1  O   UNL     1     -35.352  24.332   3.591  0.00  0.00    -0.337 OA
ATOM      2  C   UNL     1     -34.746  24.063   4.869  0.00  0.00    +0.146 C 
ATOM      3  C   UNL     1     -34.640  25.405   5.581  0.00  0.00    +0.142 C 
ATOM      4  C   UNL     1     -35.803  26.185   5.016  0.00  0.00    +0.084 C 
ATOM      5  C   UNL     1     -35.888  25.662   3.591  0.00  0.00    +0.209 C 
ENDROOT
BRANCH   5   7
ATOM      6  O   UNL     1     -37.001  27.548   1.822  0.00  0.00    -0.193 OA
ATOM      7  N   UNL     1     -37.230  25.633   3.088  0.00  0.00    -0.180 N 
ATOM      8  N   UNL     1     -39.027  26.529   1.752  0.00  0.00    -0.306 NA
ATOM      9  N   UNL     1     -41.101  25.480   1.687  0.00  0.00    -0.332 N 
ATOM     10  C   UNL     1     -38.068  24.605   3.491  0.00  0.00    +0.083 C 
ATOM     11  C   UNL     1     -37.719  26.621   2.198  0.00  0.00    +0.275 C 
ATOM     12  C   UNL     1     -39.328  24.500   3.075  0.00  0.00    +0.065 C 
ATOM     13  C   UNL     1     -39.805  25.553   2.141  0.00  0.00    +0.193 C 
ATOM     14  H   UNL     1     -41.444  26.164   1.067  0.00  0.00    +0.145 HD
ATOM     15  H   UNL     1     -41.685  24.744   1.981  0.00  0.00    +0.145 HD
ENDBRANCH   5   7
BRANCH   3  16
ATOM     16  O   UNL     1     -33.416  26.045   5.229  0.00  0.00    -0.382 OA
ATOM     17  H   UNL     1     -33.605  26.910   4.830  0.00  0.00    +0.210 HD
ENDBRANCH   3  16
BRANCH   2  18
ATOM     18  C   UNL     1     -35.632  23.069   5.607  0.00  0.00    +0.064 C 
BRANCH  18  19
ATOM     19  C   UNL     1     -34.835  21.884   6.135  0.00  0.00    +0.140 C 
BRANCH  19  20
ATOM     20  O   UNL     1     -35.487  20.683   5.746  0.00  0.00    -0.382 OA
ATOM     21  H   UNL     1     -36.363  20.642   6.160  0.00  0.00    +0.210 HD
ENDBRANCH  19  20
ENDBRANCH  18  19
ENDBRANCH   2  18
TORSDOF 5
ENDMDL
MODEL 4
REMARK VINA RESULT:      -5.3      2.947      5.152
REMARK  Name = 191599
REMARK  5 active torsions:
REMARK  status: ('A' for Active; 'I' for Inactive)
REMARK    1  A    between atoms: C_2  and  C_18
REMARK    2  A    between atoms: C_3  and  O_16
REMARK    3  A    between atoms: C_5  and  N_7
REMARK    4  A    between atoms: C_18  and  C_19
REMARK    5  A    between atoms: C_19  and  O_20
REMARK                            x       y       z     vdW  Elec       q    Type
REMARK                         _______ _______ _______ _____ _____    ______ ____
ROOT
ATOM      1  O   UNL     1     -34.698  23.122   3.449  0.00  0.00    -0.337 OA
ATOM      2  C   UNL     1     -35.561  22.045   3.859  0.00  0.00    +0.146 C 
ATOM      3  C   UNL     1     -35.688  22.153   5.372  0.00  0.00    +0.142 C 
ATOM      4  C   UNL     1     -35.518  23.632   5.625  0.00  0.00    +0.084 C 
ATOM      5  C   UNL     1     -34.536  24.041   4.539  0.00  0.00    +0.209 C 
ENDROOT
BRANCH   5   7
ATOM      6  O   UNL     1     -33.266  26.341   5.550  0.00  0.00    -0.193 OA
ATOM      7  N   UNL     1     -34.750  25.378   4.069  0.00  0.00    -0.180 N 
ATOM      8  N   UNL     1     -34.329  27.751   4.125  0.00  0.00    -0.306 NA
ATOM      9  N   UNL     1     -35.423  29.191   2.663  0.00  0.00    -0.332 N 
ATOM     10  C   UNL     1     -35.651  25.581   3.036  0.00  0.00    +0.083 C 
ATOM     11  C   UNL     1     -34.072  26.487   4.630  0.00  0.00    +0.275 C 
ATOM     12  C   UNL     1     -35.913  26.788   2.538  0.00  0.00    +0.065 C 
ATOM     13  C   UNL     1     -35.182  27.928   3.150  0.00  0.00    +0.193 C 
ATOM     14  H   UNL     1     -34.953  29.965   3.049  0.00  0.00    +0.145 HD
ATOM     15  H   UNL     1     -36.065  29.322   1.929  0.00  0.00    +0.145 HD
ENDBRANCH   5   7
BRANCH   3  16
ATOM     16  O   UNL     1     -34.629  21.433   6.000  0.00  0.00    -0.382 OA
ATOM     17  H   UNL     1     -33.829  21.490   5.453  0.00  0.00    +0.210 HD
ENDBRANCH   3  16
BRANCH   2  18
ATOM     18  C   UNL     1     -36.892  22.211   3.139  0.00  0.00    +0.064 C 
BRANCH  18  19
ATOM     19  C   UNL     1     -37.093  21.149   2.068  0.00  0.00    +0.140 C 
BRANCH  19  20
ATOM     20  O   UNL     1     -36.802  19.875   2.625  0.00  0.00    -0.382 OA
ATOM     21  H   UNL     1     -37.128  19.180   2.031  0.00  0.00    +0.210 HD
ENDBRANCH  19  20
ENDBRANCH  18  19
ENDBRANCH   2  18
TORSDOF 5
ENDMDL
MODEL 5
REMARK VINA RESULT:      -5.2      1.990      3.025
REMARK  Name = 191599
REMARK  5 active torsions:
REMARK  status: ('A' for Active; 'I' for Inactive)
REMARK    1  A    between atoms: C_2  and  C_18
REMARK    2  A    between atoms: C_3  and  O_16
REMARK    3  A    between atoms: C_5  and  N_7
REMARK    4  A    between atoms: C_18  and  C_19
REMARK    5  A    between atoms: C_19  and  O_20
REMARK                            x       y       z     vdW  Elec       q    Type
REMARK                         _______ _______ _______ _____ _____    ______ ____
ROOT
ATOM      1  O   UNL     1     -36.099  25.176   2.972  0.00  0.00    -0.337 OA
ATOM      2  C   UNL     1     -35.153  25.938   3.745  0.00  0.00    +0.146 C 
ATOM      3  C   UNL     1     -35.465  25.647   5.206  0.00  0.00    +0.142 C 
ATOM      4  C   UNL     1     -36.031  24.248   5.163  0.00  0.00    +0.084 C 
ATOM      5  C   UNL     1     -36.753  24.227   3.825  0.00  0.00    +0.209 C 
ENDROOT
BRANCH   5   7
ATOM      6  O   UNL     1     -38.827  23.149   2.256  0.00  0.00    -0.193 OA
ATOM      7  N   UNL     1     -36.734  22.936   3.202  0.00  0.00    -0.180 N 
ATOM      8  N   UNL     1     -37.730  21.204   1.854  0.00  0.00    -0.306 NA
ATOM      9  N   UNL     1     -36.602  19.212   1.446  0.00  0.00    -0.332 N 
ATOM     10  C   UNL     1     -35.616  22.134   3.373  0.00  0.00    +0.083 C 
ATOM     11  C   UNL     1     -37.819  22.462   2.425  0.00  0.00    +0.275 C 
ATOM     12  C   UNL     1     -35.513  20.921   2.833  0.00  0.00    +0.065 C 
ATOM     13  C   UNL     1     -36.670  20.458   2.023  0.00  0.00    +0.193 C 
ATOM     14  H   UNL     1     -37.354  18.879   0.904  0.00  0.00    +0.145 HD
ATOM     15  H   UNL     1     -35.802  18.652   1.575  0.00  0.00    +0.145 HD
ENDBRANCH   5   7
BRANCH   3  16
ATOM     16  O   UNL     1     -36.457  26.553   5.681  0.00  0.00    -0.382 OA
ATOM     17  H   UNL     1     -36.202  26.885   6.557  0.00  0.00    +0.210 HD
ENDBRANCH   3  16
BRANCH   2  18
ATOM     18  C   UNL     1     -33.753  25.500   3.338  0.00  0.00    +0.064 C 
BRANCH  18  19
ATOM     19  C   UNL     1     -33.555  25.563   1.831  0.00  0.00    +0.140 C 
BRANCH  19  20
ATOM     20  O   UNL     1     -33.960  24.325   1.263  0.00  0.00    -0.382 OA
ATOM     21  H   UNL     1     -34.041  24.421   0.301  0.00  0.00    +0.210 HD
ENDBRANCH  19  20
ENDBRANCH  18  19
ENDBRANCH   2  18
TORSDOF 5
ENDMDL
MODEL 6
REMARK VINA RESULT:      -5.1      2.134      3.281
REMARK  Name = 191599
REMARK  5 active torsions:
REMARK  status: ('A' for Active; 'I' for Inactive)
REMARK    1  A    between atoms: C_2  and  C_18
REMARK    2  A    between atoms: C_3  and  O_16
REMARK    3  A    between atoms: C_5  and  N_7
REMARK    4  A    between atoms: C_18  and  C_19
REMARK    5  A    between atoms: C_19  and  O_20
REMARK                            x       y       z     vdW  Elec       q    Type
REMARK                         _______ _______ _______ _____ _____    ______ ____
ROOT
ATOM      1  O   UNL     1     -34.960  23.801   3.901  0.00  0.00    -0.337 OA
ATOM      2  C   UNL     1     -35.106  24.292   5.247  0.00  0.00    +0.146 C 
ATOM      3  C   UNL     1     -36.182  25.367   5.193  0.00  0.00    +0.142 C 
ATOM      4  C   UNL     1     -37.055  24.921   4.044  0.00  0.00    +0.084 C 
ATOM      5  C   UNL     1     -36.053  24.272   3.102  0.00  0.00    +0.209 C 
ENDROOT
BRANCH   5   7
ATOM      6  O   UNL     1     -34.772  22.912   0.997  0.00  0.00    -0.193 OA
ATOM      7  N   UNL     1     -36.611  23.177   2.365  0.00  0.00    -0.180 N 
ATOM      8  N   UNL     1     -36.504  21.488   0.648  0.00  0.00    -0.306 NA
ATOM      9  N   UNL     1     -38.282  20.032   0.294  0.00  0.00    -0.332 N 
ATOM     10  C   UNL     1     -37.882  22.733   2.695  0.00  0.00    +0.083 C 
ATOM     11  C   UNL     1     -35.902  22.541   1.316  0.00  0.00    +0.275 C 
ATOM     12  C   UNL     1     -38.477  21.723   2.064  0.00  0.00    +0.065 C 
ATOM     13  C   UNL     1     -37.703  21.080   0.970  0.00  0.00    +0.193 C 
ATOM     14  H   UNL     1     -37.793  19.587  -0.435  0.00  0.00    +0.145 HD
ATOM     15  H   UNL     1     -39.186  19.727   0.539  0.00  0.00    +0.145 HD
ENDBRANCH   5   7
BRANCH   3  16
ATOM     16  O   UNL     1     -35.592  26.628   4.886  0.00  0.00    -0.382 OA
ATOM     17  H   UNL     1     -35.830  27.273   5.571  0.00  0.00    +0.210 HD
ENDBRANCH   3  16
BRANCH   2  18
ATOM     18  C   UNL     1     -35.488  23.116   6.136  0.00  0.00    +0.064 C 
BRANCH  18  19
ATOM     19  C   UNL     1     -34.736  21.849   5.753  0.00  0.00    +0.140 C 
BRANCH  19  20
ATOM     20  O   UNL     1     -35.541  21.090   4.862  0.00  0.00    -0.382 OA
ATOM     21  H   UNL     1     -35.976  20.372   5.351  0.00  0.00    +0.210 HD
ENDBRANCH  19  20
ENDBRANCH  18  19
ENDBRANCH   2  18
TORSDOF 5
ENDMDL
MODEL 7
REMARK VINA RESULT:      -5.1      3.090      4.496
REMARK  Name = 191599
REMARK  5 active torsions:
REMARK  status: ('A' for Active; 'I' for Inactive)
REMARK    1  A    between atoms: C_2  and  C_18
REMARK    2  A    between atoms: C_3  and  O_16
REMARK    3  A    between atoms: C_5  and  N_7
REMARK    4  A    between atoms: C_18  and  C_19
REMARK    5  A    between atoms: C_19  and  O_20
REMARK                            x       y       z     vdW  Elec       q    Type
REMARK                         _______ _______ _______ _____ _____    ______ ____
ROOT
ATOM      1  O   UNL     1     -34.031  24.978   4.866  0.00  0.00    -0.337 OA
ATOM      2  C   UNL     1     -35.253  24.476   5.437  0.00  0.00    +0.146 C 
ATOM      3  C   UNL     1     -36.369  25.363   4.901  0.00  0.00    +0.142 C 
ATOM      4  C   UNL     1     -35.839  25.805   3.557  0.00  0.00    +0.084 C 
ATOM      5  C   UNL     1     -34.342  25.894   3.807  0.00  0.00    +0.209 C 
ENDROOT
BRANCH   5   7
ATOM      6  O   UNL     1     -31.731  26.810   3.290  0.00  0.00    -0.193 OA
ATOM      7  N   UNL     1     -33.564  25.564   2.649  0.00  0.00    -0.180 N 
ATOM      8  N   UNL     1     -31.560  25.704   1.316  0.00  0.00    -0.306 NA
ATOM      9  N   UNL     1     -31.392  24.570  -0.708  0.00  0.00    -0.332 N 
ATOM     10  C   UNL     1     -34.120  24.730   1.692  0.00  0.00    +0.083 C 
ATOM     11  C   UNL     1     -32.253  26.065   2.459  0.00  0.00    +0.275 C 
ATOM     12  C   UNL     1     -33.471  24.373   0.585  0.00  0.00    +0.065 C 
ATOM     13  C   UNL     1     -32.097  24.917   0.421  0.00  0.00    +0.193 C 
ATOM     14  H   UNL     1     -30.480  24.915  -0.843  0.00  0.00    +0.145 HD
ATOM     15  H   UNL     1     -31.799  23.977  -1.379  0.00  0.00    +0.145 HD
ENDBRANCH   5   7
BRANCH   3  16
ATOM     16  O   UNL     1     -36.535  26.498   5.748  0.00  0.00    -0.382 OA
ATOM     17  H   UNL     1     -37.449  26.819   5.683  0.00  0.00    +0.210 HD
ENDBRANCH   3  16
BRANCH   2  18
ATOM     18  C   UNL     1     -35.403  23.019   5.021  0.00  0.00    +0.064 C 
BRANCH  18  19
ATOM     19  C   UNL     1     -35.352  22.081   6.217  0.00  0.00    +0.140 C 
BRANCH  19  20
ATOM     20  O   UNL     1     -35.257  20.743   5.748  0.00  0.00    -0.382 OA
ATOM     21  H   UNL     1     -35.658  20.143   6.397  0.00  0.00    +0.210 HD
ENDBRANCH  19  20
ENDBRANCH  18  19
ENDBRANCH   2  18
TORSDOF 5
ENDMDL
MODEL 8
REMARK VINA RESULT:      -5.1      2.393      3.640
REMARK  Name = 191599
REMARK  5 active torsions:
REMARK  status: ('A' for Active; 'I' for Inactive)
REMARK    1  A    between atoms: C_2  and  C_18
REMARK    2  A    between atoms: C_3  and  O_16
REMARK    3  A    between atoms: C_5  and  N_7
REMARK    4  A    between atoms: C_18  and  C_19
REMARK    5  A    between atoms: C_19  and  O_20
REMARK                            x       y       z     vdW  Elec       q    Type
REMARK                         _______ _______ _______ _____ _____    ______ ____
ROOT
ATOM      1  O   UNL     1     -36.732  24.021   4.432  0.00  0.00    -0.337 OA
ATOM      2  C   UNL     1     -35.793  24.001   5.524  0.00  0.00    +0.146 C 
ATOM      3  C   UNL     1     -35.275  22.572   5.613  0.00  0.00    +0.142 C 
ATOM      4  C   UNL     1     -35.370  22.084   4.187  0.00  0.00    +0.084 C 
ATOM      5  C   UNL     1     -36.601  22.813   3.672  0.00  0.00    +0.209 C 
ENDROOT
BRANCH   5   7
ATOM      6  O   UNL     1     -38.738  22.699   1.843  0.00  0.00    -0.193 OA
ATOM      7  N   UNL     1     -36.515  23.135   2.278  0.00  0.00    -0.180 N 
ATOM      8  N   UNL     1     -37.479  23.381   0.082  0.00  0.00    -0.306 NA
ATOM      9  N   UNL     1     -36.184  24.078  -1.719  0.00  0.00    -0.332 N 
ATOM     10  C   UNL     1     -35.291  23.536   1.765  0.00  0.00    +0.083 C 
ATOM     11  C   UNL     1     -37.638  23.054   1.419  0.00  0.00    +0.275 C 
ATOM     12  C   UNL     1     -35.119  23.853   0.483  0.00  0.00    +0.065 C 
ATOM     13  C   UNL     1     -36.319  23.758  -0.388  0.00  0.00    +0.193 C 
ATOM     14  H   UNL     1     -36.962  24.024  -2.319  0.00  0.00    +0.145 HD
ATOM     15  H   UNL     1     -35.309  24.362  -2.070  0.00  0.00    +0.145 HD
ENDBRANCH   5   7
BRANCH   3  16
ATOM     16  O   UNL     1     -36.133  21.795   6.445  0.00  0.00    -0.382 OA
ATOM     17  H   UNL     1     -36.963  21.613   5.975  0.00  0.00    +0.210 HD
ENDBRANCH   3  16
BRANCH   2  18
ATOM     18  C   UNL     1     -34.697  25.012   5.220  0.00  0.00    +0.064 C 
BRANCH  18  19
ATOM     19  C   UNL     1     -35.253  26.275   4.579  0.00  0.00    +0.140 C 
BRANCH  19  20
ATOM     20  O   UNL     1     -36.414  26.678   5.292  0.00  0.00    -0.382 OA
ATOM     21  H   UNL     1     -36.234  27.508   5.762  0.00  0.00    +0.210 HD
ENDBRANCH  19  20
ENDBRANCH  18  19
ENDBRANCH   2  18
TORSDOF 5
ENDMDL
MODEL 9
REMARK VINA RESULT:      -4.9      2.574      5.393
REMARK  Name = 191599
REMARK  5 active torsions:
REMARK  status: ('A' for Active; 'I' for Inactive)
REMARK    1  A    between atoms: C_2  and  C_18
REMARK    2  A    between atoms: C_3  and  O_16
REMARK    3  A    between atoms: C_5  and  N_7
REMARK    4  A    between atoms: C_18  and  C_19
REMARK    5  A    between atoms: C_19  and  O_20
REMARK                            x       y       z     vdW  Elec       q    Type
REMARK                         _______ _______ _______ _____ _____    ______ ____
ROOT
ATOM      1  O   UNL     1     -35.696  21.401   3.500  0.00  0.00    -0.337 OA
ATOM      2  C   UNL     1     -35.861  20.698   2.254  0.00  0.00    +0.146 C 
ATOM      3  C   UNL     1     -37.086  21.304   1.583  0.00  0.00    +0.142 C 
ATOM      4  C   UNL     1     -37.089  22.725   2.095  0.00  0.00    +0.084 C 
ATOM      5  C   UNL     1     -36.528  22.569   3.499  0.00  0.00    +0.209 C 
ENDROOT
BRANCH   5   7
ATOM      6  O   UNL     1     -35.794  23.140   6.157  0.00  0.00    -0.193 OA
ATOM      7  N   UNL     1     -35.756  23.702   3.919  0.00  0.00    -0.180 N 
ATOM      8  N   UNL     1     -34.677  25.038   5.611  0.00  0.00    -0.306 NA
ATOM      9  N   UNL     1     -33.536  26.984   5.046  0.00  0.00    -0.332 N 
ATOM     10  C   UNL     1     -35.327  24.605   2.959  0.00  0.00    +0.083 C 
ATOM     11  C   UNL     1     -35.426  23.922   5.279  0.00  0.00    +0.275 C 
ATOM     12  C   UNL     1     -34.607  25.685   3.259  0.00  0.00    +0.065 C 
ATOM     13  C   UNL     1     -34.279  25.881   4.695  0.00  0.00    +0.193 C 
ATOM     14  H   UNL     1     -33.303  27.140   5.990  0.00  0.00    +0.145 HD
ATOM     15  H   UNL     1     -33.237  27.617   4.354  0.00  0.00    +0.145 HD
ENDBRANCH   5   7
BRANCH   3  16
ATOM     16  O   UNL     1     -38.263  20.632   2.023  0.00  0.00    -0.382 OA
ATOM     17  H   UNL     1     -38.321  19.764   1.594  0.00  0.00    +0.210 HD
ENDBRANCH   3  16
BRANCH   2  18
ATOM     18  C   UNL     1     -34.588  20.879   1.440  0.00  0.00    +0.064 C 
BRANCH  18  19
ATOM     19  C   UNL     1     -33.847  19.564   1.247  0.00  0.00    +0.140 C 
BRANCH  19  20
ATOM     20  O   UNL     1     -34.783  18.558   0.887  0.00  0.00    -0.382 OA
ATOM     21  H   UNL     1     -34.617  18.273  -0.026  0.00  0.00    +0.210 HD
ENDBRANCH  19  20
ENDBRANCH  18  19
ENDBRANCH   2  18
TORSDOF 5
ENDMDL
