MODEL 1
REMARK VINA RESULT:      -6.8      0.000      0.000
REMARK  Name = 5480221
REMARK  9 active torsions:
REMARK  status: ('A' for Active; 'I' for Inactive)
REMARK    1  A    between atoms: C_1  and  N_4
REMARK    2  A    between atoms: C_1  and  C_21
REMARK    3  A    between atoms: C_5  and  C_9
REMARK    4  A    between atoms: C_11  and  C_13
REMARK    5  A    between atoms: C_18  and  C_20
REMARK    6  A    between atoms: C_21  and  C_24
REMARK    7  A    between atoms: C_21  and  O_30
REMARK    8  A    between atoms: C_21  and  C_32
REMARK    9  A    between atoms: C_32  and  N_33
REMARK                            x       y       z     vdW  Elec       q    Type
REMARK                         _______ _______ _______ _____ _____    ______ ____
ROOT
ATOM      1  C   UNL     1     -37.639  19.717  -1.107  0.00  0.00    +0.102 C 
ATOM      2  C   UNL     1     -36.862  20.062  -2.382  0.00  0.00    +0.024 C 
ENDROOT
BRANCH   1   4
ATOM      3  O   UNL     1     -39.598  20.683   0.703  0.00  0.00    -0.274 OA
ATOM      4  N   UNL     1     -37.463  20.798  -0.157  0.00  0.00    -0.302 N 
ATOM      5  C   UNL     1     -38.482  21.203   0.692  0.00  0.00    +0.239 C 
ATOM      6  H   UNL     1     -36.593  21.257  -0.112  0.00  0.00    +0.150 HD
BRANCH   5   9
ATOM      7  S   UNL     1     -36.613  22.402   2.267  0.00  0.00    -0.067 S 
ATOM      8  N   UNL     1     -38.314  24.278   2.786  0.00  0.00    -0.403 NA
ATOM      9  C   UNL     1     -38.156  22.333   1.572  0.00  0.00    +0.178 C 
ATOM     10  C   UNL     1     -38.929  23.379   1.937  0.00  0.00    +0.107 C 
ATOM     11  C   UNL     1     -37.090  23.864   3.028  0.00  0.00    +0.157 C 
ATOM     12  C   UNL     1     -40.324  23.652   1.530  0.00  0.00    +0.063 C 
BRANCH  11  13
ATOM     13  C   UNL     1     -36.140  24.544   3.874  0.00  0.00    +0.036 C 
ATOM     14  C   UNL     1     -36.590  25.406   4.874  0.00  0.00    +0.004 C 
ATOM     15  C   UNL     1     -34.772  24.340   3.692  0.00  0.00    +0.004 C 
ATOM     16  C   UNL     1     -35.672  26.063   5.692  0.00  0.00    +0.010 C 
ATOM     17  C   UNL     1     -33.854  24.998   4.511  0.00  0.00    +0.010 C 
ATOM     18  C   UNL     1     -34.303  25.859   5.511  0.00  0.00    +0.068 C 
BRANCH  18  20
ATOM     19  N   UNL     1     -32.598  27.081   7.031  0.00  0.00    -0.191 NA
ATOM     20  C   UNL     1     -33.362  26.533   6.349  0.00  0.00    +0.100 C 
ENDBRANCH  18  20
ENDBRANCH  11  13
ENDBRANCH   5   9
ENDBRANCH   1   4
BRANCH   1  21
ATOM     21  C   UNL     1     -37.234  18.335  -0.488  0.00  0.00    +0.145 C 
BRANCH  21  24
ATOM     22  F   UNL     1     -37.025  15.666   0.416  0.00  0.00    -0.204 F 
ATOM     23  F   UNL     1     -41.185  14.465  -1.492  0.00  0.00    -0.204 F 
ATOM     24  C   UNL     1     -38.312  17.277  -0.760  0.00  0.00    +0.033 C 
ATOM     25  C   UNL     1     -38.120  16.005  -0.280  0.00  0.00    +0.141 C 
ATOM     26  C   UNL     1     -39.425  17.649  -1.476  0.00  0.00    +0.003 C 
ATOM     27  C   UNL     1     -39.101  15.044  -0.529  0.00  0.00    +0.059 C 
ATOM     28  C   UNL     1     -40.405  16.689  -1.726  0.00  0.00    +0.030 C 
ATOM     29  C   UNL     1     -40.244  15.387  -1.252  0.00  0.00    +0.142 C 
ENDBRANCH  21  24
BRANCH  21  30
ATOM     30  O   UNL     1     -37.098  18.540   0.926  0.00  0.00    -0.379 OA
ATOM     31  H   UNL     1     -37.199  17.693   1.387  0.00  0.00    +0.211 HD
ENDBRANCH  21  30
BRANCH  21  32
ATOM     32  C   UNL     1     -35.851  17.868  -1.037  0.00  0.00    +0.151 C 
BRANCH  32  33
ATOM     33  N   UNL     1     -34.717  18.095  -0.138  0.00  0.00    -0.188 N 
ATOM     34  N   UNL     1     -34.472  19.317   0.325  0.00  0.00    -0.154 NA
ATOM     35  N   UNL     1     -32.971  17.772   1.094  0.00  0.00    -0.203 NA
ATOM     36  C   UNL     1     -33.840  17.179   0.308  0.00  0.00    +0.186 C 
ATOM     37  C   UNL     1     -33.395  19.069   1.074  0.00  0.00    +0.218 C 
ENDBRANCH  32  33
ENDBRANCH  21  32
ENDBRANCH   1  21
TORSDOF 9
ENDMDL
MODEL 2
REMARK VINA RESULT:      -6.8      3.787      9.900
REMARK  Name = 5480221
REMARK  9 active torsions:
REMARK  status: ('A' for Active; 'I' for Inactive)
REMARK    1  A    between atoms: C_1  and  N_4
REMARK    2  A    between atoms: C_1  and  C_21
REMARK    3  A    between atoms: C_5  and  C_9
REMARK    4  A    between atoms: C_11  and  C_13
REMARK    5  A    between atoms: C_18  and  C_20
REMARK    6  A    between atoms: C_21  and  C_24
REMARK    7  A    between atoms: C_21  and  O_30
REMARK    8  A    between atoms: C_21  and  C_32
REMARK    9  A    between atoms: C_32  and  N_33
REMARK                            x       y       z     vdW  Elec       q    Type
REMARK                         _______ _______ _______ _____ _____    ______ ____
ROOT
ATOM      1  C   UNL     1     -37.008  20.577   0.578  0.00  0.00    +0.102 C 
ATOM      2  C   UNL     1     -38.242  21.468   0.755  0.00  0.00    +0.024 C 
ENDROOT
BRANCH   1   4
ATOM      3  O   UNL     1     -36.283  18.853  -1.554  0.00  0.00    -0.274 OA
ATOM      4  N   UNL     1     -37.452  19.209   0.400  0.00  0.00    -0.302 N 
ATOM      5  C   UNL     1     -37.043  18.439  -0.679  0.00  0.00    +0.239 C 
ATOM      6  H   UNL     1     -38.061  18.814   1.065  0.00  0.00    +0.150 HD
BRANCH   5   9
ATOM      7  S   UNL     1     -39.256  16.905  -1.077  0.00  0.00    -0.067 S 
ATOM      8  N   UNL     1     -37.817  14.797  -0.670  0.00  0.00    -0.403 NA
ATOM      9  C   UNL     1     -37.607  17.084  -0.734  0.00  0.00    +0.178 C 
ATOM     10  C   UNL     1     -36.991  15.896  -0.546  0.00  0.00    +0.107 C 
ATOM     11  C   UNL     1     -39.034  15.208  -0.949  0.00  0.00    +0.157 C 
ATOM     12  C   UNL     1     -35.566  15.662  -0.231  0.00  0.00    +0.063 C 
BRANCH  11  13
ATOM     13  C   UNL     1     -40.173  14.345  -1.151  0.00  0.00    +0.036 C 
ATOM     14  C   UNL     1     -40.863  14.375  -2.362  0.00  0.00    +0.004 C 
ATOM     15  C   UNL     1     -40.583  13.484  -0.134  0.00  0.00    +0.004 C 
ATOM     16  C   UNL     1     -41.964  13.541  -2.557  0.00  0.00    +0.010 C 
ATOM     17  C   UNL     1     -41.685  12.650  -0.329  0.00  0.00    +0.010 C 
ATOM     18  C   UNL     1     -42.375  12.679  -1.540  0.00  0.00    +0.068 C 
BRANCH  18  20
ATOM     19  N   UNL     1     -44.421  11.131  -1.901  0.00  0.00    -0.191 NA
ATOM     20  C   UNL     1     -43.504  11.825  -1.740  0.00  0.00    +0.100 C 
ENDBRANCH  18  20
ENDBRANCH  11  13
ENDBRANCH   5   9
ENDBRANCH   1   4
BRANCH   1  21
ATOM     21  C   UNL     1     -35.980  20.700   1.756  0.00  0.00    +0.145 C 
BRANCH  21  24
ATOM     22  F   UNL     1     -34.470  22.404   0.082  0.00  0.00    -0.204 F 
ATOM     23  F   UNL     1     -30.785  19.437   0.021  0.00  0.00    -0.204 F 
ATOM     24  C   UNL     1     -34.562  20.357   1.281  0.00  0.00    +0.033 C 
ATOM     25  C   UNL     1     -33.907  21.250   0.468  0.00  0.00    +0.141 C 
ATOM     26  C   UNL     1     -34.006  19.169   1.691  0.00  0.00    +0.003 C 
ATOM     27  C   UNL     1     -32.617  20.936   0.038  0.00  0.00    +0.059 C 
ATOM     28  C   UNL     1     -32.718  18.855   1.261  0.00  0.00    +0.030 C 
ATOM     29  C   UNL     1     -32.023  19.738   0.435  0.00  0.00    +0.142 C 
ENDBRANCH  21  24
BRANCH  21  30
ATOM     30  O   UNL     1     -36.396  19.768   2.764  0.00  0.00    -0.379 OA
ATOM     31  H   UNL     1     -36.925  20.230   3.434  0.00  0.00    +0.211 HD
ENDBRANCH  21  30
BRANCH  21  32
ATOM     32  C   UNL     1     -36.023  22.129   2.379  0.00  0.00    +0.151 C 
BRANCH  32  33
ATOM     33  N   UNL     1     -35.811  22.180   3.828  0.00  0.00    -0.188 N 
ATOM     34  N   UNL     1     -35.160  21.196   4.439  0.00  0.00    -0.154 NA
ATOM     35  N   UNL     1     -35.831  22.832   5.889  0.00  0.00    -0.203 NA
ATOM     36  C   UNL     1     -36.211  23.148   4.672  0.00  0.00    +0.186 C 
ATOM     37  C   UNL     1     -35.197  21.638   5.697  0.00  0.00    +0.218 C 
ENDBRANCH  32  33
ENDBRANCH  21  32
ENDBRANCH   1  21
TORSDOF 9
ENDMDL
MODEL 3
REMARK VINA RESULT:      -6.7      4.978     10.417
REMARK  Name = 5480221
REMARK  9 active torsions:
REMARK  status: ('A' for Active; 'I' for Inactive)
REMARK    1  A    between atoms: C_1  and  N_4
REMARK    2  A    between atoms: C_1  and  C_21
REMARK    3  A    between atoms: C_5  and  C_9
REMARK    4  A    between atoms: C_11  and  C_13
REMARK    5  A    between atoms: C_18  and  C_20
REMARK    6  A    between atoms: C_21  and  C_24
REMARK    7  A    between atoms: C_21  and  O_30
REMARK    8  A    between atoms: C_21  and  C_32
REMARK    9  A    between atoms: C_32  and  N_33
REMARK                            x       y       z     vdW  Elec       q    Type
REMARK                         _______ _______ _______ _____ _____    ______ ____
ROOT
ATOM      1  C   UNL     1     -34.008  26.634   4.908  0.00  0.00    +0.102 C 
ATOM      2  C   UNL     1     -33.310  26.680   6.272  0.00  0.00    +0.024 C 
ENDROOT
BRANCH   1   4
ATOM      3  O   UNL     1     -36.433  25.164   4.832  0.00  0.00    -0.274 OA
ATOM      4  N   UNL     1     -34.152  25.246   4.514  0.00  0.00    -0.302 N 
ATOM      5  C   UNL     1     -35.383  24.608   4.508  0.00  0.00    +0.239 C 
ATOM      6  H   UNL     1     -33.351  24.741   4.242  0.00  0.00    +0.150 HD
BRANCH   5   9
ATOM      7  S   UNL     1     -35.323  22.807   2.468  0.00  0.00    -0.067 S 
ATOM      8  N   UNL     1     -35.329  20.897   4.209  0.00  0.00    -0.403 NA
ATOM      9  C   UNL     1     -35.358  23.193   4.116  0.00  0.00    +0.178 C 
ATOM     10  C   UNL     1     -35.358  22.092   4.900  0.00  0.00    +0.107 C 
ATOM     11  C   UNL     1     -35.308  21.152   2.919  0.00  0.00    +0.157 C 
ATOM     12  C   UNL     1     -35.383  22.038   6.377  0.00  0.00    +0.063 C 
BRANCH  11  13
ATOM     13  C   UNL     1     -35.277  20.153   1.879  0.00  0.00    +0.036 C 
ATOM     14  C   UNL     1     -34.080  19.505   1.572  0.00  0.00    +0.004 C 
ATOM     15  C   UNL     1     -36.442  19.836   1.180  0.00  0.00    +0.004 C 
ATOM     16  C   UNL     1     -34.049  18.540   0.566  0.00  0.00    +0.010 C 
ATOM     17  C   UNL     1     -36.410  18.870   0.174  0.00  0.00    +0.010 C 
ATOM     18  C   UNL     1     -35.214  18.222  -0.133  0.00  0.00    +0.068 C 
BRANCH  18  20
ATOM     19  N   UNL     1     -35.155  16.428  -2.002  0.00  0.00    -0.191 NA
ATOM     20  C   UNL     1     -35.182  17.232  -1.164  0.00  0.00    +0.100 C 
ENDBRANCH  18  20
ENDBRANCH  11  13
ENDBRANCH   5   9
ENDBRANCH   1   4
BRANCH   1  21
ATOM     21  C   UNL     1     -33.273  27.471   3.805  0.00  0.00    +0.145 C 
BRANCH  21  24
ATOM     22  F   UNL     1     -35.289  26.646   2.005  0.00  0.00    -0.204 F 
ATOM     23  F   UNL     1     -36.809  31.077   1.336  0.00  0.00    -0.204 F 
ATOM     24  C   UNL     1     -34.240  28.453   3.130  0.00  0.00    +0.033 C 
ATOM     25  C   UNL     1     -35.187  27.956   2.269  0.00  0.00    +0.141 C 
ATOM     26  C   UNL     1     -34.115  29.792   3.417  0.00  0.00    +0.003 C 
ATOM     27  C   UNL     1     -36.065  28.851   1.657  0.00  0.00    +0.059 C 
ATOM     28  C   UNL     1     -34.991  30.687   2.805  0.00  0.00    +0.030 C 
ATOM     29  C   UNL     1     -35.967  30.217   1.925  0.00  0.00    +0.142 C 
ENDBRANCH  21  24
BRANCH  21  30
ATOM     30  O   UNL     1     -32.776  26.534   2.839  0.00  0.00    -0.379 OA
ATOM     31  H   UNL     1     -33.212  26.687   1.986  0.00  0.00    +0.211 HD
ENDBRANCH  21  30
BRANCH  21  32
ATOM     32  C   UNL     1     -32.051  28.228   4.410  0.00  0.00    +0.151 C 
BRANCH  32  33
ATOM     33  N   UNL     1     -30.858  28.258   3.560  0.00  0.00    -0.188 N 
ATOM     34  N   UNL     1     -30.020  27.226   3.554  0.00  0.00    -0.154 NA
ATOM     35  N   UNL     1     -29.353  28.901   2.148  0.00  0.00    -0.203 NA
ATOM     36  C   UNL     1     -30.475  29.250   2.736  0.00  0.00    +0.186 C 
ATOM     37  C   UNL     1     -29.116  27.666   2.676  0.00  0.00    +0.218 C 
ENDBRANCH  32  33
ENDBRANCH  21  32
ENDBRANCH   1  21
TORSDOF 9
ENDMDL
MODEL 4
REMARK VINA RESULT:      -6.7      6.244      9.426
REMARK  Name = 5480221
REMARK  9 active torsions:
REMARK  status: ('A' for Active; 'I' for Inactive)
REMARK    1  A    between atoms: C_1  and  N_4
REMARK    2  A    between atoms: C_1  and  C_21
REMARK    3  A    between atoms: C_5  and  C_9
REMARK    4  A    between atoms: C_11  and  C_13
REMARK    5  A    between atoms: C_18  and  C_20
REMARK    6  A    between atoms: C_21  and  C_24
REMARK    7  A    between atoms: C_21  and  O_30
REMARK    8  A    between atoms: C_21  and  C_32
REMARK    9  A    between atoms: C_32  and  N_33
REMARK                            x       y       z     vdW  Elec       q    Type
REMARK                         _______ _______ _______ _____ _____    ______ ____
ROOT
ATOM      1  C   UNL     1     -35.450  26.387   1.941  0.00  0.00    +0.102 C 
ATOM      2  C   UNL     1     -34.771  27.397   1.010  0.00  0.00    +0.024 C 
ENDROOT
BRANCH   1   4
ATOM      3  O   UNL     1     -37.478  24.853   0.685  0.00  0.00    -0.274 OA
ATOM      4  N   UNL     1     -36.872  26.670   1.966  0.00  0.00    -0.302 N 
ATOM      5  C   UNL     1     -37.793  25.860   1.320  0.00  0.00    +0.239 C 
ATOM      6  H   UNL     1     -37.193  27.461   2.457  0.00  0.00    +0.150 HD
BRANCH   5   9
ATOM      7  S   UNL     1     -40.189  25.595   2.584  0.00  0.00    -0.067 S 
ATOM      8  N   UNL     1     -41.169  27.403   1.017  0.00  0.00    -0.403 NA
ATOM      9  C   UNL     1     -39.192  26.300   1.411  0.00  0.00    +0.178 C 
ATOM     10  C   UNL     1     -39.844  27.223   0.671  0.00  0.00    +0.107 C 
ATOM     11  C   UNL     1     -41.461  26.596   2.014  0.00  0.00    +0.157 C 
ATOM     12  C   UNL     1     -39.300  28.038  -0.436  0.00  0.00    +0.063 C 
BRANCH  11  13
ATOM     13  C   UNL     1     -42.754  26.499   2.647  0.00  0.00    +0.036 C 
ATOM     14  C   UNL     1     -43.788  25.809   2.015  0.00  0.00    +0.004 C 
ATOM     15  C   UNL     1     -42.968  27.095   3.889  0.00  0.00    +0.004 C 
ATOM     16  C   UNL     1     -45.038  25.715   2.626  0.00  0.00    +0.010 C 
ATOM     17  C   UNL     1     -44.219  27.000   4.500  0.00  0.00    +0.010 C 
ATOM     18  C   UNL     1     -45.253  26.310   3.869  0.00  0.00    +0.068 C 
BRANCH  18  20
ATOM     19  N   UNL     1     -47.576  26.135   5.005  0.00  0.00    -0.191 NA
ATOM     20  C   UNL     1     -46.535  26.214   4.495  0.00  0.00    +0.100 C 
ENDBRANCH  18  20
ENDBRANCH  11  13
ENDBRANCH   5   9
ENDBRANCH   1   4
BRANCH   1  21
ATOM     21  C   UNL     1     -34.842  26.368   3.386  0.00  0.00    +0.145 C 
BRANCH  21  24
ATOM     22  F   UNL     1     -34.813  25.994   6.186  0.00  0.00    -0.204 F 
ATOM     23  F   UNL     1     -35.562  21.339   5.790  0.00  0.00    -0.204 F 
ATOM     24  C   UNL     1     -35.039  24.996   4.044  0.00  0.00    +0.033 C 
ATOM     25  C   UNL     1     -35.008  24.915   5.415  0.00  0.00    +0.141 C 
ATOM     26  C   UNL     1     -35.237  23.906   3.232  0.00  0.00    +0.003 C 
ATOM     27  C   UNL     1     -35.187  23.666   6.011  0.00  0.00    +0.059 C 
ATOM     28  C   UNL     1     -35.415  22.658   3.827  0.00  0.00    +0.030 C 
ATOM     29  C   UNL     1     -35.392  22.538   5.217  0.00  0.00    +0.142 C 
ENDBRANCH  21  24
BRANCH  21  30
ATOM     30  O   UNL     1     -35.535  27.375   4.138  0.00  0.00    -0.379 OA
ATOM     31  H   UNL     1     -35.525  27.140   5.079  0.00  0.00    +0.211 HD
ENDBRANCH  21  30
BRANCH  21  32
ATOM     32  C   UNL     1     -33.330  26.753   3.353  0.00  0.00    +0.151 C 
BRANCH  32  33
ATOM     33  N   UNL     1     -32.973  27.932   4.146  0.00  0.00    -0.188 N 
ATOM     34  N   UNL     1     -33.306  29.145   3.718  0.00  0.00    -0.154 NA
ATOM     35  N   UNL     1     -32.188  29.197   5.713  0.00  0.00    -0.203 NA
ATOM     36  C   UNL     1     -32.314  27.951   5.319  0.00  0.00    +0.186 C 
ATOM     37  C   UNL     1     -32.804  29.886   4.709  0.00  0.00    +0.218 C 
ENDBRANCH  32  33
ENDBRANCH  21  32
ENDBRANCH   1  21
TORSDOF 9
ENDMDL
MODEL 5
REMARK VINA RESULT:      -6.7      5.868      8.948
REMARK  Name = 5480221
REMARK  9 active torsions:
REMARK  status: ('A' for Active; 'I' for Inactive)
REMARK    1  A    between atoms: C_1  and  N_4
REMARK    2  A    between atoms: C_1  and  C_21
REMARK    3  A    between atoms: C_5  and  C_9
REMARK    4  A    between atoms: C_11  and  C_13
REMARK    5  A    between atoms: C_18  and  C_20
REMARK    6  A    between atoms: C_21  and  C_24
REMARK    7  A    between atoms: C_21  and  O_30
REMARK    8  A    between atoms: C_21  and  C_32
REMARK    9  A    between atoms: C_32  and  N_33
REMARK                            x       y       z     vdW  Elec       q    Type
REMARK                         _______ _______ _______ _____ _____    ______ ____
ROOT
ATOM      1  C   UNL     1     -37.073  25.078   1.675  0.00  0.00    +0.102 C 
ATOM      2  C   UNL     1     -36.615  25.620   0.316  0.00  0.00    +0.024 C 
ENDROOT
BRANCH   1   4
ATOM      3  O   UNL     1     -39.377  23.465   2.043  0.00  0.00    -0.274 OA
ATOM      4  N   UNL     1     -38.417  25.557   1.930  0.00  0.00    -0.302 N 
ATOM      5  C   UNL     1     -39.486  24.690   2.098  0.00  0.00    +0.239 C 
ATOM      6  H   UNL     1     -38.576  26.528   1.987  0.00  0.00    +0.150 HD
BRANCH   5   9
ATOM      7  S   UNL     1     -41.015  26.254   3.718  0.00  0.00    -0.067 S 
ATOM      8  N   UNL     1     -42.964  26.020   2.036  0.00  0.00    -0.403 NA
ATOM      9  C   UNL     1     -40.790  25.332   2.316  0.00  0.00    +0.178 C 
ATOM     10  C   UNL     1     -41.894  25.303   1.539  0.00  0.00    +0.107 C 
ATOM     11  C   UNL     1     -42.615  26.565   3.181  0.00  0.00    +0.157 C 
ATOM     12  C   UNL     1     -42.068  24.604   0.248  0.00  0.00    +0.063 C 
BRANCH  11  13
ATOM     13  C   UNL     1     -43.471  27.388   4.000  0.00  0.00    +0.036 C 
ATOM     14  C   UNL     1     -43.105  28.703   4.287  0.00  0.00    +0.004 C 
ATOM     15  C   UNL     1     -44.663  26.868   4.506  0.00  0.00    +0.004 C 
ATOM     16  C   UNL     1     -43.932  29.499   5.080  0.00  0.00    +0.010 C 
ATOM     17  C   UNL     1     -45.490  27.666   5.298  0.00  0.00    +0.010 C 
ATOM     18  C   UNL     1     -45.125  28.980   5.585  0.00  0.00    +0.068 C 
BRANCH  18  20
ATOM     19  N   UNL     1     -46.661  30.459   7.058  0.00  0.00    -0.191 NA
ATOM     20  C   UNL     1     -45.972  29.796   6.397  0.00  0.00    +0.100 C 
ENDBRANCH  18  20
ENDBRANCH  11  13
ENDBRANCH   5   9
ENDBRANCH   1   4
BRANCH   1  21
ATOM     21  C   UNL     1     -36.100  25.442   2.849  0.00  0.00    +0.145 C 
BRANCH  21  24
ATOM     22  F   UNL     1     -35.367  25.638   5.571  0.00  0.00    -0.204 F 
ATOM     23  F   UNL     1     -35.062  20.940   6.050  0.00  0.00    -0.204 F 
ATOM     24  C   UNL     1     -35.817  24.214   3.725  0.00  0.00    +0.033 C 
ATOM     25  C   UNL     1     -35.467  24.411   5.038  0.00  0.00    +0.141 C 
ATOM     26  C   UNL     1     -35.925  22.968   3.155  0.00  0.00    +0.003 C 
ATOM     27  C   UNL     1     -35.210  23.293   5.833  0.00  0.00    +0.059 C 
ATOM     28  C   UNL     1     -35.667  21.851   3.949  0.00  0.00    +0.030 C 
ATOM     29  C   UNL     1     -35.310  22.013   5.287  0.00  0.00    +0.142 C 
ENDBRANCH  21  24
BRANCH  21  30
ATOM     30  O   UNL     1     -36.753  26.456   3.626  0.00  0.00    -0.379 OA
ATOM     31  H   UNL     1     -36.334  26.515   4.499  0.00  0.00    +0.211 HD
ENDBRANCH  21  30
BRANCH  21  32
ATOM     32  C   UNL     1     -34.771  26.045   2.297  0.00  0.00    +0.151 C 
BRANCH  32  33
ATOM     33  N   UNL     1     -34.495  27.422   2.713  0.00  0.00    -0.188 N 
ATOM     34  N   UNL     1     -35.203  28.425   2.203  0.00  0.00    -0.154 NA
ATOM     35  N   UNL     1     -33.629  29.139   3.700  0.00  0.00    -0.203 NA
ATOM     36  C   UNL     1     -33.565  27.831   3.595  0.00  0.00    +0.186 C 
ATOM     37  C   UNL     1     -34.637  29.454   2.836  0.00  0.00    +0.218 C 
ENDBRANCH  32  33
ENDBRANCH  21  32
ENDBRANCH   1  21
TORSDOF 9
ENDMDL
MODEL 6
REMARK VINA RESULT:      -6.6      4.500     10.140
REMARK  Name = 5480221
REMARK  9 active torsions:
REMARK  status: ('A' for Active; 'I' for Inactive)
REMARK    1  A    between atoms: C_1  and  N_4
REMARK    2  A    between atoms: C_1  and  C_21
REMARK    3  A    between atoms: C_5  and  C_9
REMARK    4  A    between atoms: C_11  and  C_13
REMARK    5  A    between atoms: C_18  and  C_20
REMARK    6  A    between atoms: C_21  and  C_24
REMARK    7  A    between atoms: C_21  and  O_30
REMARK    8  A    between atoms: C_21  and  C_32
REMARK    9  A    between atoms: C_32  and  N_33
REMARK                            x       y       z     vdW  Elec       q    Type
REMARK                         _______ _______ _______ _____ _____    ______ ____
ROOT
ATOM      1  C   UNL     1     -33.906  26.608   4.846  0.00  0.00    +0.102 C 
ATOM      2  C   UNL     1     -33.313  26.626   6.259  0.00  0.00    +0.024 C 
ENDROOT
BRANCH   1   4
ATOM      3  O   UNL     1     -36.298  25.097   5.043  0.00  0.00    -0.274 OA
ATOM      4  N   UNL     1     -34.078  25.227   4.439  0.00  0.00    -0.302 N 
ATOM      5  C   UNL     1     -35.291  24.568   4.574  0.00  0.00    +0.239 C 
ATOM      6  H   UNL     1     -33.311  24.744   4.054  0.00  0.00    +0.150 HD
BRANCH   5   9
ATOM      7  S   UNL     1     -35.242  22.819   2.489  0.00  0.00    -0.067 S 
ATOM      8  N   UNL     1     -35.325  20.865   4.179  0.00  0.00    -0.403 NA
ATOM      9  C   UNL     1     -35.294  23.163   4.146  0.00  0.00    +0.178 C 
ATOM     10  C   UNL     1     -35.335  22.043   4.901  0.00  0.00    +0.107 C 
ATOM     11  C   UNL     1     -35.277  21.152   2.897  0.00  0.00    +0.157 C 
ATOM     12  C   UNL     1     -35.387  21.952   6.375  0.00  0.00    +0.063 C 
BRANCH  11  13
ATOM     13  C   UNL     1     -35.253  20.180   1.832  0.00  0.00    +0.036 C 
ATOM     14  C   UNL     1     -36.424  19.881   1.136  0.00  0.00    +0.004 C 
ATOM     15  C   UNL     1     -34.060  19.538   1.500  0.00  0.00    +0.004 C 
ATOM     16  C   UNL     1     -36.401  18.940   0.107  0.00  0.00    +0.010 C 
ATOM     17  C   UNL     1     -34.038  18.597   0.470  0.00  0.00    +0.010 C 
ATOM     18  C   UNL     1     -35.208  18.298  -0.226  0.00  0.00    +0.068 C 
BRANCH  18  20
ATOM     19  N   UNL     1     -35.166  16.549  -2.138  0.00  0.00    -0.191 NA
ATOM     20  C   UNL     1     -35.185  17.334  -1.281  0.00  0.00    +0.100 C 
ENDBRANCH  18  20
ENDBRANCH  11  13
ENDBRANCH   5   9
ENDBRANCH   1   4
BRANCH   1  21
ATOM     21  C   UNL     1     -33.053  27.413   3.805  0.00  0.00    +0.145 C 
BRANCH  21  24
ATOM     22  F   UNL     1     -35.444  27.314   2.302  0.00  0.00    -0.204 F 
ATOM     23  F   UNL     1     -33.350  25.049  -1.286  0.00  0.00    -0.204 F 
ATOM     24  C   UNL     1     -33.137  26.768   2.415  0.00  0.00    +0.033 C 
ATOM     25  C   UNL     1     -34.345  26.770   1.762  0.00  0.00    +0.141 C 
ATOM     26  C   UNL     1     -31.996  26.217   1.883  0.00  0.00    +0.003 C 
ATOM     27  C   UNL     1     -34.418  26.183   0.498  0.00  0.00    +0.059 C 
ATOM     28  C   UNL     1     -32.069  25.629   0.620  0.00  0.00    +0.030 C 
ATOM     29  C   UNL     1     -33.279  25.613  -0.073  0.00  0.00    +0.142 C 
ENDBRANCH  21  24
BRANCH  21  30
ATOM     30  O   UNL     1     -31.698  27.387   4.275  0.00  0.00    -0.379 OA
ATOM     31  H   UNL     1     -31.458  28.262   4.620  0.00  0.00    +0.211 HD
ENDBRANCH  21  30
BRANCH  21  32
ATOM     32  C   UNL     1     -33.512  28.903   3.751  0.00  0.00    +0.151 C 
BRANCH  32  33
ATOM     33  N   UNL     1     -32.547  29.869   4.282  0.00  0.00    -0.188 N 
ATOM     34  N   UNL     1     -32.323  29.931   5.591  0.00  0.00    -0.154 NA
ATOM     35  N   UNL     1     -31.069  31.440   4.416  0.00  0.00    -0.203 NA
ATOM     36  C   UNL     1     -31.815  30.753   3.582  0.00  0.00    +0.186 C 
ATOM     37  C   UNL     1     -31.412  30.906   5.624  0.00  0.00    +0.218 C 
ENDBRANCH  32  33
ENDBRANCH  21  32
ENDBRANCH   1  21
TORSDOF 9
ENDMDL
MODEL 7
REMARK VINA RESULT:      -6.5      4.823     10.490
REMARK  Name = 5480221
REMARK  9 active torsions:
REMARK  status: ('A' for Active; 'I' for Inactive)
REMARK    1  A    between atoms: C_1  and  N_4
REMARK    2  A    between atoms: C_1  and  C_21
REMARK    3  A    between atoms: C_5  and  C_9
REMARK    4  A    between atoms: C_11  and  C_13
REMARK    5  A    between atoms: C_18  and  C_20
REMARK    6  A    between atoms: C_21  and  C_24
REMARK    7  A    between atoms: C_21  and  O_30
REMARK    8  A    between atoms: C_21  and  C_32
REMARK    9  A    between atoms: C_32  and  N_33
REMARK                            x       y       z     vdW  Elec       q    Type
REMARK                         _______ _______ _______ _____ _____    ______ ____
ROOT
ATOM      1  C   UNL     1     -34.582  26.557   4.630  0.00  0.00    +0.102 C 
ATOM      2  C   UNL     1     -33.546  26.754   5.742  0.00  0.00    +0.024 C 
ENDROOT
BRANCH   1   4
ATOM      3  O   UNL     1     -36.754  24.750   4.885  0.00  0.00    -0.274 OA
ATOM      4  N   UNL     1     -34.579  25.160   4.243  0.00  0.00    -0.302 N 
ATOM      5  C   UNL     1     -35.693  24.350   4.406  0.00  0.00    +0.239 C 
ATOM      6  H   UNL     1     -33.761  24.775   3.852  0.00  0.00    +0.150 HD
BRANCH   5   9
ATOM      7  S   UNL     1     -35.474  22.589   2.342  0.00  0.00    -0.067 S 
ATOM      8  N   UNL     1     -35.236  20.671   4.058  0.00  0.00    -0.403 NA
ATOM      9  C   UNL     1     -35.519  22.950   3.996  0.00  0.00    +0.178 C 
ATOM     10  C   UNL     1     -35.383  21.848   4.765  0.00  0.00    +0.107 C 
ATOM     11  C   UNL     1     -35.269  20.940   2.772  0.00  0.00    +0.157 C 
ATOM     12  C   UNL     1     -35.374  21.776   6.242  0.00  0.00    +0.063 C 
BRANCH  11  13
ATOM     13  C   UNL     1     -35.148  19.962   1.719  0.00  0.00    +0.036 C 
ATOM     14  C   UNL     1     -33.926  19.327   1.496  0.00  0.00    +0.004 C 
ATOM     15  C   UNL     1     -36.251  19.652   0.924  0.00  0.00    +0.004 C 
ATOM     16  C   UNL     1     -33.808  18.381   0.477  0.00  0.00    +0.010 C 
ATOM     17  C   UNL     1     -36.132  18.706  -0.094  0.00  0.00    +0.010 C 
ATOM     18  C   UNL     1     -34.912  18.071  -0.318  0.00  0.00    +0.068 C 
BRANCH  18  20
ATOM     19  N   UNL     1     -34.692  16.315  -2.211  0.00  0.00    -0.191 NA
ATOM     20  C   UNL     1     -34.791  17.102  -1.362  0.00  0.00    +0.100 C 
ENDBRANCH  18  20
ENDBRANCH  11  13
ENDBRANCH   5   9
ENDBRANCH   1   4
BRANCH   1  21
ATOM     21  C   UNL     1     -34.355  27.496   3.396  0.00  0.00    +0.145 C 
BRANCH  21  24
ATOM     22  F   UNL     1     -32.264  25.858   2.432  0.00  0.00    -0.204 F 
ATOM     23  F   UNL     1     -29.010  29.218   3.147  0.00  0.00    -0.204 F 
ATOM     24  C   UNL     1     -32.895  27.964   3.327  0.00  0.00    +0.033 C 
ATOM     25  C   UNL     1     -31.949  27.095   2.842  0.00  0.00    +0.141 C 
ATOM     26  C   UNL     1     -32.597  29.236   3.753  0.00  0.00    +0.003 C 
ATOM     27  C   UNL     1     -30.622  27.523   2.780  0.00  0.00    +0.059 C 
ATOM     28  C   UNL     1     -31.271  29.664   3.692  0.00  0.00    +0.030 C 
ATOM     29  C   UNL     1     -30.284  28.808   3.205  0.00  0.00    +0.142 C 
ENDBRANCH  21  24
BRANCH  21  30
ATOM     30  O   UNL     1     -35.222  28.626   3.573  0.00  0.00    -0.379 OA
ATOM     31  H   UNL     1     -35.938  28.590   2.920  0.00  0.00    +0.211 HD
ENDBRANCH  21  30
BRANCH  21  32
ATOM     32  C   UNL     1     -34.768  26.780   2.073  0.00  0.00    +0.151 C 
BRANCH  32  33
ATOM     33  N   UNL     1     -36.071  27.177   1.534  0.00  0.00    -0.188 N 
ATOM     34  N   UNL     1     -36.154  28.190   0.677  0.00  0.00    -0.154 NA
ATOM     35  N   UNL     1     -38.192  27.256   1.126  0.00  0.00    -0.203 NA
ATOM     36  C   UNL     1     -37.265  26.621   1.806  0.00  0.00    +0.186 C 
ATOM     37  C   UNL     1     -37.470  28.200   0.456  0.00  0.00    +0.218 C 
ENDBRANCH  32  33
ENDBRANCH  21  32
ENDBRANCH   1  21
TORSDOF 9
ENDMDL
MODEL 8
REMARK VINA RESULT:      -6.5      3.398      5.799
REMARK  Name = 5480221
REMARK  9 active torsions:
REMARK  status: ('A' for Active; 'I' for Inactive)
REMARK    1  A    between atoms: C_1  and  N_4
REMARK    2  A    between atoms: C_1  and  C_21
REMARK    3  A    between atoms: C_5  and  C_9
REMARK    4  A    between atoms: C_11  and  C_13
REMARK    5  A    between atoms: C_18  and  C_20
REMARK    6  A    between atoms: C_21  and  C_24
REMARK    7  A    between atoms: C_21  and  O_30
REMARK    8  A    between atoms: C_21  and  C_32
REMARK    9  A    between atoms: C_32  and  N_33
REMARK                            x       y       z     vdW  Elec       q    Type
REMARK                         _______ _______ _______ _____ _____    ______ ____
ROOT
ATOM      1  C   UNL     1     -36.586  20.619  -0.226  0.00  0.00    +0.102 C 
ATOM      2  C   UNL     1     -35.652  21.078  -1.351  0.00  0.00    +0.024 C 
ENDROOT
BRANCH   1   4
ATOM      3  O   UNL     1     -39.361  20.163   0.146  0.00  0.00    -0.274 OA
ATOM      4  N   UNL     1     -37.598  21.637  -0.027  0.00  0.00    -0.302 N 
ATOM      5  C   UNL     1     -38.937  21.318   0.147  0.00  0.00    +0.239 C 
ATOM      6  H   UNL     1     -37.327  22.584  -0.014  0.00  0.00    +0.150 HD
BRANCH   5   9
ATOM      7  S   UNL     1     -39.810  23.331   1.758  0.00  0.00    -0.067 S 
ATOM      8  N   UNL     1     -41.441  24.062  -0.109  0.00  0.00    -0.403 NA
ATOM      9  C   UNL     1     -39.842  22.465   0.304  0.00  0.00    +0.178 C 
ATOM     10  C   UNL     1     -40.742  22.964  -0.571  0.00  0.00    +0.107 C 
ATOM     11  C   UNL     1     -41.033  24.345   1.108  0.00  0.00    +0.157 C 
ATOM     12  C   UNL     1     -41.046  22.472  -1.931  0.00  0.00    +0.063 C 
BRANCH  11  13
ATOM     13  C   UNL     1     -41.534  25.429   1.918  0.00  0.00    +0.036 C 
ATOM     14  C   UNL     1     -42.725  26.065   1.570  0.00  0.00    +0.004 C 
ATOM     15  C   UNL     1     -40.826  25.840   3.048  0.00  0.00    +0.004 C 
ATOM     16  C   UNL     1     -43.210  27.113   2.353  0.00  0.00    +0.010 C 
ATOM     17  C   UNL     1     -41.312  26.888   3.830  0.00  0.00    +0.010 C 
ATOM     18  C   UNL     1     -42.503  27.524   3.483  0.00  0.00    +0.068 C 
BRANCH  18  20
ATOM     19  N   UNL     1     -43.403  29.472   4.936  0.00  0.00    -0.191 NA
ATOM     20  C   UNL     1     -43.000  28.599   4.285  0.00  0.00    +0.100 C 
ENDBRANCH  18  20
ENDBRANCH  11  13
ENDBRANCH   5   9
ENDBRANCH   1   4
BRANCH   1  21
ATOM     21  C   UNL     1     -35.834  20.287   1.109  0.00  0.00    +0.145 C 
BRANCH  21  24
ATOM     22  F   UNL     1     -36.417  17.873  -0.240  0.00  0.00    -0.204 F 
ATOM     23  F   UNL     1     -32.006  16.249   0.307  0.00  0.00    -0.204 F 
ATOM     24  C   UNL     1     -34.791  19.183   0.888  0.00  0.00    +0.033 C 
ATOM     25  C   UNL     1     -35.170  18.045   0.220  0.00  0.00    +0.141 C 
ATOM     26  C   UNL     1     -33.519  19.383   1.370  0.00  0.00    +0.003 C 
ATOM     27  C   UNL     1     -34.219  17.043   0.021  0.00  0.00    +0.059 C 
ATOM     28  C   UNL     1     -32.569  18.381   1.172  0.00  0.00    +0.030 C 
ATOM     29  C   UNL     1     -32.919  17.212   0.497  0.00  0.00    +0.142 C 
ENDBRANCH  21  24
BRANCH  21  30
ATOM     30  O   UNL     1     -36.828  19.839   2.042  0.00  0.00    -0.379 OA
ATOM     31  H   UNL     1     -37.583  19.469   1.557  0.00  0.00    +0.211 HD
ENDBRANCH  21  30
BRANCH  21  32
ATOM     32  C   UNL     1     -35.167  21.567   1.699  0.00  0.00    +0.151 C 
BRANCH  32  33
ATOM     33  N   UNL     1     -35.513  21.861   3.092  0.00  0.00    -0.188 N 
ATOM     34  N   UNL     1     -35.115  21.044   4.062  0.00  0.00    -0.154 NA
ATOM     35  N   UNL     1     -36.318  22.820   4.854  0.00  0.00    -0.203 NA
ATOM     36  C   UNL     1     -36.223  22.909   3.547  0.00  0.00    +0.186 C 
ATOM     37  C   UNL     1     -35.631  21.671   5.121  0.00  0.00    +0.218 C 
ENDBRANCH  32  33
ENDBRANCH  21  32
ENDBRANCH   1  21
TORSDOF 9
ENDMDL
MODEL 9
REMARK VINA RESULT:      -6.4      9.168     13.439
REMARK  Name = 5480221
REMARK  9 active torsions:
REMARK  status: ('A' for Active; 'I' for Inactive)
REMARK    1  A    between atoms: C_1  and  N_4
REMARK    2  A    between atoms: C_1  and  C_21
REMARK    3  A    between atoms: C_5  and  C_9
REMARK    4  A    between atoms: C_11  and  C_13
REMARK    5  A    between atoms: C_18  and  C_20
REMARK    6  A    between atoms: C_21  and  C_24
REMARK    7  A    between atoms: C_21  and  O_30
REMARK    8  A    between atoms: C_21  and  C_32
REMARK    9  A    between atoms: C_32  and  N_33
REMARK                            x       y       z     vdW  Elec       q    Type
REMARK                         _______ _______ _______ _____ _____    ______ ____
ROOT
ATOM      1  C   UNL     1     -37.828  31.683  -0.395  0.00  0.00    +0.102 C 
ATOM      2  C   UNL     1     -38.382  30.796  -1.516  0.00  0.00    +0.024 C 
ENDROOT
BRANCH   1   4
ATOM      3  O   UNL     1     -35.143  30.773  -0.300  0.00  0.00    -0.274 OA
ATOM      4  N   UNL     1     -37.254  30.827   0.624  0.00  0.00    -0.302 N 
ATOM      5  C   UNL     1     -35.925  30.432   0.588  0.00  0.00    +0.239 C 
ATOM      6  H   UNL     1     -37.824  30.518   1.366  0.00  0.00    +0.150 HD
BRANCH   5   9
ATOM      7  S   UNL     1     -36.019  27.926   1.647  0.00  0.00    -0.067 S 
ATOM      8  N   UNL     1     -34.524  28.736   3.593  0.00  0.00    -0.403 NA
ATOM      9  C   UNL     1     -35.504  29.538   1.676  0.00  0.00    +0.178 C 
ATOM     10  C   UNL     1     -34.733  29.811   2.751  0.00  0.00    +0.107 C 
ATOM     11  C   UNL     1     -35.155  27.689   3.110  0.00  0.00    +0.157 C 
ATOM     12  C   UNL     1     -34.107  31.102   3.107  0.00  0.00    +0.063 C 
BRANCH  11  13
ATOM     13  C   UNL     1     -35.170  26.380   3.716  0.00  0.00    +0.036 C 
ATOM     14  C   UNL     1     -34.742  25.270   2.988  0.00  0.00    +0.004 C 
ATOM     15  C   UNL     1     -35.614  26.225   5.030  0.00  0.00    +0.004 C 
ATOM     16  C   UNL     1     -34.757  24.004   3.574  0.00  0.00    +0.010 C 
ATOM     17  C   UNL     1     -35.628  24.958   5.615  0.00  0.00    +0.010 C 
ATOM     18  C   UNL     1     -35.200  23.849   4.888  0.00  0.00    +0.068 C 
BRANCH  18  20
ATOM     19  N   UNL     1     -35.228  21.497   5.976  0.00  0.00    -0.191 NA
ATOM     20  C   UNL     1     -35.216  22.551   5.488  0.00  0.00    +0.100 C 
ENDBRANCH  18  20
ENDBRANCH  11  13
ENDBRANCH   5   9
ENDBRANCH   1   4
BRANCH   1  21
ATOM     21  C   UNL     1     -38.895  32.660   0.208  0.00  0.00    +0.145 C 
BRANCH  21  24
ATOM     22  F   UNL     1     -39.588  34.351   2.363  0.00  0.00    -0.204 F 
ATOM     23  F   UNL     1     -36.749  37.816   0.840  0.00  0.00    -0.204 F 
ATOM     24  C   UNL     1     -38.310  34.068   0.383  0.00  0.00    +0.033 C 
ATOM     25  C   UNL     1     -38.709  34.815   1.464  0.00  0.00    +0.141 C 
ATOM     26  C   UNL     1     -37.411  34.521  -0.552  0.00  0.00    +0.003 C 
ATOM     27  C   UNL     1     -38.176  36.095   1.621  0.00  0.00    +0.059 C 
ATOM     28  C   UNL     1     -36.878  35.800  -0.396  0.00  0.00    +0.030 C 
ATOM     29  C   UNL     1     -37.260  36.587   0.690  0.00  0.00    +0.142 C 
ENDBRANCH  21  24
BRANCH  21  30
ATOM     30  O   UNL     1     -39.269  32.125   1.486  0.00  0.00    -0.379 OA
ATOM     31  H   UNL     1     -38.517  32.188   2.095  0.00  0.00    +0.211 HD
ENDBRANCH  21  30
BRANCH  21  32
ATOM     32  C   UNL     1     -40.173  32.701  -0.685  0.00  0.00    +0.151 C 
BRANCH  32  33
ATOM     33  N   UNL     1     -41.352  33.299  -0.055  0.00  0.00    -0.188 N 
ATOM     34  N   UNL     1     -41.966  32.666   0.940  0.00  0.00    -0.154 NA
ATOM     35  N   UNL     1     -42.963  34.658   0.425  0.00  0.00    -0.203 NA
ATOM     36  C   UNL     1     -41.931  34.472  -0.366  0.00  0.00    +0.186 C 
ATOM     37  C   UNL     1     -42.944  33.536   1.201  0.00  0.00    +0.218 C 
ENDBRANCH  32  33
ENDBRANCH  21  32
ENDBRANCH   1  21
TORSDOF 9
ENDMDL
