MODEL 1
REMARK VINA RESULT:      -7.5      0.000      0.000
REMARK  Name = 5320418
REMARK  6 active torsions:
REMARK  status: ('A' for Active; 'I' for Inactive)
REMARK    1  A    between atoms: C_9  and  O_22
REMARK    2  A    between atoms: C_11  and  C_30
REMARK    3  A    between atoms: C_12  and  O_24
REMARK    4  A    between atoms: C_17  and  C_29
REMARK    5  A    between atoms: C_19  and  O_26
REMARK    6  A    between atoms: C_30  and  O_31
REMARK                            x       y       z     vdW  Elec       q    Type
REMARK                         _______ _______ _______ _____ _____    ______ ____
ROOT
ATOM      1  O   UNL     1     -36.524  23.001   1.721  0.00  0.00    -0.450 OA
ATOM      2  O   UNL     1     -39.684  20.460   0.132  0.00  0.00    -0.417 OA
ATOM      3  O   UNL     1     -37.591  25.625   2.252  0.00  0.00    -0.418 OA
ATOM      4  O   UNL     1     -41.822  21.313  -0.104  0.00  0.00    -0.245 OA
ATOM      5  O   UNL     1     -35.821  26.619   3.308  0.00  0.00    -0.244 OA
ATOM      6  C   UNL     1     -38.674  22.323   0.986  0.00  0.00    +0.094 A 
ATOM      7  C   UNL     1     -37.844  23.290   1.523  0.00  0.00    +0.182 A 
ATOM      8  C   UNL     1     -40.009  22.604   0.763  0.00  0.00    +0.114 A 
ATOM      9  C   UNL     1     -38.391  20.925   0.591  0.00  0.00    +0.315 C 
ATOM     10  C   UNL     1     -38.386  24.544   1.798  0.00  0.00    +0.184 A 
ATOM     11  C   UNL     1     -39.739  24.828   1.552  0.00  0.00    +0.079 A 
ATOM     12  C   UNL     1     -40.573  23.839   1.032  0.00  0.00    +0.141 A 
ATOM     13  C   UNL     1     -36.138  23.106   3.033  0.00  0.00    +0.157 C 
ATOM     14  C   UNL     1     -40.655  21.422   0.214  0.00  0.00    +0.346 C 
ATOM     15  C   UNL     1     -36.116  24.322   3.715  0.00  0.00    +0.107 C 
ATOM     16  C   UNL     1     -35.675  24.360   5.042  0.00  0.00    -0.010 C 
ATOM     17  C   UNL     1     -35.709  21.934   3.665  0.00  0.00    +0.110 C 
ATOM     18  C   UNL     1     -36.463  25.603   3.070  0.00  0.00    +0.348 C 
ATOM     19  C   UNL     1     -35.281  21.976   4.990  0.00  0.00    +0.139 C 
ATOM     20  C   UNL     1     -35.267  23.187   5.679  0.00  0.00    +0.033 C 
ATOM     21  C   UNL     1     -35.648  25.619   5.852  0.00  0.00    +0.031 C 
ENDROOT
BRANCH   9  22
ATOM     22  O   UNL     1     -37.426  20.889  -0.444  0.00  0.00    -0.347 OA
ATOM     23  H   UNL     1     -36.550  21.082  -0.076  0.00  0.00    +0.214 HD
ENDBRANCH   9  22
BRANCH  12  24
ATOM     24  O   UNL     1     -41.887  24.083   0.793  0.00  0.00    -0.505 OA
ATOM     25  H   UNL     1     -42.385  23.491   0.263  0.00  0.00    +0.292 HD
ENDBRANCH  12  24
BRANCH  19  26
ATOM     26  O   UNL     1     -34.866  20.847   5.630  0.00  0.00    -0.505 OA
ATOM     27  H   UNL     1     -33.954  20.631   5.656  0.00  0.00    +0.292 HD
ENDBRANCH  19  26
BRANCH  17  29
ATOM     28  O   UNL     1     -34.664  20.037   2.696  0.00  0.00    -0.283 OA
ATOM     29  C   UNL     1     -35.684  20.664   2.947  0.00  0.00    +0.240 C 
ENDBRANCH  17  29
BRANCH  11  30
ATOM     30  C   UNL     1     -40.289  26.189   1.841  0.00  0.00    +0.170 C 
BRANCH  30  31
ATOM     31  O   UNL     1     -40.018  26.467   3.209  0.00  0.00    -0.377 OA
ATOM     32  H   UNL     1     -40.786  26.904   3.608  0.00  0.00    +0.211 HD
ENDBRANCH  30  31
ENDBRANCH  11  30
TORSDOF 6
ENDMDL
MODEL 2
REMARK VINA RESULT:      -6.7      1.776      5.137
REMARK  Name = 5320418
REMARK  6 active torsions:
REMARK  status: ('A' for Active; 'I' for Inactive)
REMARK    1  A    between atoms: C_9  and  O_22
REMARK    2  A    between atoms: C_11  and  C_30
REMARK    3  A    between atoms: C_12  and  O_24
REMARK    4  A    between atoms: C_17  and  C_29
REMARK    5  A    between atoms: C_19  and  O_26
REMARK    6  A    between atoms: C_30  and  O_31
REMARK                            x       y       z     vdW  Elec       q    Type
REMARK                         _______ _______ _______ _____ _____    ______ ____
ROOT
ATOM      1  O   UNL     1     -37.929  21.701   2.660  0.00  0.00    -0.450 OA
ATOM      2  O   UNL     1     -38.813  20.648  -1.473  0.00  0.00    -0.417 OA
ATOM      3  O   UNL     1     -35.333  20.672   3.369  0.00  0.00    -0.418 OA
ATOM      4  O   UNL     1     -37.246  19.481  -2.711  0.00  0.00    -0.245 OA
ATOM      5  O   UNL     1     -35.039  21.597   5.440  0.00  0.00    -0.244 OA
ATOM      6  C   UNL     1     -37.644  20.802   0.484  0.00  0.00    +0.094 A 
ATOM      7  C   UNL     1     -37.149  21.043   1.753  0.00  0.00    +0.182 A 
ATOM      8  C   UNL     1     -36.874  20.122  -0.441  0.00  0.00    +0.114 A 
ATOM      9  C   UNL     1     -38.937  21.177  -0.130  0.00  0.00    +0.315 C 
ATOM     10  C   UNL     1     -35.880  20.561   2.067  0.00  0.00    +0.184 A 
ATOM     11  C   UNL     1     -35.110  19.856   1.127  0.00  0.00    +0.079 A 
ATOM     12  C   UNL     1     -35.609  19.638  -0.156  0.00  0.00    +0.141 A 
ATOM     13  C   UNL     1     -37.373  22.872   3.107  0.00  0.00    +0.157 C 
ATOM     14  C   UNL     1     -37.617  20.018  -1.687  0.00  0.00    +0.346 C 
ATOM     15  C   UNL     1     -36.210  22.904   3.876  0.00  0.00    +0.107 C 
ATOM     16  C   UNL     1     -35.718  24.133   4.330  0.00  0.00    -0.010 C 
ATOM     17  C   UNL     1     -38.050  24.056   2.801  0.00  0.00    +0.110 C 
ATOM     18  C   UNL     1     -35.509  21.682   4.312  0.00  0.00    +0.348 C 
ATOM     19  C   UNL     1     -37.550  25.277   3.245  0.00  0.00    +0.139 C 
ATOM     20  C   UNL     1     -36.384  25.317   4.006  0.00  0.00    +0.033 C 
ATOM     21  C   UNL     1     -34.463  24.258   5.136  0.00  0.00    +0.031 C 
ENDROOT
BRANCH   9  22
ATOM     22  O   UNL     1     -40.011  20.576   0.571  0.00  0.00    -0.347 OA
ATOM     23  H   UNL     1     -39.972  20.835   1.505  0.00  0.00    +0.214 HD
ENDBRANCH   9  22
BRANCH  12  24
ATOM     24  O   UNL     1     -34.884  18.968  -1.087  0.00  0.00    -0.505 OA
ATOM     25  H   UNL     1     -35.083  19.067  -1.998  0.00  0.00    +0.292 HD
ENDBRANCH  12  24
BRANCH  19  26
ATOM     26  O   UNL     1     -38.188  26.446   2.953  0.00  0.00    -0.505 OA
ATOM     27  H   UNL     1     -37.889  27.251   3.329  0.00  0.00    +0.292 HD
ENDBRANCH  19  26
BRANCH  17  29
ATOM     28  O   UNL     1     -40.339  24.545   2.405  0.00  0.00    -0.283 OA
ATOM     29  C   UNL     1     -39.292  24.029   2.035  0.00  0.00    +0.240 C 
ENDBRANCH  17  29
BRANCH  11  30
ATOM     30  C   UNL     1     -33.757  19.336   1.498  0.00  0.00    +0.170 C 
BRANCH  30  31
ATOM     31  O   UNL     1     -33.738  17.953   1.171  0.00  0.00    -0.377 OA
ATOM     32  H   UNL     1     -33.354  17.451   1.907  0.00  0.00    +0.211 HD
ENDBRANCH  30  31
ENDBRANCH  11  30
TORSDOF 6
ENDMDL
MODEL 3
REMARK VINA RESULT:      -6.7      2.223      5.240
REMARK  Name = 5320418
REMARK  6 active torsions:
REMARK  status: ('A' for Active; 'I' for Inactive)
REMARK    1  A    between atoms: C_9  and  O_22
REMARK    2  A    between atoms: C_11  and  C_30
REMARK    3  A    between atoms: C_12  and  O_24
REMARK    4  A    between atoms: C_17  and  C_29
REMARK    5  A    between atoms: C_19  and  O_26
REMARK    6  A    between atoms: C_30  and  O_31
REMARK                            x       y       z     vdW  Elec       q    Type
REMARK                         _______ _______ _______ _____ _____    ______ ____
ROOT
ATOM      1  O   UNL     1     -37.085  25.821   3.401  0.00  0.00    -0.450 OA
ATOM      2  O   UNL     1     -38.743  22.790   0.749  0.00  0.00    -0.417 OA
ATOM      3  O   UNL     1     -35.287  24.567   5.271  0.00  0.00    -0.418 OA
ATOM      4  O   UNL     1     -38.079  20.586   0.982  0.00  0.00    -0.245 OA
ATOM      5  O   UNL     1     -34.387  26.393   6.315  0.00  0.00    -0.244 OA
ATOM      6  C   UNL     1     -37.480  23.697   2.423  0.00  0.00    +0.094 A 
ATOM      7  C   UNL     1     -36.818  24.483   3.349  0.00  0.00    +0.182 A 
ATOM      8  C   UNL     1     -37.235  22.338   2.368  0.00  0.00    +0.114 A 
ATOM      9  C   UNL     1     -38.467  24.063   1.383  0.00  0.00    +0.315 C 
ATOM     10  C   UNL     1     -35.932  23.861   4.226  0.00  0.00    +0.184 A 
ATOM     11  C   UNL     1     -35.700  22.476   4.177  0.00  0.00    +0.079 A 
ATOM     12  C   UNL     1     -36.356  21.697   3.224  0.00  0.00    +0.141 A 
ATOM     13  C   UNL     1     -35.983  26.603   3.164  0.00  0.00    +0.157 C 
ATOM     14  C   UNL     1     -38.041  21.755   1.307  0.00  0.00    +0.346 C 
ATOM     15  C   UNL     1     -34.893  26.646   4.033  0.00  0.00    +0.107 C 
ATOM     16  C   UNL     1     -33.818  27.495   3.748  0.00  0.00    -0.010 C 
ATOM     17  C   UNL     1     -36.009  27.411   2.024  0.00  0.00    +0.110 C 
ATOM     18  C   UNL     1     -34.853  25.890   5.299  0.00  0.00    +0.348 C 
ATOM     19  C   UNL     1     -34.932  28.247   1.739  0.00  0.00    +0.139 C 
ATOM     20  C   UNL     1     -33.836  28.287   2.598  0.00  0.00    +0.033 C 
ATOM     21  C   UNL     1     -32.599  27.580   4.613  0.00  0.00    +0.031 C 
ENDROOT
BRANCH   9  22
ATOM     22  O   UNL     1     -39.628  24.615   1.975  0.00  0.00    -0.347 OA
ATOM     23  H   UNL     1     -40.400  24.078   1.736  0.00  0.00    +0.214 HD
ENDBRANCH   9  22
BRANCH  12  24
ATOM     24  O   UNL     1     -36.145  20.358   3.148  0.00  0.00    -0.505 OA
ATOM     25  H   UNL     1     -35.818  19.979   2.355  0.00  0.00    +0.292 HD
ENDBRANCH  12  24
BRANCH  19  26
ATOM     26  O   UNL     1     -34.931  29.038   0.629  0.00  0.00    -0.505 OA
ATOM     27  H   UNL     1     -35.740  29.352   0.276  0.00  0.00    +0.292 HD
ENDBRANCH  19  26
BRANCH  17  29
ATOM     28  O   UNL     1     -37.784  28.412   0.806  0.00  0.00    -0.283 OA
ATOM     29  C   UNL     1     -37.165  27.408   1.132  0.00  0.00    +0.240 C 
ENDBRANCH  17  29
BRANCH  11  30
ATOM     30  C   UNL     1     -34.757  21.834   5.143  0.00  0.00    +0.170 C 
BRANCH  30  31
ATOM     31  O   UNL     1     -35.485  20.824   5.829  0.00  0.00    -0.377 OA
ATOM     32  H   UNL     1     -36.148  20.443   5.233  0.00  0.00    +0.211 HD
ENDBRANCH  30  31
ENDBRANCH  11  30
TORSDOF 6
ENDMDL
MODEL 4
REMARK VINA RESULT:      -6.7      1.888      5.413
REMARK  Name = 5320418
REMARK  6 active torsions:
REMARK  status: ('A' for Active; 'I' for Inactive)
REMARK    1  A    between atoms: C_9  and  O_22
REMARK    2  A    between atoms: C_11  and  C_30
REMARK    3  A    between atoms: C_12  and  O_24
REMARK    4  A    between atoms: C_17  and  C_29
REMARK    5  A    between atoms: C_19  and  O_26
REMARK    6  A    between atoms: C_30  and  O_31
REMARK                            x       y       z     vdW  Elec       q    Type
REMARK                         _______ _______ _______ _____ _____    ______ ____
ROOT
ATOM      1  O   UNL     1     -37.299  24.321   3.861  0.00  0.00    -0.450 OA
ATOM      2  O   UNL     1     -34.294  27.470   4.035  0.00  0.00    -0.417 OA
ATOM      3  O   UNL     1     -39.170  24.908   1.749  0.00  0.00    -0.418 OA
ATOM      4  O   UNL     1     -34.381  29.212   2.516  0.00  0.00    -0.245 OA
ATOM      5  O   UNL     1     -40.423  22.995   1.722  0.00  0.00    -0.244 OA
ATOM      6  C   UNL     1     -36.119  26.303   3.308  0.00  0.00    +0.094 A 
ATOM      7  C   UNL     1     -37.150  25.415   3.058  0.00  0.00    +0.182 A 
ATOM      8  C   UNL     1     -35.965  27.425   2.516  0.00  0.00    +0.114 A 
ATOM      9  C   UNL     1     -35.051  26.270   4.331  0.00  0.00    +0.315 C 
ATOM     10  C   UNL     1     -38.028  25.703   2.015  0.00  0.00    +0.184 A 
ATOM     11  C   UNL     1     -37.875  26.854   1.224  0.00  0.00    +0.079 A 
ATOM     12  C   UNL     1     -36.819  27.731   1.470  0.00  0.00    +0.141 A 
ATOM     13  C   UNL     1     -37.203  23.133   3.182  0.00  0.00    +0.157 C 
ATOM     14  C   UNL     1     -34.807  28.173   2.978  0.00  0.00    +0.346 C 
ATOM     15  C   UNL     1     -38.143  22.735   2.231  0.00  0.00    +0.107 C 
ATOM     16  C   UNL     1     -38.003  21.492   1.603  0.00  0.00    -0.010 C 
ATOM     17  C   UNL     1     -36.137  22.293   3.516  0.00  0.00    +0.110 C 
ATOM     18  C   UNL     1     -39.339  23.535   1.910  0.00  0.00    +0.348 C 
ATOM     19  C   UNL     1     -35.996  21.062   2.880  0.00  0.00    +0.139 C 
ATOM     20  C   UNL     1     -36.926  20.663   1.923  0.00  0.00    +0.033 C 
ATOM     21  C   UNL     1     -38.950  21.002   0.553  0.00  0.00    +0.031 C 
ENDROOT
BRANCH   9  22
ATOM     22  O   UNL     1     -35.610  26.314   5.632  0.00  0.00    -0.347 OA
ATOM     23  H   UNL     1     -35.375  25.506   6.113  0.00  0.00    +0.214 HD
ENDBRANCH   9  22
BRANCH  12  24
ATOM     24  O   UNL     1     -36.642  28.846   0.717  0.00  0.00    -0.505 OA
ATOM     25  H   UNL     1     -35.856  28.956   0.219  0.00  0.00    +0.292 HD
ENDBRANCH  12  24
BRANCH  19  26
ATOM     26  O   UNL     1     -34.960  20.229   3.184  0.00  0.00    -0.505 OA
ATOM     27  H   UNL     1     -34.645  19.622   2.544  0.00  0.00    +0.292 HD
ENDBRANCH  19  26
BRANCH  17  29
ATOM     28  O   UNL     1     -34.979  22.052   5.574  0.00  0.00    -0.283 OA
ATOM     29  C   UNL     1     -35.174  22.681   4.543  0.00  0.00    +0.240 C 
ENDBRANCH  17  29
BRANCH  11  30
ATOM     30  C   UNL     1     -38.843  27.147   0.122  0.00  0.00    +0.170 C 
BRANCH  30  31
ATOM     31  O   UNL     1     -40.047  27.594   0.731  0.00  0.00    -0.377 OA
ATOM     32  H   UNL     1     -40.013  27.414   1.684  0.00  0.00    +0.211 HD
ENDBRANCH  30  31
ENDBRANCH  11  30
TORSDOF 6
ENDMDL
MODEL 5
REMARK VINA RESULT:      -6.5      3.384      6.140
REMARK  Name = 5320418
REMARK  6 active torsions:
REMARK  status: ('A' for Active; 'I' for Inactive)
REMARK    1  A    between atoms: C_9  and  O_22
REMARK    2  A    between atoms: C_11  and  C_30
REMARK    3  A    between atoms: C_12  and  O_24
REMARK    4  A    between atoms: C_17  and  C_29
REMARK    5  A    between atoms: C_19  and  O_26
REMARK    6  A    between atoms: C_30  and  O_31
REMARK                            x       y       z     vdW  Elec       q    Type
REMARK                         _______ _______ _______ _____ _____    ______ ____
ROOT
ATOM      1  O   UNL     1     -35.133  22.936   0.828  0.00  0.00    -0.450 OA
ATOM      2  O   UNL     1     -36.859  24.109   4.651  0.00  0.00    -0.417 OA
ATOM      3  O   UNL     1     -32.893  24.647   0.232  0.00  0.00    -0.418 OA
ATOM      4  O   UNL     1     -35.903  25.841   5.850  0.00  0.00    -0.245 OA
ATOM      5  O   UNL     1     -32.049  23.639  -1.640  0.00  0.00    -0.244 OA
ATOM      6  C   UNL     1     -35.437  24.115   2.863  0.00  0.00    +0.094 A 
ATOM      7  C   UNL     1     -34.721  23.903   1.699  0.00  0.00    +0.182 A 
ATOM      8  C   UNL     1     -35.043  25.102   3.748  0.00  0.00    +0.114 A 
ATOM      9  C   UNL     1     -36.630  23.421   3.396  0.00  0.00    +0.315 C 
ATOM     10  C   UNL     1     -33.624  24.723   1.443  0.00  0.00    +0.184 A 
ATOM     11  C   UNL     1     -33.239  25.736   2.338  0.00  0.00    +0.079 A 
ATOM     12  C   UNL     1     -33.955  25.926   3.520  0.00  0.00    +0.141 A 
ATOM     13  C   UNL     1     -34.194  21.959   0.618  0.00  0.00    +0.157 C 
ATOM     14  C   UNL     1     -35.949  25.104   4.886  0.00  0.00    +0.346 C 
ATOM     15  C   UNL     1     -32.980  22.211  -0.021  0.00  0.00    +0.107 C 
ATOM     16  C   UNL     1     -32.083  21.157  -0.235  0.00  0.00    -0.010 C 
ATOM     17  C   UNL     1     -34.521  20.664   1.029  0.00  0.00    +0.110 C 
ATOM     18  C   UNL     1     -32.624  23.535  -0.563  0.00  0.00    +0.348 C 
ATOM     19  C   UNL     1     -33.620  19.621   0.823  0.00  0.00    +0.139 C 
ATOM     20  C   UNL     1     -32.402  19.868   0.194  0.00  0.00    +0.033 C 
ATOM     21  C   UNL     1     -30.749  21.347  -0.887  0.00  0.00    +0.031 C 
ENDROOT
BRANCH   9  22
ATOM     22  O   UNL     1     -37.726  23.570   2.512  0.00  0.00    -0.347 OA
ATOM     23  H   UNL     1     -38.526  23.208   2.924  0.00  0.00    +0.214 HD
ENDBRANCH   9  22
BRANCH  12  24
ATOM     24  O   UNL     1     -33.601  26.890   4.407  0.00  0.00    -0.505 OA
ATOM     25  H   UNL     1     -34.213  27.562   4.638  0.00  0.00    +0.292 HD
ENDBRANCH  12  24
BRANCH  19  26
ATOM     26  O   UNL     1     -33.913  18.351   1.222  0.00  0.00    -0.505 OA
ATOM     27  H   UNL     1     -33.431  17.957   1.923  0.00  0.00    +0.292 HD
ENDBRANCH  19  26
BRANCH  17  29
ATOM     28  O   UNL     1     -35.949  20.103   2.840  0.00  0.00    -0.283 OA
ATOM     29  C   UNL     1     -35.808  20.381   1.657  0.00  0.00    +0.240 C 
ENDBRANCH  17  29
BRANCH  11  30
ATOM     30  C   UNL     1     -32.068  26.612   2.028  0.00  0.00    +0.170 C 
BRANCH  30  31
ATOM     31  O   UNL     1     -30.896  25.860   2.313  0.00  0.00    -0.377 OA
ATOM     32  H   UNL     1     -30.702  25.269   1.569  0.00  0.00    +0.211 HD
ENDBRANCH  30  31
ENDBRANCH  11  30
TORSDOF 6
ENDMDL
MODEL 6
REMARK VINA RESULT:      -6.5      1.778      5.519
REMARK  Name = 5320418
REMARK  6 active torsions:
REMARK  status: ('A' for Active; 'I' for Inactive)
REMARK    1  A    between atoms: C_9  and  O_22
REMARK    2  A    between atoms: C_11  and  C_30
REMARK    3  A    between atoms: C_12  and  O_24
REMARK    4  A    between atoms: C_17  and  C_29
REMARK    5  A    between atoms: C_19  and  O_26
REMARK    6  A    between atoms: C_30  and  O_31
REMARK                            x       y       z     vdW  Elec       q    Type
REMARK                         _______ _______ _______ _____ _____    ______ ____
ROOT
ATOM      1  O   UNL     1     -37.599  20.950   2.256  0.00  0.00    -0.450 OA
ATOM      2  O   UNL     1     -34.793  23.441   4.468  0.00  0.00    -0.417 OA
ATOM      3  O   UNL     1     -40.002  22.455   1.739  0.00  0.00    -0.418 OA
ATOM      4  O   UNL     1     -35.365  25.623   4.981  0.00  0.00    -0.245 OA
ATOM      5  O   UNL     1     -41.135  21.022   0.363  0.00  0.00    -0.244 OA
ATOM      6  C   UNL     1     -36.698  22.848   3.356  0.00  0.00    +0.094 A 
ATOM      7  C   UNL     1     -37.722  22.255   2.639  0.00  0.00    +0.182 A 
ATOM      8  C   UNL     1     -36.814  24.163   3.767  0.00  0.00    +0.114 A 
ATOM      9  C   UNL     1     -35.389  22.310   3.786  0.00  0.00    +0.315 C 
ATOM     10  C   UNL     1     -38.864  23.008   2.376  0.00  0.00    +0.184 A 
ATOM     11  C   UNL     1     -38.982  24.339   2.811  0.00  0.00    +0.079 A 
ATOM     12  C   UNL     1     -37.935  24.935   3.513  0.00  0.00    +0.141 A 
ATOM     13  C   UNL     1     -37.646  20.778   0.896  0.00  0.00    +0.157 C 
ATOM     14  C   UNL     1     -35.605  24.543   4.479  0.00  0.00    +0.346 C 
ATOM     15  C   UNL     1     -38.794  21.034   0.147  0.00  0.00    +0.107 C 
ATOM     16  C   UNL     1     -38.783  20.800  -1.233  0.00  0.00    -0.010 C 
ATOM     17  C   UNL     1     -36.496  20.279   0.277  0.00  0.00    +0.110 C 
ATOM     18  C   UNL     1     -40.065  21.467   0.759  0.00  0.00    +0.348 C 
ATOM     19  C   UNL     1     -36.486  20.059  -1.098  0.00  0.00    +0.139 C 
ATOM     20  C   UNL     1     -37.627  20.322  -1.853  0.00  0.00    +0.033 C 
ATOM     21  C   UNL     1     -39.962  21.075  -2.112  0.00  0.00    +0.031 C 
ENDROOT
BRANCH   9  22
ATOM     22  O   UNL     1     -35.570  21.210   4.659  0.00  0.00    -0.347 OA
ATOM     23  H   UNL     1     -35.920  21.523   5.507  0.00  0.00    +0.214 HD
ENDBRANCH   9  22
BRANCH  12  24
ATOM     24  O   UNL     1     -38.018  26.221   3.939  0.00  0.00    -0.505 OA
ATOM     25  H   UNL     1     -37.250  26.759   3.959  0.00  0.00    +0.292 HD
ENDBRANCH  12  24
BRANCH  19  26
ATOM     26  O   UNL     1     -35.374  19.581  -1.725  0.00  0.00    -0.505 OA
ATOM     27  H   UNL     1     -35.387  18.729  -2.117  0.00  0.00    +0.292 HD
ENDBRANCH  19  26
BRANCH  17  29
ATOM     28  O   UNL     1     -34.552  19.029   0.819  0.00  0.00    -0.283 OA
ATOM     29  C   UNL     1     -35.304  19.965   1.059  0.00  0.00    +0.240 C 
ENDBRANCH  17  29
BRANCH  11  30
ATOM     30  C   UNL     1     -40.227  25.118   2.529  0.00  0.00    +0.170 C 
BRANCH  30  31
ATOM     31  O   UNL     1     -40.665  25.668   3.764  0.00  0.00    -0.377 OA
ATOM     32  H   UNL     1     -40.498  25.032   4.478  0.00  0.00    +0.211 HD
ENDBRANCH  30  31
ENDBRANCH  11  30
TORSDOF 6
ENDMDL
MODEL 7
REMARK VINA RESULT:      -6.5      2.491      6.182
REMARK  Name = 5320418
REMARK  6 active torsions:
REMARK  status: ('A' for Active; 'I' for Inactive)
REMARK    1  A    between atoms: C_9  and  O_22
REMARK    2  A    between atoms: C_11  and  C_30
REMARK    3  A    between atoms: C_12  and  O_24
REMARK    4  A    between atoms: C_17  and  C_29
REMARK    5  A    between atoms: C_19  and  O_26
REMARK    6  A    between atoms: C_30  and  O_31
REMARK                            x       y       z     vdW  Elec       q    Type
REMARK                         _______ _______ _______ _____ _____    ______ ____
ROOT
ATOM      1  O   UNL     1     -36.484  25.326   4.340  0.00  0.00    -0.450 OA
ATOM      2  O   UNL     1     -32.531  27.124   4.684  0.00  0.00    -0.417 OA
ATOM      3  O   UNL     1     -37.949  26.646   2.239  0.00  0.00    -0.418 OA
ATOM      4  O   UNL     1     -31.926  28.830   3.243  0.00  0.00    -0.245 OA
ATOM      5  O   UNL     1     -39.821  25.338   2.113  0.00  0.00    -0.244 OA
ATOM      6  C   UNL     1     -34.640  26.747   3.888  0.00  0.00    +0.094 A 
ATOM      7  C   UNL     1     -35.919  26.317   3.588  0.00  0.00    +0.182 A 
ATOM      8  C   UNL     1     -34.060  27.761   3.148  0.00  0.00    +0.114 A 
ATOM      9  C   UNL     1     -33.686  26.282   4.919  0.00  0.00    +0.315 C 
ATOM     10  C   UNL     1     -36.600  26.950   2.551  0.00  0.00    +0.184 A 
ATOM     11  C   UNL     1     -36.012  27.991   1.814  0.00  0.00    +0.079 A 
ATOM     12  C   UNL     1     -34.712  28.402   2.109  0.00  0.00    +0.141 A 
ATOM     13  C   UNL     1     -36.818  24.215   3.609  0.00  0.00    +0.157 C 
ATOM     14  C   UNL     1     -32.719  28.007   3.655  0.00  0.00    +0.346 C 
ATOM     15  C   UNL     1     -37.813  24.230   2.633  0.00  0.00    +0.107 C 
ATOM     16  C   UNL     1     -38.128  23.049   1.951  0.00  0.00    -0.010 C 
ATOM     17  C   UNL     1     -36.148  23.027   3.916  0.00  0.00    +0.110 C 
ATOM     18  C   UNL     1     -38.620  25.429   2.336  0.00  0.00    +0.348 C 
ATOM     19  C   UNL     1     -36.457  21.856   3.227  0.00  0.00    +0.139 C 
ATOM     20  C   UNL     1     -37.444  21.868   2.244  0.00  0.00    +0.033 C 
ATOM     21  C   UNL     1     -39.162  22.987   0.871  0.00  0.00    +0.031 C 
ENDROOT
BRANCH   9  22
ATOM     22  O   UNL     1     -34.223  26.481   6.215  0.00  0.00    -0.347 OA
ATOM     23  H   UNL     1     -33.665  26.031   6.868  0.00  0.00    +0.214 HD
ENDBRANCH   9  22
BRANCH  12  24
ATOM     24  O   UNL     1     -34.115  29.399   1.408  0.00  0.00    -0.505 OA
ATOM     25  H   UNL     1     -33.541  29.999   1.843  0.00  0.00    +0.292 HD
ENDBRANCH  12  24
BRANCH  19  26
ATOM     26  O   UNL     1     -35.813  20.687   3.503  0.00  0.00    -0.505 OA
ATOM     27  H   UNL     1     -35.593  20.471   4.388  0.00  0.00    +0.292 HD
ENDBRANCH  19  26
BRANCH  17  29
ATOM     28  O   UNL     1     -35.239  22.334   5.997  0.00  0.00    -0.283 OA
ATOM     29  C   UNL     1     -35.137  22.990   4.968  0.00  0.00    +0.240 C 
ENDBRANCH  17  29
BRANCH  11  30
ATOM     30  C   UNL     1     -36.774  28.663   0.716  0.00  0.00    +0.170 C 
BRANCH  30  31
ATOM     31  O   UNL     1     -37.016  30.000   1.135  0.00  0.00    -0.377 OA
ATOM     32  H   UNL     1     -37.972  30.163   1.160  0.00  0.00    +0.211 HD
ENDBRANCH  30  31
ENDBRANCH  11  30
TORSDOF 6
ENDMDL
MODEL 8
REMARK VINA RESULT:      -6.3      2.549      7.203
REMARK  Name = 5320418
REMARK  6 active torsions:
REMARK  status: ('A' for Active; 'I' for Inactive)
REMARK    1  A    between atoms: C_9  and  O_22
REMARK    2  A    between atoms: C_11  and  C_30
REMARK    3  A    between atoms: C_12  and  O_24
REMARK    4  A    between atoms: C_17  and  C_29
REMARK    5  A    between atoms: C_19  and  O_26
REMARK    6  A    between atoms: C_30  and  O_31
REMARK                            x       y       z     vdW  Elec       q    Type
REMARK                         _______ _______ _______ _____ _____    ______ ____
ROOT
ATOM      1  O   UNL     1     -40.906  25.819   1.479  0.00  0.00    -0.450 OA
ATOM      2  O   UNL     1     -37.563  24.824   4.088  0.00  0.00    -0.417 OA
ATOM      3  O   UNL     1     -41.536  23.542  -0.170  0.00  0.00    -0.418 OA
ATOM      4  O   UNL     1     -36.645  22.702   4.004  0.00  0.00    -0.245 OA
ATOM      5  O   UNL     1     -43.450  24.254  -1.200  0.00  0.00    -0.244 OA
ATOM      6  C   UNL     1     -39.183  24.550   2.500  0.00  0.00    +0.094 A 
ATOM      7  C   UNL     1     -40.236  24.636   1.608  0.00  0.00    +0.182 A 
ATOM      8  C   UNL     1     -38.483  23.364   2.631  0.00  0.00    +0.114 A 
ATOM      9  C   UNL     1     -38.627  25.556   3.432  0.00  0.00    +0.315 C 
ATOM     10  C   UNL     1     -40.542  23.515   0.840  0.00  0.00    +0.184 A 
ATOM     11  C   UNL     1     -39.816  22.319   0.965  0.00  0.00    +0.079 A 
ATOM     12  C   UNL     1     -38.771  22.235   1.885  0.00  0.00    +0.141 A 
ATOM     13  C   UNL     1     -42.240  25.724   1.783  0.00  0.00    +0.157 C 
ATOM     14  C   UNL     1     -37.448  23.536   3.638  0.00  0.00    +0.346 C 
ATOM     15  C   UNL     1     -43.132  24.976   1.015  0.00  0.00    +0.107 C 
ATOM     16  C   UNL     1     -44.488  24.953   1.362  0.00  0.00    -0.010 C 
ATOM     17  C   UNL     1     -42.696  26.456   2.883  0.00  0.00    +0.110 C 
ATOM     18  C   UNL     1     -42.726  24.264  -0.211  0.00  0.00    +0.348 C 
ATOM     19  C   UNL     1     -44.044  26.420   3.231  0.00  0.00    +0.139 C 
ATOM     20  C   UNL     1     -44.938  25.668   2.473  0.00  0.00    +0.033 C 
ATOM     21  C   UNL     1     -45.505  24.154   0.609  0.00  0.00    +0.031 C 
ENDROOT
BRANCH   9  22
ATOM     22  O   UNL     1     -38.130  26.672   2.715  0.00  0.00    -0.347 OA
ATOM     23  H   UNL     1     -37.273  26.937   3.084  0.00  0.00    +0.214 HD
ENDBRANCH   9  22
BRANCH  12  24
ATOM     24  O   UNL     1     -38.057  21.090   2.033  0.00  0.00    -0.505 OA
ATOM     25  H   UNL     1     -38.067  20.634   2.852  0.00  0.00    +0.292 HD
ENDBRANCH  12  24
BRANCH  19  26
ATOM     26  O   UNL     1     -44.511  27.119   4.304  0.00  0.00    -0.505 OA
ATOM     27  H   UNL     1     -43.967  27.758   4.721  0.00  0.00    +0.292 HD
ENDBRANCH  19  26
BRANCH  17  29
ATOM     28  O   UNL     1     -41.966  28.458   3.928  0.00  0.00    -0.283 OA
ATOM     29  C   UNL     1     -41.778  27.278   3.666  0.00  0.00    +0.240 C 
ENDBRANCH  17  29
BRANCH  11  30
ATOM     30  C   UNL     1     -40.156  21.137   0.115  0.00  0.00    +0.170 C 
BRANCH  30  31
ATOM     31  O   UNL     1     -41.490  20.763   0.434  0.00  0.00    -0.377 OA
ATOM     32  H   UNL     1     -41.543  19.799   0.525  0.00  0.00    +0.211 HD
ENDBRANCH  30  31
ENDBRANCH  11  30
TORSDOF 6
ENDMDL
MODEL 9
REMARK VINA RESULT:      -6.3      3.623      7.124
REMARK  Name = 5320418
REMARK  6 active torsions:
REMARK  status: ('A' for Active; 'I' for Inactive)
REMARK    1  A    between atoms: C_9  and  O_22
REMARK    2  A    between atoms: C_11  and  C_30
REMARK    3  A    between atoms: C_12  and  O_24
REMARK    4  A    between atoms: C_17  and  C_29
REMARK    5  A    between atoms: C_19  and  O_26
REMARK    6  A    between atoms: C_30  and  O_31
REMARK                            x       y       z     vdW  Elec       q    Type
REMARK                         _______ _______ _______ _____ _____    ______ ____
ROOT
ATOM      1  O   UNL     1     -35.483  24.949   2.610  0.00  0.00    -0.450 OA
ATOM      2  O   UNL     1     -34.120  26.598   6.404  0.00  0.00    -0.417 OA
ATOM      3  O   UNL     1     -33.576  25.601   0.551  0.00  0.00    -0.418 OA
ATOM      4  O   UNL     1     -32.109  27.738   6.495  0.00  0.00    -0.245 OA
ATOM      5  O   UNL     1     -34.399  24.398  -1.213  0.00  0.00    -0.244 OA
ATOM      6  C   UNL     1     -34.109  26.078   4.180  0.00  0.00    +0.094 A 
ATOM      7  C   UNL     1     -34.332  25.628   2.891  0.00  0.00    +0.182 A 
ATOM      8  C   UNL     1     -32.958  26.782   4.477  0.00  0.00    +0.114 A 
ATOM      9  C   UNL     1     -34.922  25.921   5.406  0.00  0.00    +0.315 C 
ATOM     10  C   UNL     1     -33.385  25.930   1.915  0.00  0.00    +0.184 A 
ATOM     11  C   UNL     1     -32.225  26.662   2.220  0.00  0.00    +0.079 A 
ATOM     12  C   UNL     1     -31.998  27.090   3.528  0.00  0.00    +0.141 A 
ATOM     13  C   UNL     1     -35.262  23.679   2.142  0.00  0.00    +0.157 C 
ATOM     14  C   UNL     1     -32.963  27.119   5.892  0.00  0.00    +0.346 C 
ATOM     15  C   UNL     1     -34.652  23.428   0.913  0.00  0.00    +0.107 C 
ATOM     16  C   UNL     1     -34.492  22.106   0.481  0.00  0.00    -0.010 C 
ATOM     17  C   UNL     1     -35.724  22.621   2.930  0.00  0.00    +0.110 C 
ATOM     18  C   UNL     1     -34.234  24.505  -0.003  0.00  0.00    +0.348 C 
ATOM     19  C   UNL     1     -35.553  21.307   2.500  0.00  0.00    +0.139 C 
ATOM     20  C   UNL     1     -34.935  21.050   1.279  0.00  0.00    +0.033 C 
ATOM     21  C   UNL     1     -33.823  21.751  -0.810  0.00  0.00    +0.031 C 
ENDROOT
BRANCH   9  22
ATOM     22  O   UNL     1     -36.186  26.539   5.244  0.00  0.00    -0.347 OA
ATOM     23  H   UNL     1     -36.197  27.041   4.415  0.00  0.00    +0.214 HD
ENDBRANCH   9  22
BRANCH  12  24
ATOM     24  O   UNL     1     -30.882  27.791   3.854  0.00  0.00    -0.505 OA
ATOM     25  H   UNL     1     -30.952  28.687   4.119  0.00  0.00    +0.292 HD
ENDBRANCH  12  24
BRANCH  19  26
ATOM     26  O   UNL     1     -35.987  20.258   3.255  0.00  0.00    -0.505 OA
ATOM     27  H   UNL     1     -36.733  19.761   2.981  0.00  0.00    +0.292 HD
ENDBRANCH  19  26
BRANCH  17  29
ATOM     28  O   UNL     1     -36.003  22.482   5.284  0.00  0.00    -0.283 OA
ATOM     29  C   UNL     1     -36.405  22.874   4.196  0.00  0.00    +0.240 C 
ENDBRANCH  17  29
BRANCH  11  30
ATOM     30  C   UNL     1     -31.233  26.986   1.148  0.00  0.00    +0.170 C 
BRANCH  30  31
ATOM     31  O   UNL     1     -30.051  26.252   1.438  0.00  0.00    -0.377 OA
ATOM     32  H   UNL     1     -30.116  25.367   1.048  0.00  0.00    +0.211 HD
ENDBRANCH  30  31
ENDBRANCH  11  30
TORSDOF 6
ENDMDL
