MODEL 1
REMARK VINA RESULT:      -6.1      0.000      0.000
REMARK  Name = 5281702
REMARK  6 active torsions:
REMARK  status: ('A' for Active; 'I' for Inactive)
REMARK    1  A    between atoms: C_3  and  C_12
REMARK    2  A    between atoms: C_8  and  O_24
REMARK    3  A    between atoms: C_10  and  O_26
REMARK    4  A    between atoms: C_15  and  O_18
REMARK    5  A    between atoms: C_16  and  O_20
REMARK    6  A    between atoms: C_17  and  O_22
REMARK                            x       y       z     vdW  Elec       q    Type
REMARK                         _______ _______ _______ _____ _____    ______ ____
ROOT
ATOM      1  O   UNL     1     -35.186  22.001   2.865  0.00  0.00    -0.453 OA
ATOM      2  O   UNL     1     -39.073  23.169   2.505  0.00  0.00    -0.286 OA
ATOM      3  C   UNL     1     -36.092  21.288   2.093  0.00  0.00    +0.149 C 
ATOM      4  C   UNL     1     -36.943  23.573   3.447  0.00  0.00    +0.107 C 
ATOM      5  C   UNL     1     -35.628  23.120   3.525  0.00  0.00    +0.154 C 
ATOM      6  C   UNL     1     -37.381  21.628   1.934  0.00  0.00    +0.080 C 
ATOM      7  C   UNL     1     -37.904  22.825   2.622  0.00  0.00    +0.205 C 
ATOM      8  C   UNL     1     -37.338  24.720   4.139  0.00  0.00    +0.143 C 
ATOM      9  C   UNL     1     -34.696  23.812   4.299  0.00  0.00    +0.074 C 
ATOM     10  C   UNL     1     -35.086  24.957   4.993  0.00  0.00    +0.140 C 
ATOM     11  C   UNL     1     -36.404  25.410   4.914  0.00  0.00    +0.073 C 
ENDROOT
BRANCH   3  12
ATOM     12  C   UNL     1     -35.510  20.107   1.423  0.00  0.00    +0.041 C 
ATOM     13  C   UNL     1     -34.179  19.752   1.658  0.00  0.00    +0.043 C 
ATOM     14  C   UNL     1     -36.288  19.338   0.555  0.00  0.00    +0.043 C 
ATOM     15  C   UNL     1     -35.739  18.222  -0.075  0.00  0.00    +0.175 C 
ATOM     16  C   UNL     1     -33.630  18.636   1.028  0.00  0.00    +0.175 C 
ATOM     17  C   UNL     1     -34.410  17.871   0.161  0.00  0.00    +0.202 C 
BRANCH  15  18
ATOM     18  O   UNL     1     -36.511  17.482  -0.920  0.00  0.00    -0.468 OA
ATOM     19  C   UNL     1     -37.681  16.880  -0.368  0.00  0.00    +0.253 C 
ENDBRANCH  15  18
BRANCH  16  20
ATOM     20  O   UNL     1     -32.331  18.305   1.266  0.00  0.00    -0.468 OA
ATOM     21  C   UNL     1     -31.338  18.984   0.501  0.00  0.00    +0.253 C 
ENDBRANCH  16  20
BRANCH  17  22
ATOM     22  O   UNL     1     -33.873  16.779  -0.455  0.00  0.00    -0.501 OA
ATOM     23  H   UNL     1     -33.620  16.826  -1.356  0.00  0.00    +0.292 HD
ENDBRANCH  17  22
ENDBRANCH   3  12
BRANCH   8  24
ATOM     24  O   UNL     1     -38.610  25.204   4.095  0.00  0.00    -0.505 OA
ATOM     25  H   UNL     1     -39.168  24.988   3.374  0.00  0.00    +0.292 HD
ENDBRANCH   8  24
BRANCH  10  26
ATOM     26  O   UNL     1     -34.179  25.635   5.750  0.00  0.00    -0.505 OA
ATOM     27  H   UNL     1     -33.552  26.196   5.338  0.00  0.00    +0.292 HD
ENDBRANCH  10  26
TORSDOF 6
ENDMDL
MODEL 2
REMARK VINA RESULT:      -6.1      0.027      2.579
REMARK  Name = 5281702
REMARK  6 active torsions:
REMARK  status: ('A' for Active; 'I' for Inactive)
REMARK    1  A    between atoms: C_3  and  C_12
REMARK    2  A    between atoms: C_8  and  O_24
REMARK    3  A    between atoms: C_10  and  O_26
REMARK    4  A    between atoms: C_15  and  O_18
REMARK    5  A    between atoms: C_16  and  O_20
REMARK    6  A    between atoms: C_17  and  O_22
REMARK                            x       y       z     vdW  Elec       q    Type
REMARK                         _______ _______ _______ _____ _____    ______ ____
ROOT
ATOM      1  O   UNL     1     -35.180  21.995   2.870  0.00  0.00    -0.453 OA
ATOM      2  O   UNL     1     -39.064  23.171   2.508  0.00  0.00    -0.286 OA
ATOM      3  C   UNL     1     -36.087  21.284   2.096  0.00  0.00    +0.149 C 
ATOM      4  C   UNL     1     -36.935  23.570   3.451  0.00  0.00    +0.107 C 
ATOM      5  C   UNL     1     -35.620  23.114   3.530  0.00  0.00    +0.154 C 
ATOM      6  C   UNL     1     -37.375  21.627   1.937  0.00  0.00    +0.080 C 
ATOM      7  C   UNL     1     -37.897  22.825   2.625  0.00  0.00    +0.205 C 
ATOM      8  C   UNL     1     -37.327  24.717   4.144  0.00  0.00    +0.143 C 
ATOM      9  C   UNL     1     -34.687  23.804   4.305  0.00  0.00    +0.074 C 
ATOM     10  C   UNL     1     -35.076  24.950   5.000  0.00  0.00    +0.140 C 
ATOM     11  C   UNL     1     -36.392  25.405   4.919  0.00  0.00    +0.073 C 
ENDROOT
BRANCH   3  12
ATOM     12  C   UNL     1     -35.507  20.103   1.426  0.00  0.00    +0.041 C 
ATOM     13  C   UNL     1     -36.287  19.338   0.555  0.00  0.00    +0.043 C 
ATOM     14  C   UNL     1     -34.177  19.746   1.659  0.00  0.00    +0.043 C 
ATOM     15  C   UNL     1     -33.630  18.631   1.024  0.00  0.00    +0.175 C 
ATOM     16  C   UNL     1     -35.740  18.223  -0.080  0.00  0.00    +0.175 C 
ATOM     17  C   UNL     1     -34.412  17.869   0.155  0.00  0.00    +0.202 C 
BRANCH  15  18
ATOM     18  O   UNL     1     -32.331  18.295   1.261  0.00  0.00    -0.468 OA
ATOM     19  C   UNL     1     -31.336  18.985   0.507  0.00  0.00    +0.253 C 
ENDBRANCH  15  18
BRANCH  16  20
ATOM     20  O   UNL     1     -36.514  17.488  -0.925  0.00  0.00    -0.468 OA
ATOM     21  C   UNL     1     -37.612  16.782  -0.350  0.00  0.00    +0.253 C 
ENDBRANCH  16  20
BRANCH  17  22
ATOM     22  O   UNL     1     -33.876  16.780  -0.466  0.00  0.00    -0.501 OA
ATOM     23  H   UNL     1     -34.161  15.919  -0.231  0.00  0.00    +0.292 HD
ENDBRANCH  17  22
ENDBRANCH   3  12
BRANCH   8  24
ATOM     24  O   UNL     1     -38.599  25.204   4.099  0.00  0.00    -0.505 OA
ATOM     25  H   UNL     1     -39.101  25.274   4.887  0.00  0.00    +0.292 HD
ENDBRANCH   8  24
BRANCH  10  26
ATOM     26  O   UNL     1     -34.167  25.625   5.756  0.00  0.00    -0.505 OA
ATOM     27  H   UNL     1     -34.459  26.219   6.419  0.00  0.00    +0.292 HD
ENDBRANCH  10  26
TORSDOF 6
ENDMDL
MODEL 3
REMARK VINA RESULT:      -6.1      3.819      6.489
REMARK  Name = 5281702
REMARK  6 active torsions:
REMARK  status: ('A' for Active; 'I' for Inactive)
REMARK    1  A    between atoms: C_3  and  C_12
REMARK    2  A    between atoms: C_8  and  O_24
REMARK    3  A    between atoms: C_10  and  O_26
REMARK    4  A    between atoms: C_15  and  O_18
REMARK    5  A    between atoms: C_16  and  O_20
REMARK    6  A    between atoms: C_17  and  O_22
REMARK                            x       y       z     vdW  Elec       q    Type
REMARK                         _______ _______ _______ _____ _____    ______ ____
ROOT
ATOM      1  O   UNL     1     -33.259  26.559   4.850  0.00  0.00    -0.453 OA
ATOM      2  O   UNL     1     -32.509  29.065   1.726  0.00  0.00    -0.286 OA
ATOM      3  C   UNL     1     -33.659  26.250   3.558  0.00  0.00    +0.149 C 
ATOM      4  C   UNL     1     -32.318  28.648   4.044  0.00  0.00    +0.107 C 
ATOM      5  C   UNL     1     -32.604  27.745   5.067  0.00  0.00    +0.154 C 
ATOM      6  C   UNL     1     -33.434  27.034   2.491  0.00  0.00    +0.080 C 
ATOM      7  C   UNL     1     -32.732  28.320   2.671  0.00  0.00    +0.205 C 
ATOM      8  C   UNL     1     -31.647  29.840   4.323  0.00  0.00    +0.143 C 
ATOM      9  C   UNL     1     -32.221  28.030   6.377  0.00  0.00    +0.074 C 
ATOM     10  C   UNL     1     -31.552  29.221   6.660  0.00  0.00    +0.140 C 
ATOM     11  C   UNL     1     -31.266  30.124   5.635  0.00  0.00    +0.073 C 
ENDROOT
BRANCH   3  12
ATOM     12  C   UNL     1     -34.348  24.950   3.437  0.00  0.00    +0.041 C 
ATOM     13  C   UNL     1     -34.936  24.362   4.559  0.00  0.00    +0.043 C 
ATOM     14  C   UNL     1     -34.418  24.305   2.200  0.00  0.00    +0.043 C 
ATOM     15  C   UNL     1     -35.071  23.078   2.086  0.00  0.00    +0.175 C 
ATOM     16  C   UNL     1     -35.590  23.134   4.445  0.00  0.00    +0.175 C 
ATOM     17  C   UNL     1     -35.657  22.492   3.209  0.00  0.00    +0.202 C 
BRANCH  15  18
ATOM     18  O   UNL     1     -35.131  22.460   0.873  0.00  0.00    -0.468 OA
ATOM     19  C   UNL     1     -33.938  21.830   0.408  0.00  0.00    +0.253 C 
ENDBRANCH  15  18
BRANCH  16  20
ATOM     20  O   UNL     1     -36.157  22.574   5.549  0.00  0.00    -0.468 OA
ATOM     21  C   UNL     1     -35.275  21.981   6.500  0.00  0.00    +0.253 C 
ENDBRANCH  16  20
BRANCH  17  22
ATOM     22  O   UNL     1     -36.296  21.293   3.097  0.00  0.00    -0.501 OA
ATOM     23  H   UNL     1     -35.837  20.498   3.284  0.00  0.00    +0.292 HD
ENDBRANCH  17  22
ENDBRANCH   3  12
BRANCH   8  24
ATOM     24  O   UNL     1     -31.344  30.755   3.360  0.00  0.00    -0.505 OA
ATOM     25  H   UNL     1     -31.286  30.488   2.463  0.00  0.00    +0.292 HD
ENDBRANCH   8  24
BRANCH  10  26
ATOM     26  O   UNL     1     -31.177  29.503   7.938  0.00  0.00    -0.505 OA
ATOM     27  H   UNL     1     -30.930  30.375   8.173  0.00  0.00    +0.292 HD
ENDBRANCH  10  26
TORSDOF 6
ENDMDL
MODEL 4
REMARK VINA RESULT:      -6.1      3.844      6.573
REMARK  Name = 5281702
REMARK  6 active torsions:
REMARK  status: ('A' for Active; 'I' for Inactive)
REMARK    1  A    between atoms: C_3  and  C_12
REMARK    2  A    between atoms: C_8  and  O_24
REMARK    3  A    between atoms: C_10  and  O_26
REMARK    4  A    between atoms: C_15  and  O_18
REMARK    5  A    between atoms: C_16  and  O_20
REMARK    6  A    between atoms: C_17  and  O_22
REMARK                            x       y       z     vdW  Elec       q    Type
REMARK                         _______ _______ _______ _____ _____    ______ ____
ROOT
ATOM      1  O   UNL     1     -33.239  26.585   4.854  0.00  0.00    -0.453 OA
ATOM      2  O   UNL     1     -32.457  29.085   1.735  0.00  0.00    -0.286 OA
ATOM      3  C   UNL     1     -33.647  26.286   3.563  0.00  0.00    +0.149 C 
ATOM      4  C   UNL     1     -32.265  28.659   4.051  0.00  0.00    +0.107 C 
ATOM      5  C   UNL     1     -32.563  27.759   5.072  0.00  0.00    +0.154 C 
ATOM      6  C   UNL     1     -33.413  27.068   2.497  0.00  0.00    +0.080 C 
ATOM      7  C   UNL     1     -32.689  28.343   2.679  0.00  0.00    +0.205 C 
ATOM      8  C   UNL     1     -31.574  29.840   4.330  0.00  0.00    +0.143 C 
ATOM      9  C   UNL     1     -32.171  28.035   6.382  0.00  0.00    +0.074 C 
ATOM     10  C   UNL     1     -31.482  29.214   6.666  0.00  0.00    +0.140 C 
ATOM     11  C   UNL     1     -31.184  30.114   5.642  0.00  0.00    +0.073 C 
ENDROOT
BRANCH   3  12
ATOM     12  C   UNL     1     -34.358  24.998   3.441  0.00  0.00    +0.041 C 
ATOM     13  C   UNL     1     -34.440  24.357   2.202  0.00  0.00    +0.043 C 
ATOM     14  C   UNL     1     -34.949  24.413   4.563  0.00  0.00    +0.043 C 
ATOM     15  C   UNL     1     -35.620  23.195   4.447  0.00  0.00    +0.175 C 
ATOM     16  C   UNL     1     -35.111  23.139   2.086  0.00  0.00    +0.175 C 
ATOM     17  C   UNL     1     -35.701  22.558   3.209  0.00  0.00    +0.202 C 
BRANCH  15  18
ATOM     18  O   UNL     1     -36.191  22.638   5.551  0.00  0.00    -0.468 OA
ATOM     19  C   UNL     1     -35.318  21.993   6.477  0.00  0.00    +0.253 C 
ENDBRANCH  15  18
BRANCH  16  20
ATOM     20  O   UNL     1     -35.183  22.528   0.871  0.00  0.00    -0.468 OA
ATOM     21  C   UNL     1     -34.014  21.847   0.418  0.00  0.00    +0.253 C 
ENDBRANCH  16  20
BRANCH  17  22
ATOM     22  O   UNL     1     -36.355  21.368   3.097  0.00  0.00    -0.501 OA
ATOM     23  H   UNL     1     -37.184  21.247   3.515  0.00  0.00    +0.292 HD
ENDBRANCH  17  22
ENDBRANCH   3  12
BRANCH   8  24
ATOM     24  O   UNL     1     -31.258  30.752   3.369  0.00  0.00    -0.505 OA
ATOM     25  H   UNL     1     -30.782  30.483   2.607  0.00  0.00    +0.292 HD
ENDBRANCH   8  24
BRANCH  10  26
ATOM     26  O   UNL     1     -31.098  29.486   7.944  0.00  0.00    -0.505 OA
ATOM     27  H   UNL     1     -30.817  28.791   8.506  0.00  0.00    +0.292 HD
ENDBRANCH  10  26
TORSDOF 6
ENDMDL
MODEL 5
REMARK VINA RESULT:      -6.0      1.445      7.077
REMARK  Name = 5281702
REMARK  6 active torsions:
REMARK  status: ('A' for Active; 'I' for Inactive)
REMARK    1  A    between atoms: C_3  and  C_12
REMARK    2  A    between atoms: C_8  and  O_24
REMARK    3  A    between atoms: C_10  and  O_26
REMARK    4  A    between atoms: C_15  and  O_18
REMARK    5  A    between atoms: C_16  and  O_20
REMARK    6  A    between atoms: C_17  and  O_22
REMARK                            x       y       z     vdW  Elec       q    Type
REMARK                         _______ _______ _______ _____ _____    ______ ____
ROOT
ATOM      1  O   UNL     1     -34.411  19.953   1.763  0.00  0.00    -0.453 OA
ATOM      2  O   UNL     1     -36.720  17.916  -0.904  0.00  0.00    -0.286 OA
ATOM      3  C   UNL     1     -35.721  20.325   1.502  0.00  0.00    +0.149 C 
ATOM      4  C   UNL     1     -34.625  18.135   0.166  0.00  0.00    +0.107 C 
ATOM      5  C   UNL     1     -33.891  18.874   1.093  0.00  0.00    +0.154 C 
ATOM      6  C   UNL     1     -36.529  19.690   0.638  0.00  0.00    +0.080 C 
ATOM      7  C   UNL     1     -36.018  18.522  -0.107  0.00  0.00    +0.205 C 
ATOM      8  C   UNL     1     -34.045  17.046  -0.487  0.00  0.00    +0.143 C 
ATOM      9  C   UNL     1     -32.569  18.527   1.372  0.00  0.00    +0.074 C 
ATOM     10  C   UNL     1     -31.986  17.440   0.721  0.00  0.00    +0.140 C 
ATOM     11  C   UNL     1     -32.722  16.701  -0.206  0.00  0.00    +0.073 C 
ENDROOT
BRANCH   3  12
ATOM     12  C   UNL     1     -36.180  21.493   2.281  0.00  0.00    +0.041 C 
ATOM     13  C   UNL     1     -35.591  21.788   3.513  0.00  0.00    +0.043 C 
ATOM     14  C   UNL     1     -37.201  22.308   1.789  0.00  0.00    +0.043 C 
ATOM     15  C   UNL     1     -37.633  23.412   2.525  0.00  0.00    +0.175 C 
ATOM     16  C   UNL     1     -36.023  22.892   4.249  0.00  0.00    +0.175 C 
ATOM     17  C   UNL     1     -37.044  23.703   3.755  0.00  0.00    +0.202 C 
BRANCH  15  18
ATOM     18  O   UNL     1     -38.631  24.197   2.031  0.00  0.00    -0.468 OA
ATOM     19  C   UNL     1     -39.960  23.687   2.117  0.00  0.00    +0.253 C 
ENDBRANCH  15  18
BRANCH  16  20
ATOM     20  O   UNL     1     -35.439  23.165   5.449  0.00  0.00    -0.468 OA
ATOM     21  C   UNL     1     -35.303  22.080   6.365  0.00  0.00    +0.253 C 
ENDBRANCH  16  20
BRANCH  17  22
ATOM     22  O   UNL     1     -37.465  24.783   4.474  0.00  0.00    -0.501 OA
ATOM     23  H   UNL     1     -38.011  24.662   5.225  0.00  0.00    +0.292 HD
ENDBRANCH  17  22
ENDBRANCH   3  12
BRANCH   8  24
ATOM     24  O   UNL     1     -34.720  16.292  -1.399  0.00  0.00    -0.505 OA
ATOM     25  H   UNL     1     -34.249  15.829  -2.063  0.00  0.00    +0.292 HD
ENDBRANCH   8  24
BRANCH  10  26
ATOM     26  O   UNL     1     -30.695  17.099   0.991  0.00  0.00    -0.505 OA
ATOM     27  H   UNL     1     -30.090  17.752   1.281  0.00  0.00    +0.292 HD
ENDBRANCH  10  26
TORSDOF 6
ENDMDL
MODEL 6
REMARK VINA RESULT:      -6.0      1.445      7.423
REMARK  Name = 5281702
REMARK  6 active torsions:
REMARK  status: ('A' for Active; 'I' for Inactive)
REMARK    1  A    between atoms: C_3  and  C_12
REMARK    2  A    between atoms: C_8  and  O_24
REMARK    3  A    between atoms: C_10  and  O_26
REMARK    4  A    between atoms: C_15  and  O_18
REMARK    5  A    between atoms: C_16  and  O_20
REMARK    6  A    between atoms: C_17  and  O_22
REMARK                            x       y       z     vdW  Elec       q    Type
REMARK                         _______ _______ _______ _____ _____    ______ ____
ROOT
ATOM      1  O   UNL     1     -34.413  19.950   1.754  0.00  0.00    -0.453 OA
ATOM      2  O   UNL     1     -36.725  17.915  -0.912  0.00  0.00    -0.286 OA
ATOM      3  C   UNL     1     -35.723  20.325   1.493  0.00  0.00    +0.149 C 
ATOM      4  C   UNL     1     -34.630  18.133   0.158  0.00  0.00    +0.107 C 
ATOM      5  C   UNL     1     -33.895  18.871   1.084  0.00  0.00    +0.154 C 
ATOM      6  C   UNL     1     -36.532  19.689   0.630  0.00  0.00    +0.080 C 
ATOM      7  C   UNL     1     -36.022  18.521  -0.116  0.00  0.00    +0.205 C 
ATOM      8  C   UNL     1     -34.051  17.042  -0.495  0.00  0.00    +0.143 C 
ATOM      9  C   UNL     1     -32.573  18.523   1.363  0.00  0.00    +0.074 C 
ATOM     10  C   UNL     1     -31.991  17.435   0.712  0.00  0.00    +0.140 C 
ATOM     11  C   UNL     1     -32.728  16.696  -0.214  0.00  0.00    +0.073 C 
ENDROOT
BRANCH   3  12
ATOM     12  C   UNL     1     -36.180  21.493   2.272  0.00  0.00    +0.041 C 
ATOM     13  C   UNL     1     -37.205  22.306   1.780  0.00  0.00    +0.043 C 
ATOM     14  C   UNL     1     -35.593  21.788   3.504  0.00  0.00    +0.043 C 
ATOM     15  C   UNL     1     -36.026  22.891   4.240  0.00  0.00    +0.175 C 
ATOM     16  C   UNL     1     -37.638  23.408   2.516  0.00  0.00    +0.175 C 
ATOM     17  C   UNL     1     -37.049  23.701   3.746  0.00  0.00    +0.202 C 
BRANCH  15  18
ATOM     18  O   UNL     1     -35.443  23.167   5.440  0.00  0.00    -0.468 OA
ATOM     19  C   UNL     1     -35.314  22.085   6.361  0.00  0.00    +0.253 C 
ENDBRANCH  15  18
BRANCH  16  20
ATOM     20  O   UNL     1     -38.637  24.191   2.023  0.00  0.00    -0.468 OA
ATOM     21  C   UNL     1     -39.965  23.680   2.111  0.00  0.00    +0.253 C 
ENDBRANCH  16  20
BRANCH  17  22
ATOM     22  O   UNL     1     -37.473  24.778   4.466  0.00  0.00    -0.501 OA
ATOM     23  H   UNL     1     -36.851  25.395   4.798  0.00  0.00    +0.292 HD
ENDBRANCH  17  22
ENDBRANCH   3  12
BRANCH   8  24
ATOM     24  O   UNL     1     -34.727  16.288  -1.406  0.00  0.00    -0.505 OA
ATOM     25  H   UNL     1     -35.626  16.071  -1.259  0.00  0.00    +0.292 HD
ENDBRANCH   8  24
BRANCH  10  26
ATOM     26  O   UNL     1     -30.701  17.092   0.982  0.00  0.00    -0.505 OA
ATOM     27  H   UNL     1     -30.484  16.203   1.182  0.00  0.00    +0.292 HD
ENDBRANCH  10  26
TORSDOF 6
ENDMDL
MODEL 7
REMARK VINA RESULT:      -5.8      2.922      5.991
REMARK  Name = 5281702
REMARK  6 active torsions:
REMARK  status: ('A' for Active; 'I' for Inactive)
REMARK    1  A    between atoms: C_3  and  C_12
REMARK    2  A    between atoms: C_8  and  O_24
REMARK    3  A    between atoms: C_10  and  O_26
REMARK    4  A    between atoms: C_15  and  O_18
REMARK    5  A    between atoms: C_16  and  O_20
REMARK    6  A    between atoms: C_17  and  O_22
REMARK                            x       y       z     vdW  Elec       q    Type
REMARK                         _______ _______ _______ _____ _____    ______ ____
ROOT
ATOM      1  O   UNL     1     -34.421  25.821   2.815  0.00  0.00    -0.453 OA
ATOM      2  O   UNL     1     -33.558  26.673   6.704  0.00  0.00    -0.286 OA
ATOM      3  C   UNL     1     -34.913  25.047   3.856  0.00  0.00    +0.149 C 
ATOM      4  C   UNL     1     -33.283  27.237   4.427  0.00  0.00    +0.107 C 
ATOM      5  C   UNL     1     -33.619  26.892   3.119  0.00  0.00    +0.154 C 
ATOM      6  C   UNL     1     -34.666  25.282   5.155  0.00  0.00    +0.080 C 
ATOM      7  C   UNL     1     -33.809  26.424   5.533  0.00  0.00    +0.205 C 
ATOM      8  C   UNL     1     -32.463  28.339   4.677  0.00  0.00    +0.143 C 
ATOM      9  C   UNL     1     -33.135  27.648   2.051  0.00  0.00    +0.074 C 
ATOM     10  C   UNL     1     -32.314  28.749   2.297  0.00  0.00    +0.140 C 
ATOM     11  C   UNL     1     -31.979  29.093   3.607  0.00  0.00    +0.073 C 
ENDROOT
BRANCH   3  12
ATOM     12  C   UNL     1     -35.768  23.926   3.418  0.00  0.00    +0.041 C 
ATOM     13  C   UNL     1     -37.107  24.153   3.087  0.00  0.00    +0.043 C 
ATOM     14  C   UNL     1     -35.243  22.635   3.329  0.00  0.00    +0.043 C 
ATOM     15  C   UNL     1     -36.052  21.577   2.914  0.00  0.00    +0.175 C 
ATOM     16  C   UNL     1     -37.915  23.095   2.671  0.00  0.00    +0.175 C 
ATOM     17  C   UNL     1     -37.388  21.807   2.585  0.00  0.00    +0.202 C 
BRANCH  15  18
ATOM     18  O   UNL     1     -35.525  20.323   2.833  0.00  0.00    -0.468 OA
ATOM     19  C   UNL     1     -34.681  20.045   1.717  0.00  0.00    +0.253 C 
ENDBRANCH  15  18
BRANCH  16  20
ATOM     20  O   UNL     1     -39.218  23.334   2.353  0.00  0.00    -0.468 OA
ATOM     21  C   UNL     1     -39.819  24.499   2.914  0.00  0.00    +0.253 C 
ENDBRANCH  16  20
BRANCH  17  22
ATOM     22  O   UNL     1     -38.177  20.773   2.177  0.00  0.00    -0.501 OA
ATOM     23  H   UNL     1     -38.950  20.554   2.660  0.00  0.00    +0.292 HD
ENDBRANCH  17  22
ENDBRANCH   3  12
BRANCH   8  24
ATOM     24  O   UNL     1     -32.106  28.718   5.936  0.00  0.00    -0.505 OA
ATOM     25  H   UNL     1     -32.505  28.310   6.679  0.00  0.00    +0.292 HD
ENDBRANCH   8  24
BRANCH  10  26
ATOM     26  O   UNL     1     -31.840  29.488   1.257  0.00  0.00    -0.505 OA
ATOM     27  H   UNL     1     -31.156  29.149   0.715  0.00  0.00    +0.292 HD
ENDBRANCH  10  26
TORSDOF 6
ENDMDL
MODEL 8
REMARK VINA RESULT:      -5.8      4.239      9.129
REMARK  Name = 5281702
REMARK  6 active torsions:
REMARK  status: ('A' for Active; 'I' for Inactive)
REMARK    1  A    between atoms: C_3  and  C_12
REMARK    2  A    between atoms: C_8  and  O_24
REMARK    3  A    between atoms: C_10  and  O_26
REMARK    4  A    between atoms: C_15  and  O_18
REMARK    5  A    between atoms: C_16  and  O_20
REMARK    6  A    between atoms: C_17  and  O_22
REMARK                            x       y       z     vdW  Elec       q    Type
REMARK                         _______ _______ _______ _____ _____    ______ ____
ROOT
ATOM      1  O   UNL     1     -34.017  25.871   4.762  0.00  0.00    -0.453 OA
ATOM      2  O   UNL     1     -34.197  24.548   0.913  0.00  0.00    -0.286 OA
ATOM      3  C   UNL     1     -33.529  26.630   3.708  0.00  0.00    +0.149 C 
ATOM      4  C   UNL     1     -34.655  24.130   3.193  0.00  0.00    +0.107 C 
ATOM      5  C   UNL     1     -34.564  24.644   4.486  0.00  0.00    +0.154 C 
ATOM      6  C   UNL     1     -33.566  26.248   2.421  0.00  0.00    +0.080 C 
ATOM      7  C   UNL     1     -34.146  24.935   2.072  0.00  0.00    +0.205 C 
ATOM      8  C   UNL     1     -35.222  22.874   2.970  0.00  0.00    +0.143 C 
ATOM      9  C   UNL     1     -35.041  23.901   5.566  0.00  0.00    +0.074 C 
ATOM     10  C   UNL     1     -35.607  22.645   5.348  0.00  0.00    +0.140 C 
ATOM     11  C   UNL     1     -35.697  22.133   4.053  0.00  0.00    +0.073 C 
ENDROOT
BRANCH   3  12
ATOM     12  C   UNL     1     -32.969  27.934   4.116  0.00  0.00    +0.041 C 
ATOM     13  C   UNL     1     -32.184  28.031   5.268  0.00  0.00    +0.043 C 
ATOM     14  C   UNL     1     -33.219  29.076   3.351  0.00  0.00    +0.043 C 
ATOM     15  C   UNL     1     -32.689  30.307   3.737  0.00  0.00    +0.175 C 
ATOM     16  C   UNL     1     -31.654  29.262   5.653  0.00  0.00    +0.175 C 
ATOM     17  C   UNL     1     -31.906  30.400   4.888  0.00  0.00    +0.202 C 
BRANCH  15  18
ATOM     18  O   UNL     1     -32.942  31.412   2.980  0.00  0.00    -0.468 OA
ATOM     19  C   UNL     1     -34.280  31.589   2.521  0.00  0.00    +0.253 C 
ENDBRANCH  15  18
BRANCH  16  20
ATOM     20  O   UNL     1     -30.891  29.339   6.779  0.00  0.00    -0.468 OA
ATOM     21  C   UNL     1     -29.520  28.965   6.661  0.00  0.00    +0.253 C 
ENDBRANCH  16  20
BRANCH  17  22
ATOM     22  O   UNL     1     -31.387  31.603   5.263  0.00  0.00    -0.501 OA
ATOM     23  H   UNL     1     -31.273  32.283   4.629  0.00  0.00    +0.292 HD
ENDBRANCH  17  22
ENDBRANCH   3  12
BRANCH   8  24
ATOM     24  O   UNL     1     -35.334  22.328   1.727  0.00  0.00    -0.505 OA
ATOM     25  H   UNL     1     -34.938  22.753   0.992  0.00  0.00    +0.292 HD
ENDBRANCH   8  24
BRANCH  10  26
ATOM     26  O   UNL     1     -36.073  21.918   6.401  0.00  0.00    -0.505 OA
ATOM     27  H   UNL     1     -35.518  21.748   7.135  0.00  0.00    +0.292 HD
ENDBRANCH  10  26
TORSDOF 6
ENDMDL
MODEL 9
REMARK VINA RESULT:      -5.8      2.922      5.690
REMARK  Name = 5281702
REMARK  6 active torsions:
REMARK  status: ('A' for Active; 'I' for Inactive)
REMARK    1  A    between atoms: C_3  and  C_12
REMARK    2  A    between atoms: C_8  and  O_24
REMARK    3  A    between atoms: C_10  and  O_26
REMARK    4  A    between atoms: C_15  and  O_18
REMARK    5  A    between atoms: C_16  and  O_20
REMARK    6  A    between atoms: C_17  and  O_22
REMARK                            x       y       z     vdW  Elec       q    Type
REMARK                         _______ _______ _______ _____ _____    ______ ____
ROOT
ATOM      1  O   UNL     1     -34.441  25.839   2.818  0.00  0.00    -0.453 OA
ATOM      2  O   UNL     1     -33.553  26.667   6.707  0.00  0.00    -0.286 OA
ATOM      3  C   UNL     1     -34.924  25.058   3.857  0.00  0.00    +0.149 C 
ATOM      4  C   UNL     1     -33.294  27.247   4.431  0.00  0.00    +0.107 C 
ATOM      5  C   UNL     1     -33.638  26.909   3.123  0.00  0.00    +0.154 C 
ATOM      6  C   UNL     1     -34.669  25.285   5.155  0.00  0.00    +0.080 C 
ATOM      7  C   UNL     1     -33.811  26.426   5.536  0.00  0.00    +0.205 C 
ATOM      8  C   UNL     1     -32.473  28.348   4.683  0.00  0.00    +0.143 C 
ATOM      9  C   UNL     1     -33.162  27.673   2.057  0.00  0.00    +0.074 C 
ATOM     10  C   UNL     1     -32.340  28.773   2.305  0.00  0.00    +0.140 C 
ATOM     11  C   UNL     1     -31.997  29.110   3.614  0.00  0.00    +0.073 C 
ENDROOT
BRANCH   3  12
ATOM     12  C   UNL     1     -35.781  23.938   3.417  0.00  0.00    +0.041 C 
ATOM     13  C   UNL     1     -35.259  22.645   3.336  0.00  0.00    +0.043 C 
ATOM     14  C   UNL     1     -37.118  24.167   3.083  0.00  0.00    +0.043 C 
ATOM     15  C   UNL     1     -37.927  23.109   2.670  0.00  0.00    +0.175 C 
ATOM     16  C   UNL     1     -36.068  21.587   2.923  0.00  0.00    +0.175 C 
ATOM     17  C   UNL     1     -37.402  21.819   2.589  0.00  0.00    +0.202 C 
BRANCH  15  18
ATOM     18  O   UNL     1     -39.229  23.348   2.347  0.00  0.00    -0.468 OA
ATOM     19  C   UNL     1     -39.832  24.513   2.906  0.00  0.00    +0.253 C 
ENDBRANCH  15  18
BRANCH  16  20
ATOM     20  O   UNL     1     -35.543  20.332   2.849  0.00  0.00    -0.468 OA
ATOM     21  C   UNL     1     -34.708  20.045   1.729  0.00  0.00    +0.253 C 
ENDBRANCH  16  20
BRANCH  17  22
ATOM     22  O   UNL     1     -38.194  20.785   2.186  0.00  0.00    -0.501 OA
ATOM     23  H   UNL     1     -39.021  20.637   2.602  0.00  0.00    +0.292 HD
ENDBRANCH  17  22
ENDBRANCH   3  12
BRANCH   8  24
ATOM     24  O   UNL     1     -32.109  28.720   5.942  0.00  0.00    -0.505 OA
ATOM     25  H   UNL     1     -32.630  29.337   6.417  0.00  0.00    +0.292 HD
ENDBRANCH   8  24
BRANCH  10  26
ATOM     26  O   UNL     1     -31.874  29.520   1.266  0.00  0.00    -0.505 OA
ATOM     27  H   UNL     1     -31.083  29.274   0.830  0.00  0.00    +0.292 HD
ENDBRANCH  10  26
TORSDOF 6
ENDMDL
