MODEL 1
REMARK VINA RESULT:      -6.3      0.000      0.000
REMARK  Name = 59634686
REMARK  5 active torsions:
REMARK  status: ('A' for Active; 'I' for Inactive)
REMARK    1  A    between atoms: C_3  and  C_23
REMARK    2  A    between atoms: C_4  and  C_13
REMARK    3  A    between atoms: C_5  and  C_20
REMARK    4  A    between atoms: C_23  and  N_25
REMARK    5  A    between atoms: C_29  and  C_37
REMARK                            x       y       z     vdW  Elec       q    Type
REMARK                         _______ _______ _______ _____ _____    ______ ____
ROOT
ATOM      1  F   UNL     1     -40.054  24.742   3.585  0.00  0.00    -0.205 F 
ATOM      2  N   UNL     1     -38.210  21.458  -0.432  0.00  0.00    -0.409 NA
ATOM      3  C   UNL     1     -36.963  20.940  -0.340  0.00  0.00    +0.128 C 
ATOM      4  C   UNL     1     -36.101  21.181   0.710  0.00  0.00    +0.049 C 
ATOM      5  C   UNL     1     -36.549  22.006   1.732  0.00  0.00    +0.059 C 
ATOM      6  C   UNL     1     -37.834  22.563   1.675  0.00  0.00    +0.032 C 
ATOM      7  C   UNL     1     -38.642  22.257   0.560  0.00  0.00    +0.113 C 
ATOM      8  C   UNL     1     -38.318  23.402   2.694  0.00  0.00    +0.032 C 
ATOM      9  C   UNL     1     -39.918  22.811   0.504  0.00  0.00    +0.087 C 
ATOM     10  C   UNL     1     -39.598  23.941   2.613  0.00  0.00    +0.136 C 
ATOM     11  C   UNL     1     -40.399  23.646   1.517  0.00  0.00    +0.011 C 
ENDROOT
BRANCH   4  13
ATOM     12  N   UNL     1     -34.677  19.453   1.465  0.00  0.00    -0.244 NA
ATOM     13  C   UNL     1     -34.777  20.588   0.738  0.00  0.00    +0.084 C 
ATOM     14  C   UNL     1     -33.720  21.171   0.058  0.00  0.00    +0.019 C 
ATOM     15  C   UNL     1     -32.479  20.548   0.129  0.00  0.00    +0.003 C 
ATOM     16  C   UNL     1     -33.454  18.876   1.510  0.00  0.00    +0.099 C 
ATOM     17  C   UNL     1     -32.335  19.378   0.867  0.00  0.00    +0.021 C 
ENDBRANCH   4  13
BRANCH   5  20
ATOM     18  O   UNL     1     -34.863  23.229   2.808  0.00  0.00    -0.270 OA
ATOM     19  N   UNL     1     -35.785  21.449   3.974  0.00  0.00    -0.299 N 
ATOM     20  C   UNL     1     -35.659  22.282   2.862  0.00  0.00    +0.246 C 
ATOM     21  C   UNL     1     -34.996  21.608   5.174  0.00  0.00    +0.111 C 
ATOM     22  H   UNL     1     -36.442  20.717   3.939  0.00  0.00    +0.150 HD
ENDBRANCH   5  20
BRANCH   3  23
ATOM     23  C   UNL     1     -36.559  20.062  -1.482  0.00  0.00    +0.123 C 
ATOM     24  C   UNL     1     -37.346  20.330  -2.771  0.00  0.00    +0.029 C 
BRANCH  23  25
ATOM     25  N   UNL     1     -36.702  18.657  -1.131  0.00  0.00    -0.316 N 
ATOM     26  N   UNL     1     -34.545  18.156  -1.859  0.00  0.00    -0.233 NA
ATOM     27  N   UNL     1     -33.711  15.900  -1.707  0.00  0.00    -0.233 NA
ATOM     28  C   UNL     1     -35.703  17.725  -1.320  0.00  0.00    +0.124 C 
ATOM     29  C   UNL     1     -35.938  16.415  -0.953  0.00  0.00    +0.197 C 
ATOM     30  C   UNL     1     -34.896  15.538  -1.172  0.00  0.00    +0.120 C 
ATOM     31  C   UNL     1     -33.605  17.205  -2.022  0.00  0.00    +0.252 C 
ATOM     32  H   UNL     1     -37.554  18.357  -0.740  0.00  0.00    +0.148 HD
ATOM     33  N   UNL     1     -35.065  14.175  -0.823  0.00  0.00    -0.345 N 
ATOM     34  H   UNL     1     -34.332  13.534  -0.971  0.00  0.00    +0.143 HD
ATOM     35  H   UNL     1     -35.914  13.868  -0.431  0.00  0.00    +0.143 HD
BRANCH  29  37
ATOM     36  N   UNL     1     -38.193  15.652   0.073  0.00  0.00    -0.195 NA
ATOM     37  C   UNL     1     -37.183  15.994  -0.386  0.00  0.00    +0.087 C 
ENDBRANCH  29  37
ENDBRANCH  23  25
ENDBRANCH   3  23
TORSDOF 5
ENDMDL
MODEL 2
REMARK VINA RESULT:      -6.1      1.068      1.493
REMARK  Name = 59634686
REMARK  5 active torsions:
REMARK  status: ('A' for Active; 'I' for Inactive)
REMARK    1  A    between atoms: C_3  and  C_23
REMARK    2  A    between atoms: C_4  and  C_13
REMARK    3  A    between atoms: C_5  and  C_20
REMARK    4  A    between atoms: C_23  and  N_25
REMARK    5  A    between atoms: C_29  and  C_37
REMARK                            x       y       z     vdW  Elec       q    Type
REMARK                         _______ _______ _______ _____ _____    ______ ____
ROOT
ATOM      1  F   UNL     1     -39.933  25.133   3.865  0.00  0.00    -0.205 F 
ATOM      2  N   UNL     1     -38.399  21.720  -0.175  0.00  0.00    -0.409 NA
ATOM      3  C   UNL     1     -37.167  21.161  -0.134  0.00  0.00    +0.128 C 
ATOM      4  C   UNL     1     -36.247  21.391   0.869  0.00  0.00    +0.049 C 
ATOM      5  C   UNL     1     -36.617  22.247   1.896  0.00  0.00    +0.059 C 
ATOM      6  C   UNL     1     -37.884  22.847   1.891  0.00  0.00    +0.032 C 
ATOM      7  C   UNL     1     -38.754  22.551   0.822  0.00  0.00    +0.113 C 
ATOM      8  C   UNL     1     -38.289  23.719   2.916  0.00  0.00    +0.032 C 
ATOM      9  C   UNL     1     -40.013  23.147   0.818  0.00  0.00    +0.087 C 
ATOM     10  C   UNL     1     -39.552  24.301   2.887  0.00  0.00    +0.136 C 
ATOM     11  C   UNL     1     -40.415  24.015   1.837  0.00  0.00    +0.011 C 
ENDROOT
BRANCH   4  13
ATOM     12  N   UNL     1     -34.840  19.639   1.602  0.00  0.00    -0.244 NA
ATOM     13  C   UNL     1     -34.944  20.753   0.844  0.00  0.00    +0.084 C 
ATOM     14  C   UNL     1     -33.908  21.276   0.087  0.00  0.00    +0.019 C 
ATOM     15  C   UNL     1     -32.686  20.613   0.110  0.00  0.00    +0.003 C 
ATOM     16  C   UNL     1     -33.637  19.021   1.599  0.00  0.00    +0.099 C 
ATOM     17  C   UNL     1     -32.540  19.463   0.878  0.00  0.00    +0.021 C 
ENDBRANCH   4  13
BRANCH   5  20
ATOM     18  O   UNL     1     -34.841  23.431   2.867  0.00  0.00    -0.270 OA
ATOM     19  N   UNL     1     -35.761  21.700   4.107  0.00  0.00    -0.299 N 
ATOM     20  C   UNL     1     -35.664  22.512   2.976  0.00  0.00    +0.246 C 
ATOM     21  C   UNL     1     -34.909  21.853   5.265  0.00  0.00    +0.111 C 
ATOM     22  H   UNL     1     -36.442  20.990   4.116  0.00  0.00    +0.150 HD
ENDBRANCH   5  20
BRANCH   3  23
ATOM     23  C   UNL     1     -36.849  20.251  -1.278  0.00  0.00    +0.123 C 
ATOM     24  C   UNL     1     -36.914  20.939  -2.647  0.00  0.00    +0.029 C 
BRANCH  23  25
ATOM     25  N   UNL     1     -37.743  19.103  -1.289  0.00  0.00    -0.316 N 
ATOM     26  N   UNL     1     -36.010  17.627  -0.784  0.00  0.00    -0.233 NA
ATOM     27  N   UNL     1     -36.456  15.269  -0.558  0.00  0.00    -0.233 NA
ATOM     28  C   UNL     1     -37.320  17.812  -1.044  0.00  0.00    +0.124 C 
ATOM     29  C   UNL     1     -38.248  16.791  -1.078  0.00  0.00    +0.197 C 
ATOM     30  C   UNL     1     -37.753  15.528  -0.825  0.00  0.00    +0.120 C 
ATOM     31  C   UNL     1     -35.651  16.349  -0.553  0.00  0.00    +0.252 C 
ATOM     32  H   UNL     1     -38.696  19.253  -1.482  0.00  0.00    +0.148 HD
ATOM     33  N   UNL     1     -38.647  14.428  -0.845  0.00  0.00    -0.345 N 
ATOM     34  H   UNL     1     -38.313  13.519  -0.667  0.00  0.00    +0.143 HD
ATOM     35  H   UNL     1     -39.602  14.572  -1.037  0.00  0.00    +0.143 HD
BRANCH  29  37
ATOM     36  N   UNL     1     -40.752  17.219  -1.590  0.00  0.00    -0.195 NA
ATOM     37  C   UNL     1     -39.631  17.027  -1.360  0.00  0.00    +0.087 C 
ENDBRANCH  29  37
ENDBRANCH  23  25
ENDBRANCH   3  23
TORSDOF 5
ENDMDL
MODEL 3
REMARK VINA RESULT:      -6.0      3.373      7.190
REMARK  Name = 59634686
REMARK  5 active torsions:
REMARK  status: ('A' for Active; 'I' for Inactive)
REMARK    1  A    between atoms: C_3  and  C_23
REMARK    2  A    between atoms: C_4  and  C_13
REMARK    3  A    between atoms: C_5  and  C_20
REMARK    4  A    between atoms: C_23  and  N_25
REMARK    5  A    between atoms: C_29  and  C_37
REMARK                            x       y       z     vdW  Elec       q    Type
REMARK                         _______ _______ _______ _____ _____    ______ ____
ROOT
ATOM      1  F   UNL     1     -41.815  24.931   1.174  0.00  0.00    -0.205 F 
ATOM      2  N   UNL     1     -37.117  24.016   3.896  0.00  0.00    -0.409 NA
ATOM      3  C   UNL     1     -36.207  23.162   3.372  0.00  0.00    +0.128 C 
ATOM      4  C   UNL     1     -36.376  22.489   2.179  0.00  0.00    +0.049 C 
ATOM      5  C   UNL     1     -37.554  22.708   1.479  0.00  0.00    +0.059 C 
ATOM      6  C   UNL     1     -38.522  23.585   1.987  0.00  0.00    +0.032 C 
ATOM      7  C   UNL     1     -38.258  24.226   3.215  0.00  0.00    +0.113 C 
ATOM      8  C   UNL     1     -39.725  23.828   1.302  0.00  0.00    +0.032 C 
ATOM      9  C   UNL     1     -39.221  25.097   3.719  0.00  0.00    +0.087 C 
ATOM     10  C   UNL     1     -40.669  24.704   1.829  0.00  0.00    +0.136 C 
ATOM     11  C   UNL     1     -40.418  25.339   3.039  0.00  0.00    +0.011 C 
ENDROOT
BRANCH   4  13
ATOM     12  N   UNL     1     -34.548  22.111   0.729  0.00  0.00    -0.244 NA
ATOM     13  C   UNL     1     -35.352  21.588   1.681  0.00  0.00    +0.084 C 
ATOM     14  C   UNL     1     -35.240  20.297   2.170  0.00  0.00    +0.019 C 
ATOM     15  C   UNL     1     -34.236  19.489   1.648  0.00  0.00    +0.003 C 
ATOM     16  C   UNL     1     -33.584  21.296   0.245  0.00  0.00    +0.099 C 
ATOM     17  C   UNL     1     -33.388  19.990   0.666  0.00  0.00    +0.021 C 
ENDBRANCH   4  13
BRANCH   5  20
ATOM     18  O   UNL     1     -38.371  20.931   0.187  0.00  0.00    -0.270 OA
ATOM     19  N   UNL     1     -37.271  22.635  -0.936  0.00  0.00    -0.299 N 
ATOM     20  C   UNL     1     -37.764  22.009   0.209  0.00  0.00    +0.246 C 
ATOM     21  C   UNL     1     -37.421  22.084  -2.264  0.00  0.00    +0.111 C 
ATOM     22  H   UNL     1     -36.799  23.492  -0.835  0.00  0.00    +0.150 HD
ENDBRANCH   5  20
BRANCH   3  23
ATOM     23  C   UNL     1     -34.967  22.984   4.189  0.00  0.00    +0.123 C 
ATOM     24  C   UNL     1     -35.173  22.119   5.439  0.00  0.00    +0.029 C 
BRANCH  23  25
ATOM     25  N   UNL     1     -34.425  24.271   4.596  0.00  0.00    -0.316 N 
ATOM     26  N   UNL     1     -34.001  24.900   2.392  0.00  0.00    -0.233 NA
ATOM     27  N   UNL     1     -33.020  27.048   1.913  0.00  0.00    -0.233 NA
ATOM     28  C   UNL     1     -33.952  25.210   3.702  0.00  0.00    +0.124 C 
ATOM     29  C   UNL     1     -33.458  26.403   4.191  0.00  0.00    +0.197 C 
ATOM     30  C   UNL     1     -33.001  27.292   3.240  0.00  0.00    +0.120 C 
ATOM     31  C   UNL     1     -33.526  25.850   1.564  0.00  0.00    +0.252 C 
ATOM     32  H   UNL     1     -34.394  24.483   5.556  0.00  0.00    +0.148 HD
ATOM     33  N   UNL     1     -32.476  28.538   3.667  0.00  0.00    -0.345 N 
ATOM     34  H   UNL     1     -32.145  29.186   3.004  0.00  0.00    +0.143 HD
ATOM     35  H   UNL     1     -32.443  28.756   4.626  0.00  0.00    +0.143 HD
BRANCH  29  37
ATOM     36  N   UNL     1     -33.386  26.933   6.727  0.00  0.00    -0.195 NA
ATOM     37  C   UNL     1     -33.419  26.696   5.591  0.00  0.00    +0.087 C 
ENDBRANCH  29  37
ENDBRANCH  23  25
ENDBRANCH   3  23
TORSDOF 5
ENDMDL
MODEL 4
REMARK VINA RESULT:      -6.0      4.152      8.656
REMARK  Name = 59634686
REMARK  5 active torsions:
REMARK  status: ('A' for Active; 'I' for Inactive)
REMARK    1  A    between atoms: C_3  and  C_23
REMARK    2  A    between atoms: C_4  and  C_13
REMARK    3  A    between atoms: C_5  and  C_20
REMARK    4  A    between atoms: C_23  and  N_25
REMARK    5  A    between atoms: C_29  and  C_37
REMARK                            x       y       z     vdW  Elec       q    Type
REMARK                         _______ _______ _______ _____ _____    ______ ____
ROOT
ATOM      1  F   UNL     1     -34.491  22.755   6.022  0.00  0.00    -0.205 F 
ATOM      2  N   UNL     1     -38.044  25.668   2.987  0.00  0.00    -0.409 NA
ATOM      3  C   UNL     1     -38.561  25.115   1.865  0.00  0.00    +0.128 C 
ATOM      4  C   UNL     1     -38.254  23.846   1.416  0.00  0.00    +0.049 C 
ATOM      5  C   UNL     1     -37.361  23.097   2.170  0.00  0.00    +0.059 C 
ATOM      6  C   UNL     1     -36.803  23.633   3.338  0.00  0.00    +0.032 C 
ATOM      7  C   UNL     1     -37.178  24.939   3.714  0.00  0.00    +0.113 C 
ATOM      8  C   UNL     1     -35.896  22.901   4.123  0.00  0.00    +0.032 C 
ATOM      9  C   UNL     1     -36.623  25.471   4.875  0.00  0.00    +0.087 C 
ATOM     10  C   UNL     1     -35.357  23.456   5.279  0.00  0.00    +0.136 C 
ATOM     11  C   UNL     1     -35.720  24.743   5.656  0.00  0.00    +0.011 C 
ENDROOT
BRANCH   4  13
ATOM     12  N   UNL     1     -38.129  23.524  -0.922  0.00  0.00    -0.244 NA
ATOM     13  C   UNL     1     -38.851  23.321   0.202  0.00  0.00    +0.084 C 
ATOM     14  C   UNL     1     -40.072  22.666   0.233  0.00  0.00    +0.019 C 
ATOM     15  C   UNL     1     -40.585  22.188  -0.967  0.00  0.00    +0.003 C 
ATOM     16  C   UNL     1     -38.660  23.046  -2.070  0.00  0.00    +0.099 C 
ATOM     17  C   UNL     1     -39.871  22.378  -2.146  0.00  0.00    +0.021 C 
ENDBRANCH   4  13
BRANCH   5  20
ATOM     18  O   UNL     1     -37.657  20.772   2.136  0.00  0.00    -0.270 OA
ATOM     19  N   UNL     1     -35.966  21.640   0.809  0.00  0.00    -0.299 N 
ATOM     20  C   UNL     1     -37.015  21.746   1.722  0.00  0.00    +0.246 C 
ATOM     21  C   UNL     1     -35.523  20.381   0.256  0.00  0.00    +0.111 C 
ATOM     22  H   UNL     1     -35.505  22.463   0.529  0.00  0.00    +0.150 HD
ENDBRANCH   5  20
BRANCH   3  23
ATOM     23  C   UNL     1     -39.515  25.988   1.113  0.00  0.00    +0.123 C 
ATOM     24  C   UNL     1     -38.832  27.134   0.356  0.00  0.00    +0.029 C 
BRANCH  23  25
ATOM     25  N   UNL     1     -40.517  26.549   2.006  0.00  0.00    -0.316 N 
ATOM     26  N   UNL     1     -42.221  25.277   1.052  0.00  0.00    -0.233 NA
ATOM     27  N   UNL     1     -44.479  25.470   1.872  0.00  0.00    -0.233 NA
ATOM     28  C   UNL     1     -41.849  26.192   1.969  0.00  0.00    +0.124 C 
ATOM     29  C   UNL     1     -42.721  26.783   2.861  0.00  0.00    +0.197 C 
ATOM     30  C   UNL     1     -44.037  26.380   2.765  0.00  0.00    +0.120 C 
ATOM     31  C   UNL     1     -43.532  24.966   1.058  0.00  0.00    +0.252 C 
ATOM     32  H   UNL     1     -40.230  27.217   2.670  0.00  0.00    +0.148 HD
ATOM     33  N   UNL     1     -44.991  26.946   3.647  0.00  0.00    -0.345 N 
ATOM     34  H   UNL     1     -45.935  26.670   3.594  0.00  0.00    +0.143 HD
ATOM     35  H   UNL     1     -44.711  27.614   4.313  0.00  0.00    +0.143 HD
BRANCH  29  37
ATOM     36  N   UNL     1     -41.937  28.541   4.598  0.00  0.00    -0.195 NA
ATOM     37  C   UNL     1     -42.288  27.754   3.820  0.00  0.00    +0.087 C 
ENDBRANCH  29  37
ENDBRANCH  23  25
ENDBRANCH   3  23
TORSDOF 5
ENDMDL
MODEL 5
REMARK VINA RESULT:      -5.9      3.357      7.528
REMARK  Name = 59634686
REMARK  5 active torsions:
REMARK  status: ('A' for Active; 'I' for Inactive)
REMARK    1  A    between atoms: C_3  and  C_23
REMARK    2  A    between atoms: C_4  and  C_13
REMARK    3  A    between atoms: C_5  and  C_20
REMARK    4  A    between atoms: C_23  and  N_25
REMARK    5  A    between atoms: C_29  and  C_37
REMARK                            x       y       z     vdW  Elec       q    Type
REMARK                         _______ _______ _______ _____ _____    ______ ____
ROOT
ATOM      1  F   UNL     1     -34.394  21.750   6.571  0.00  0.00    -0.205 F 
ATOM      2  N   UNL     1     -37.258  24.625   2.848  0.00  0.00    -0.409 NA
ATOM      3  C   UNL     1     -37.512  24.071   1.639  0.00  0.00    +0.128 C 
ATOM      4  C   UNL     1     -37.095  22.809   1.265  0.00  0.00    +0.049 C 
ATOM      5  C   UNL     1     -36.373  22.070   2.191  0.00  0.00    +0.059 C 
ATOM      6  C   UNL     1     -36.089  22.608   3.454  0.00  0.00    +0.032 C 
ATOM      7  C   UNL     1     -36.557  23.906   3.743  0.00  0.00    +0.113 C 
ATOM      8  C   UNL     1     -35.360  21.885   4.413  0.00  0.00    +0.032 C 
ATOM      9  C   UNL     1     -36.274  24.440   4.998  0.00  0.00    +0.087 C 
ATOM     10  C   UNL     1     -35.091  22.442   5.660  0.00  0.00    +0.136 C 
ATOM     11  C   UNL     1     -35.548  23.721   5.953  0.00  0.00    +0.011 C 
ENDROOT
BRANCH   4  13
ATOM     12  N   UNL     1     -36.473  22.520  -0.997  0.00  0.00    -0.244 NA
ATOM     13  C   UNL     1     -37.408  22.282  -0.051  0.00  0.00    +0.084 C 
ATOM     14  C   UNL     1     -38.588  21.593  -0.281  0.00  0.00    +0.019 C 
ATOM     15  C   UNL     1     -38.822  21.116  -1.565  0.00  0.00    +0.003 C 
ATOM     16  C   UNL     1     -36.735  22.040  -2.234  0.00  0.00    +0.099 C 
ATOM     17  C   UNL     1     -37.883  21.340  -2.566  0.00  0.00    +0.021 C 
ENDBRANCH   4  13
BRANCH   5  20
ATOM     18  O   UNL     1     -36.617  19.741   2.088  0.00  0.00    -0.270 OA
ATOM     19  N   UNL     1     -34.693  20.643   1.160  0.00  0.00    -0.299 N 
ATOM     20  C   UNL     1     -35.916  20.727   1.825  0.00  0.00    +0.246 C 
ATOM     21  C   UNL     1     -34.121  19.394   0.713  0.00  0.00    +0.111 C 
ATOM     22  H   UNL     1     -34.195  21.475   0.989  0.00  0.00    +0.150 HD
ENDBRANCH   5  20
BRANCH   3  23
ATOM     23  C   UNL     1     -38.295  24.934   0.702  0.00  0.00    +0.123 C 
ATOM     24  C   UNL     1     -37.496  26.116   0.142  0.00  0.00    +0.029 C 
BRANCH  23  25
ATOM     25  N   UNL     1     -39.494  25.445   1.349  0.00  0.00    -0.316 N 
ATOM     26  N   UNL     1     -40.890  24.144   0.009  0.00  0.00    -0.233 NA
ATOM     27  N   UNL     1     -43.281  24.251   0.291  0.00  0.00    -0.233 NA
ATOM     28  C   UNL     1     -40.770  25.049   1.001  0.00  0.00    +0.124 C 
ATOM     29  C   UNL     1     -41.842  25.594   1.677  0.00  0.00    +0.197 C 
ATOM     30  C   UNL     1     -43.087  25.154   1.275  0.00  0.00    +0.120 C 
ATOM     31  C   UNL     1     -42.155  23.794  -0.291  0.00  0.00    +0.252 C 
ATOM     32  H   UNL     1     -39.391  26.106   2.070  0.00  0.00    +0.148 HD
ATOM     33  N   UNL     1     -44.237  25.672   1.922  0.00  0.00    -0.345 N 
ATOM     34  H   UNL     1     -45.133  25.369   1.649  0.00  0.00    +0.143 HD
ATOM     35  H   UNL     1     -44.140  26.333   2.644  0.00  0.00    +0.143 HD
BRANCH  29  37
ATOM     36  N   UNL     1     -41.540  27.335   3.573  0.00  0.00    -0.195 NA
ATOM     37  C   UNL     1     -41.675  26.556   2.724  0.00  0.00    +0.087 C 
ENDBRANCH  29  37
ENDBRANCH  23  25
ENDBRANCH   3  23
TORSDOF 5
ENDMDL
MODEL 6
REMARK VINA RESULT:      -5.8      3.287      7.572
REMARK  Name = 59634686
REMARK  5 active torsions:
REMARK  status: ('A' for Active; 'I' for Inactive)
REMARK    1  A    between atoms: C_3  and  C_23
REMARK    2  A    between atoms: C_4  and  C_13
REMARK    3  A    between atoms: C_5  and  C_20
REMARK    4  A    between atoms: C_23  and  N_25
REMARK    5  A    between atoms: C_29  and  C_37
REMARK                            x       y       z     vdW  Elec       q    Type
REMARK                         _______ _______ _______ _____ _____    ______ ____
ROOT
ATOM      1  F   UNL     1     -31.870  15.072   0.226  0.00  0.00    -0.205 F 
ATOM      2  N   UNL     1     -33.218  20.409   0.390  0.00  0.00    -0.409 NA
ATOM      3  C   UNL     1     -34.471  20.783   0.042  0.00  0.00    +0.128 C 
ATOM      4  C   UNL     1     -35.457  19.905  -0.361  0.00  0.00    +0.049 C 
ATOM      5  C   UNL     1     -35.135  18.556  -0.407  0.00  0.00    +0.059 C 
ATOM      6  C   UNL     1     -33.848  18.126  -0.055  0.00  0.00    +0.032 C 
ATOM      7  C   UNL     1     -32.909  19.100   0.343  0.00  0.00    +0.113 C 
ATOM      8  C   UNL     1     -33.491  16.767  -0.091  0.00  0.00    +0.032 C 
ATOM      9  C   UNL     1     -31.631  18.672   0.693  0.00  0.00    +0.087 C 
ATOM     10  C   UNL     1     -32.207  16.368   0.264  0.00  0.00    +0.136 C 
ATOM     11  C   UNL     1     -31.275  17.321   0.656  0.00  0.00    +0.011 C 
ENDROOT
BRANCH   4  13
ATOM     12  N   UNL     1     -37.689  20.342   0.281  0.00  0.00    -0.244 NA
ATOM     13  C   UNL     1     -36.780  20.383  -0.718  0.00  0.00    +0.084 C 
ATOM     14  C   UNL     1     -37.052  20.840  -1.997  0.00  0.00    +0.019 C 
ATOM     15  C   UNL     1     -38.340  21.284  -2.269  0.00  0.00    +0.003 C 
ATOM     16  C   UNL     1     -38.932  20.782  -0.021  0.00  0.00    +0.099 C 
ATOM     17  C   UNL     1     -39.305  21.257  -1.267  0.00  0.00    +0.021 C 
ENDBRANCH   4  13
BRANCH   5  20
ATOM     18  O   UNL     1     -36.225  17.241  -2.013  0.00  0.00    -0.270 OA
ATOM     19  N   UNL     1     -37.008  17.112   0.166  0.00  0.00    -0.299 N 
ATOM     20  C   UNL     1     -36.159  17.597  -0.829  0.00  0.00    +0.246 C 
ATOM     21  C   UNL     1     -38.051  16.144  -0.088  0.00  0.00    +0.111 C 
ATOM     22  H   UNL     1     -36.891  17.445   1.084  0.00  0.00    +0.150 HD
ENDBRANCH   5  20
BRANCH   3  23
ATOM     23  C   UNL     1     -34.734  22.253   0.120  0.00  0.00    +0.123 C 
ATOM     24  C   UNL     1     -33.470  23.112  -0.019  0.00  0.00    +0.029 C 
BRANCH  23  25
ATOM     25  N   UNL     1     -35.396  22.595   1.370  0.00  0.00    -0.316 N 
ATOM     26  N   UNL     1     -37.001  23.887   0.279  0.00  0.00    -0.233 NA
ATOM     27  N   UNL     1     -38.723  25.001   1.545  0.00  0.00    -0.233 NA
ATOM     28  C   UNL     1     -36.514  23.402   1.438  0.00  0.00    +0.124 C 
ATOM     29  C   UNL     1     -37.068  23.665   2.674  0.00  0.00    +0.197 C 
ATOM     30  C   UNL     1     -38.182  24.480   2.666  0.00  0.00    +0.120 C 
ATOM     31  C   UNL     1     -38.091  24.669   0.403  0.00  0.00    +0.252 C 
ATOM     32  H   UNL     1     -35.029  22.234   2.208  0.00  0.00    +0.148 HD
ATOM     33  N   UNL     1     -38.805  24.797   3.900  0.00  0.00    -0.345 N 
ATOM     34  H   UNL     1     -39.601  25.376   3.914  0.00  0.00    +0.143 HD
ATOM     35  H   UNL     1     -38.443  24.439   4.741  0.00  0.00    +0.143 HD
BRANCH  29  37
ATOM     36  N   UNL     1     -36.077  22.700   4.866  0.00  0.00    -0.195 NA
ATOM     37  C   UNL     1     -36.521  23.133   3.885  0.00  0.00    +0.087 C 
ENDBRANCH  29  37
ENDBRANCH  23  25
ENDBRANCH   3  23
TORSDOF 5
ENDMDL
MODEL 7
REMARK VINA RESULT:      -5.7      4.852      7.714
REMARK  Name = 59634686
REMARK  5 active torsions:
REMARK  status: ('A' for Active; 'I' for Inactive)
REMARK    1  A    between atoms: C_3  and  C_23
REMARK    2  A    between atoms: C_4  and  C_13
REMARK    3  A    between atoms: C_5  and  C_20
REMARK    4  A    between atoms: C_23  and  N_25
REMARK    5  A    between atoms: C_29  and  C_37
REMARK                            x       y       z     vdW  Elec       q    Type
REMARK                         _______ _______ _______ _____ _____    ______ ____
ROOT
ATOM      1  F   UNL     1     -31.175  30.226   5.488  0.00  0.00    -0.205 F 
ATOM      2  N   UNL     1     -34.228  25.644   5.367  0.00  0.00    -0.409 NA
ATOM      3  C   UNL     1     -35.093  25.456   4.343  0.00  0.00    +0.128 C 
ATOM      4  C   UNL     1     -35.270  26.349   3.306  0.00  0.00    +0.049 C 
ATOM      5  C   UNL     1     -34.509  27.509   3.320  0.00  0.00    +0.059 C 
ATOM      6  C   UNL     1     -33.600  27.742   4.362  0.00  0.00    +0.032 C 
ATOM      7  C   UNL     1     -33.491  26.770   5.377  0.00  0.00    +0.113 C 
ATOM      8  C   UNL     1     -32.815  28.907   4.405  0.00  0.00    +0.032 C 
ATOM      9  C   UNL     1     -32.588  27.003   6.412  0.00  0.00    +0.087 C 
ATOM     10  C   UNL     1     -31.920  29.114   5.451  0.00  0.00    +0.136 C 
ATOM     11  C   UNL     1     -31.807  28.162   6.456  0.00  0.00    +0.011 C 
ENDROOT
BRANCH   4  13
ATOM     12  N   UNL     1     -35.677  25.573   1.111  0.00  0.00    -0.244 NA
ATOM     13  C   UNL     1     -36.219  26.076   2.242  0.00  0.00    +0.084 C 
ATOM     14  C   UNL     1     -37.571  26.325   2.411  0.00  0.00    +0.019 C 
ATOM     15  C   UNL     1     -38.423  26.039   1.350  0.00  0.00    +0.003 C 
ATOM     16  C   UNL     1     -36.536  25.308   0.101  0.00  0.00    +0.099 C 
ATOM     17  C   UNL     1     -37.903  25.521   0.169  0.00  0.00    +0.021 C 
ENDBRANCH   4  13
BRANCH   5  20
ATOM     18  O   UNL     1     -33.962  28.400   1.222  0.00  0.00    -0.270 OA
ATOM     19  N   UNL     1     -35.666  29.442   2.401  0.00  0.00    -0.299 N 
ATOM     20  C   UNL     1     -34.672  28.477   2.233  0.00  0.00    +0.246 C 
ATOM     21  C   UNL     1     -35.965  30.449   1.408  0.00  0.00    +0.111 C 
ATOM     22  H   UNL     1     -36.188  29.436   3.235  0.00  0.00    +0.150 HD
ENDBRANCH   5  20
BRANCH   3  23
ATOM     23  C   UNL     1     -35.874  24.182   4.405  0.00  0.00    +0.123 C 
ATOM     24  C   UNL     1     -35.605  23.357   5.670  0.00  0.00    +0.029 C 
BRANCH  23  25
ATOM     25  N   UNL     1     -35.604  23.352   3.240  0.00  0.00    -0.316 N 
ATOM     26  N   UNL     1     -37.854  22.798   2.992  0.00  0.00    -0.233 NA
ATOM     27  N   UNL     1     -38.551  21.341   1.203  0.00  0.00    -0.233 NA
ATOM     28  C   UNL     1     -36.587  22.674   2.549  0.00  0.00    +0.124 C 
ATOM     29  C   UNL     1     -36.227  21.913   1.456  0.00  0.00    +0.197 C 
ATOM     30  C   UNL     1     -37.261  21.262   0.815  0.00  0.00    +0.120 C 
ATOM     31  C   UNL     1     -38.774  22.115   2.282  0.00  0.00    +0.252 C 
ATOM     32  H   UNL     1     -34.674  23.271   2.930  0.00  0.00    +0.148 HD
ATOM     33  N   UNL     1     -36.967  20.459  -0.315  0.00  0.00    -0.345 N 
ATOM     34  H   UNL     1     -37.692  19.988  -0.786  0.00  0.00    +0.143 HD
ATOM     35  H   UNL     1     -36.039  20.374  -0.631  0.00  0.00    +0.143 HD
BRANCH  29  37
ATOM     36  N   UNL     1     -33.767  21.716   0.661  0.00  0.00    -0.195 NA
ATOM     37  C   UNL     1     -34.868  21.804   1.017  0.00  0.00    +0.087 C 
ENDBRANCH  29  37
ENDBRANCH  23  25
ENDBRANCH   3  23
TORSDOF 5
ENDMDL
MODEL 8
REMARK VINA RESULT:      -5.7      3.866      7.521
REMARK  Name = 59634686
REMARK  5 active torsions:
REMARK  status: ('A' for Active; 'I' for Inactive)
REMARK    1  A    between atoms: C_3  and  C_23
REMARK    2  A    between atoms: C_4  and  C_13
REMARK    3  A    between atoms: C_5  and  C_20
REMARK    4  A    between atoms: C_23  and  N_25
REMARK    5  A    between atoms: C_29  and  C_37
REMARK                            x       y       z     vdW  Elec       q    Type
REMARK                         _______ _______ _______ _____ _____    ______ ____
ROOT
ATOM      1  F   UNL     1     -31.288  18.272  -1.201  0.00  0.00    -0.205 F 
ATOM      2  N   UNL     1     -34.811  20.687   2.276  0.00  0.00    -0.409 NA
ATOM      3  C   UNL     1     -35.031  22.018   2.172  0.00  0.00    +0.128 C 
ATOM      4  C   UNL     1     -34.424  22.832   1.237  0.00  0.00    +0.049 C 
ATOM      5  C   UNL     1     -33.534  22.240   0.352  0.00  0.00    +0.059 C 
ATOM      6  C   UNL     1     -33.277  20.864   0.426  0.00  0.00    +0.032 C 
ATOM      7  C   UNL     1     -33.946  20.116   1.416  0.00  0.00    +0.113 C 
ATOM      8  C   UNL     1     -32.381  20.235  -0.455  0.00  0.00    +0.032 C 
ATOM      9  C   UNL     1     -33.690  18.749   1.490  0.00  0.00    +0.087 C 
ATOM     10  C   UNL     1     -32.144  18.867  -0.360  0.00  0.00    +0.136 C 
ATOM     11  C   UNL     1     -32.798  18.123   0.614  0.00  0.00    +0.011 C 
ENDROOT
BRANCH   4  13
ATOM     12  N   UNL     1     -35.592  24.622   0.229  0.00  0.00    -0.244 NA
ATOM     13  C   UNL     1     -34.714  24.253   1.187  0.00  0.00    +0.084 C 
ATOM     14  C   UNL     1     -34.114  25.135   2.071  0.00  0.00    +0.019 C 
ATOM     15  C   UNL     1     -34.438  26.482   1.966  0.00  0.00    +0.003 C 
ATOM     16  C   UNL     1     -35.883  25.941   0.157  0.00  0.00    +0.099 C 
ATOM     17  C   UNL     1     -35.338  26.902   0.993  0.00  0.00    +0.021 C 
ENDBRANCH   4  13
BRANCH   5  20
ATOM     18  O   UNL     1     -31.753  23.553  -0.424  0.00  0.00    -0.270 OA
ATOM     19  N   UNL     1     -33.557  23.268  -1.853  0.00  0.00    -0.299 N 
ATOM     20  C   UNL     1     -32.873  23.076  -0.653  0.00  0.00    +0.246 C 
ATOM     21  C   UNL     1     -33.026  24.046  -2.950  0.00  0.00    +0.111 C 
ATOM     22  H   UNL     1     -34.444  22.856  -1.958  0.00  0.00    +0.150 HD
ENDBRANCH   5  20
BRANCH   3  23
ATOM     23  C   UNL     1     -36.004  22.575   3.162  0.00  0.00    +0.123 C 
ATOM     24  C   UNL     1     -35.938  21.897   4.536  0.00  0.00    +0.029 C 
BRANCH  23  25
ATOM     25  N   UNL     1     -37.366  22.480   2.660  0.00  0.00    -0.316 N 
ATOM     26  N   UNL     1     -37.735  24.764   2.946  0.00  0.00    -0.233 NA
ATOM     27  N   UNL     1     -39.866  25.728   2.364  0.00  0.00    -0.233 NA
ATOM     28  C   UNL     1     -38.212  23.565   2.556  0.00  0.00    +0.124 C 
ATOM     29  C   UNL     1     -39.488  23.369   2.066  0.00  0.00    +0.197 C 
ATOM     30  C   UNL     1     -40.278  24.498   1.992  0.00  0.00    +0.120 C 
ATOM     31  C   UNL     1     -38.602  25.788   2.825  0.00  0.00    +0.252 C 
ATOM     32  H   UNL     1     -37.701  21.598   2.380  0.00  0.00    +0.148 HD
ATOM     33  N   UNL     1     -41.602  24.374   1.501  0.00  0.00    -0.345 N 
ATOM     34  H   UNL     1     -42.180  25.169   1.440  0.00  0.00    +0.143 HD
ATOM     35  H   UNL     1     -41.943  23.495   1.219  0.00  0.00    +0.143 HD
BRANCH  29  37
ATOM     36  N   UNL     1     -40.344  21.034   1.337  0.00  0.00    -0.195 NA
ATOM     37  C   UNL     1     -39.961  22.079   1.664  0.00  0.00    +0.087 C 
ENDBRANCH  29  37
ENDBRANCH  23  25
ENDBRANCH   3  23
TORSDOF 5
ENDMDL
MODEL 9
REMARK VINA RESULT:      -5.7     17.115     20.400
REMARK  Name = 59634686
REMARK  5 active torsions:
REMARK  status: ('A' for Active; 'I' for Inactive)
REMARK    1  A    between atoms: C_3  and  C_23
REMARK    2  A    between atoms: C_4  and  C_13
REMARK    3  A    between atoms: C_5  and  C_20
REMARK    4  A    between atoms: C_23  and  N_25
REMARK    5  A    between atoms: C_29  and  C_37
REMARK                            x       y       z     vdW  Elec       q    Type
REMARK                         _______ _______ _______ _____ _____    ______ ____
ROOT
ATOM      1  F   UNL     1     -34.926  32.791   1.434  0.00  0.00    -0.205 F 
ATOM      2  N   UNL     1     -31.613  37.109   2.280  0.00  0.00    -0.409 NA
ATOM      3  C   UNL     1     -31.961  38.315   1.775  0.00  0.00    +0.128 C 
ATOM      4  C   UNL     1     -33.111  38.547   1.047  0.00  0.00    +0.049 C 
ATOM      5  C   UNL     1     -33.958  37.470   0.826  0.00  0.00    +0.059 C 
ATOM      6  C   UNL     1     -33.635  36.204   1.331  0.00  0.00    +0.032 C 
ATOM      7  C   UNL     1     -32.437  36.067   2.062  0.00  0.00    +0.113 C 
ATOM      8  C   UNL     1     -34.471  35.093   1.123  0.00  0.00    +0.032 C 
ATOM      9  C   UNL     1     -32.116  34.808   2.563  0.00  0.00    +0.087 C 
ATOM     10  C   UNL     1     -34.126  33.847   1.636  0.00  0.00    +0.136 C 
ATOM     11  C   UNL     1     -32.947  33.703   2.357  0.00  0.00    +0.011 C 
ENDROOT
BRANCH   4  13
ATOM     12  N   UNL     1     -33.012  40.103  -0.729  0.00  0.00    -0.244 NA
ATOM     13  C   UNL     1     -33.417  39.872   0.540  0.00  0.00    +0.084 C 
ATOM     14  C   UNL     1     -34.076  40.802   1.327  0.00  0.00    +0.019 C 
ATOM     15  C   UNL     1     -34.336  42.052   0.776  0.00  0.00    +0.003 C 
ATOM     16  C   UNL     1     -33.283  41.329  -1.231  0.00  0.00    +0.099 C 
ATOM     17  C   UNL     1     -33.935  42.328  -0.527  0.00  0.00    +0.021 C 
ENDBRANCH   4  13
BRANCH   5  20
ATOM     18  O   UNL     1     -36.254  37.907   0.644  0.00  0.00    -0.270 OA
ATOM     19  N   UNL     1     -35.071  37.640  -1.332  0.00  0.00    -0.299 N 
ATOM     20  C   UNL     1     -35.187  37.682   0.058  0.00  0.00    +0.246 C 
ATOM     21  C   UNL     1     -36.186  37.854  -2.225  0.00  0.00    +0.111 C 
ATOM     22  H   UNL     1     -34.187  37.455  -1.722  0.00  0.00    +0.150 HD
ENDBRANCH   5  20
BRANCH   3  23
ATOM     23  C   UNL     1     -30.994  39.420   2.060  0.00  0.00    +0.123 C 
ATOM     24  C   UNL     1     -29.632  39.236   1.379  0.00  0.00    +0.029 C 
BRANCH  23  25
ATOM     25  N   UNL     1     -30.785  39.568   3.492  0.00  0.00    -0.316 N 
ATOM     26  N   UNL     1     -31.712  41.707   3.506  0.00  0.00    -0.233 NA
ATOM     27  N   UNL     1     -31.858  42.949   5.566  0.00  0.00    -0.233 NA
ATOM     28  C   UNL     1     -31.142  40.699   4.197  0.00  0.00    +0.124 C 
ATOM     29  C   UNL     1     -30.901  40.740   5.555  0.00  0.00    +0.197 C 
ATOM     30  C   UNL     1     -31.283  41.902   6.194  0.00  0.00    +0.120 C 
ATOM     31  C   UNL     1     -32.040  42.786   4.242  0.00  0.00    +0.252 C 
ATOM     32  H   UNL     1     -30.367  38.825   3.983  0.00  0.00    +0.148 HD
ATOM     33  N   UNL     1     -31.063  42.018   7.590  0.00  0.00    -0.345 N 
ATOM     34  H   UNL     1     -31.330  42.839   8.063  0.00  0.00    +0.143 HD
ATOM     35  H   UNL     1     -30.646  41.278   8.086  0.00  0.00    +0.143 HD
BRANCH  29  37
ATOM     36  N   UNL     1     -29.795  38.767   6.821  0.00  0.00    -0.195 NA
ATOM     37  C   UNL     1     -30.291  39.650   6.255  0.00  0.00    +0.087 C 
ENDBRANCH  29  37
ENDBRANCH  23  25
ENDBRANCH   3  23
TORSDOF 5
ENDMDL
