MODEL 1
REMARK VINA RESULT:      -6.3      0.000      0.000
REMARK  Name = 192761
REMARK  8 active torsions:
REMARK  status: ('A' for Active; 'I' for Inactive)
REMARK    1  A    between atoms: C_2  and  O_18
REMARK    2  A    between atoms: C_13  and  O_22
REMARK    3  A    between atoms: C_14  and  O_26
REMARK    4  A    between atoms: C_17  and  O_30
REMARK    5  A    between atoms: O_18  and  C_20
REMARK    6  A    between atoms: O_22  and  C_24
REMARK    7  A    between atoms: O_26  and  C_28
REMARK    8  A    between atoms: O_30  and  C_32
REMARK                            x       y       z     vdW  Elec       q    Type
REMARK                         _______ _______ _______ _____ _____    ______ ____
ROOT
ATOM      1  O   UNL     1     -37.978  25.129   3.235  0.00  0.00    -0.472 OA
ATOM      2  C   UNL     1     -38.181  22.939   2.152  0.00  0.00    +0.187 C 
ATOM      3  C   UNL     1     -36.930  22.397   2.900  0.00  0.00    +0.088 C 
ATOM      4  C   UNL     1     -37.714  23.410   0.753  0.00  0.00    +0.071 C 
ATOM      5  C   UNL     1     -36.060  21.988   1.733  0.00  0.00    -0.015 C 
ATOM      6  C   UNL     1     -36.504  22.559   0.537  0.00  0.00    -0.019 C 
ATOM      7  C   UNL     1     -38.861  24.046   2.947  0.00  0.00    +0.246 C 
ATOM      8  C   UNL     1     -36.310  23.440   3.803  0.00  0.00    +0.019 C 
ATOM      9  C   UNL     1     -36.849  24.732   3.903  0.00  0.00    +0.138 C 
ATOM     10  C   UNL     1     -34.957  21.148   1.743  0.00  0.00    +0.037 C 
ATOM     11  C   UNL     1     -35.838  22.335  -0.659  0.00  0.00    +0.036 C 
ATOM     12  C   UNL     1     -35.178  23.132   4.573  0.00  0.00    +0.002 C 
ATOM     13  C   UNL     1     -34.284  20.908   0.542  0.00  0.00    +0.182 C 
ATOM     14  C   UNL     1     -34.720  21.501  -0.650  0.00  0.00    +0.182 C 
ATOM     15  C   UNL     1     -36.231  25.707   4.693  0.00  0.00    +0.074 C 
ATOM     16  C   UNL     1     -34.573  24.098   5.379  0.00  0.00    +0.037 C 
ATOM     17  C   UNL     1     -35.093  25.388   5.430  0.00  0.00    +0.151 C 
ENDROOT
BRANCH   2  18
ATOM     18  O   UNL     1     -39.114  21.865   1.995  0.00  0.00    -0.451 OA
BRANCH  18  20
ATOM     19  O   UNL     1     -40.875  22.879   0.898  0.00  0.00    -0.250 OA
ATOM     20  C   UNL     1     -40.014  22.014   0.982  0.00  0.00    +0.317 C 
ATOM     21  C   UNL     1     -39.797  20.943  -0.043  0.00  0.00    +0.121 C 
ENDBRANCH  18  20
ENDBRANCH   2  18
BRANCH  13  22
ATOM     22  O   UNL     1     -33.194  20.088   0.544  0.00  0.00    -0.421 OA
BRANCH  22  24
ATOM     23  O   UNL     1     -34.533  18.178   0.354  0.00  0.00    -0.250 OA
ATOM     24  C   UNL     1     -33.501  18.729   0.713  0.00  0.00    +0.322 C 
ATOM     25  C   UNL     1     -32.371  18.032   1.409  0.00  0.00    +0.122 C 
ENDBRANCH  22  24
ENDBRANCH  13  22
BRANCH  14  26
ATOM     26  O   UNL     1     -34.056  21.266  -1.817  0.00  0.00    -0.421 OA
BRANCH  26  28
ATOM     27  O   UNL     1     -35.463  19.510  -2.461  0.00  0.00    -0.250 OA
ATOM     28  C   UNL     1     -34.772  20.483  -2.735  0.00  0.00    +0.322 C 
ATOM     29  C   UNL     1     -34.570  21.010  -4.125  0.00  0.00    +0.122 C 
ENDBRANCH  26  28
ENDBRANCH  14  26
BRANCH  17  30
ATOM     30  O   UNL     1     -34.499  26.333   6.208  0.00  0.00    -0.424 OA
BRANCH  30  32
ATOM     31  O   UNL     1     -32.949  26.789   4.514  0.00  0.00    -0.250 OA
ATOM     32  C   UNL     1     -33.292  26.829   5.689  0.00  0.00    +0.322 C 
ATOM     33  C   UNL     1     -32.464  27.424   6.788  0.00  0.00    +0.122 C 
ENDBRANCH  30  32
ENDBRANCH  17  30
TORSDOF 8
ENDMDL
MODEL 2
REMARK VINA RESULT:      -6.2      2.261      7.039
REMARK  Name = 192761
REMARK  8 active torsions:
REMARK  status: ('A' for Active; 'I' for Inactive)
REMARK    1  A    between atoms: C_2  and  O_18
REMARK    2  A    between atoms: C_13  and  O_22
REMARK    3  A    between atoms: C_14  and  O_26
REMARK    4  A    between atoms: C_17  and  O_30
REMARK    5  A    between atoms: O_18  and  C_20
REMARK    6  A    between atoms: O_22  and  C_24
REMARK    7  A    between atoms: O_26  and  C_28
REMARK    8  A    between atoms: O_30  and  C_32
REMARK                            x       y       z     vdW  Elec       q    Type
REMARK                         _______ _______ _______ _____ _____    ______ ____
ROOT
ATOM      1  O   UNL     1     -35.832  19.923   2.182  0.00  0.00    -0.472 OA
ATOM      2  C   UNL     1     -36.902  22.084   1.738  0.00  0.00    +0.187 C 
ATOM      3  C   UNL     1     -35.702  22.555   0.868  0.00  0.00    +0.088 C 
ATOM      4  C   UNL     1     -36.693  22.659   3.161  0.00  0.00    +0.071 C 
ATOM      5  C   UNL     1     -35.305  23.819   1.597  0.00  0.00    -0.015 C 
ATOM      6  C   UNL     1     -35.862  23.869   2.878  0.00  0.00    -0.019 C 
ATOM      7  C   UNL     1     -37.024  20.565   1.731  0.00  0.00    +0.246 C 
ATOM      8  C   UNL     1     -34.609  21.512   0.791  0.00  0.00    +0.019 C 
ATOM      9  C   UNL     1     -34.726  20.283   1.457  0.00  0.00    +0.138 C 
ATOM     10  C   UNL     1     -34.512  24.859   1.135  0.00  0.00    +0.037 C 
ATOM     11  C   UNL     1     -35.610  24.933   3.732  0.00  0.00    +0.036 C 
ATOM     12  C   UNL     1     -33.450  21.751   0.036  0.00  0.00    +0.002 C 
ATOM     13  C   UNL     1     -34.260  25.940   1.983  0.00  0.00    +0.182 C 
ATOM     14  C   UNL     1     -34.802  25.974   3.275  0.00  0.00    +0.182 C 
ATOM     15  C   UNL     1     -33.683  19.352   1.430  0.00  0.00    +0.074 C 
ATOM     16  C   UNL     1     -32.417  20.813  -0.009  0.00  0.00    +0.037 C 
ATOM     17  C   UNL     1     -32.530  19.618   0.696  0.00  0.00    +0.151 C 
ENDROOT
BRANCH   2  18
ATOM     18  O   UNL     1     -38.103  22.631   1.185  0.00  0.00    -0.451 OA
BRANCH  18  20
ATOM     19  O   UNL     1     -39.834  21.491   2.205  0.00  0.00    -0.250 OA
ATOM     20  C   UNL     1     -39.213  22.518   1.969  0.00  0.00    +0.317 C 
ATOM     21  C   UNL     1     -39.576  23.864   2.519  0.00  0.00    +0.121 C 
ENDBRANCH  18  20
ENDBRANCH   2  18
BRANCH  13  22
ATOM     22  O   UNL     1     -33.476  26.964   1.539  0.00  0.00    -0.421 OA
BRANCH  22  24
ATOM     23  O   UNL     1     -31.410  25.870   1.649  0.00  0.00    -0.250 OA
ATOM     24  C   UNL     1     -32.226  26.556   1.048  0.00  0.00    +0.322 C 
ATOM     25  C   UNL     1     -32.024  27.087  -0.339  0.00  0.00    +0.122 C 
ENDBRANCH  22  24
ENDBRANCH  13  22
BRANCH  14  26
ATOM     26  O   UNL     1     -34.548  27.030   4.098  0.00  0.00    -0.421 OA
BRANCH  26  28
ATOM     27  O   UNL     1     -32.258  27.144   4.567  0.00  0.00    -0.250 OA
ATOM     28  C   UNL     1     -33.405  26.872   4.897  0.00  0.00    +0.322 C 
ATOM     29  C   UNL     1     -33.788  26.310   6.234  0.00  0.00    +0.122 C 
ENDBRANCH  26  28
ENDBRANCH  14  26
BRANCH  17  30
ATOM     30  O   UNL     1     -31.520  18.707   0.660  0.00  0.00    -0.424 OA
BRANCH  30  32
ATOM     31  O   UNL     1     -32.045  16.425   0.675  0.00  0.00    -0.250 OA
ATOM     32  C   UNL     1     -31.875  17.479   0.075  0.00  0.00    +0.322 C 
ATOM     33  C   UNL     1     -32.015  17.636  -1.409  0.00  0.00    +0.122 C 
ENDBRANCH  30  32
ENDBRANCH  17  30
TORSDOF 8
ENDMDL
MODEL 3
REMARK VINA RESULT:      -6.2      4.110      7.709
REMARK  Name = 192761
REMARK  8 active torsions:
REMARK  status: ('A' for Active; 'I' for Inactive)
REMARK    1  A    between atoms: C_2  and  O_18
REMARK    2  A    between atoms: C_13  and  O_22
REMARK    3  A    between atoms: C_14  and  O_26
REMARK    4  A    between atoms: C_17  and  O_30
REMARK    5  A    between atoms: O_18  and  C_20
REMARK    6  A    between atoms: O_22  and  C_24
REMARK    7  A    between atoms: O_26  and  C_28
REMARK    8  A    between atoms: O_30  and  C_32
REMARK                            x       y       z     vdW  Elec       q    Type
REMARK                         _______ _______ _______ _____ _____    ______ ____
ROOT
ATOM      1  O   UNL     1     -33.377  30.142   4.086  0.00  0.00    -0.472 OA
ATOM      2  C   UNL     1     -32.712  27.833   3.604  0.00  0.00    +0.187 C 
ATOM      3  C   UNL     1     -33.820  27.687   2.522  0.00  0.00    +0.088 C 
ATOM      4  C   UNL     1     -33.269  27.230   4.918  0.00  0.00    +0.071 C 
ATOM      5  C   UNL     1     -34.582  26.498   3.059  0.00  0.00    -0.015 C 
ATOM      6  C   UNL     1     -34.270  26.249   4.398  0.00  0.00    -0.019 C 
ATOM      7  C   UNL     1     -32.283  29.286   3.760  0.00  0.00    +0.246 C 
ATOM      8  C   UNL     1     -34.648  28.945   2.381  0.00  0.00    +0.019 C 
ATOM      9  C   UNL     1     -34.396  30.076   3.172  0.00  0.00    +0.138 C 
ATOM     10  C   UNL     1     -35.482  25.684   2.385  0.00  0.00    +0.037 C 
ATOM     11  C   UNL     1     -34.873  25.215   5.099  0.00  0.00    +0.036 C 
ATOM     12  C   UNL     1     -35.689  29.010   1.442  0.00  0.00    +0.002 C 
ATOM     13  C   UNL     1     -36.088  24.634   3.079  0.00  0.00    +0.182 C 
ATOM     14  C   UNL     1     -35.788  24.404   4.428  0.00  0.00    +0.182 C 
ATOM     15  C   UNL     1     -35.207  31.211   3.077  0.00  0.00    +0.074 C 
ATOM     16  C   UNL     1     -36.486  30.151   1.331  0.00  0.00    +0.037 C 
ATOM     17  C   UNL     1     -36.251  31.248   2.156  0.00  0.00    +0.151 C 
ENDROOT
BRANCH   2  18
ATOM     18  O   UNL     1     -31.573  27.073   3.188  0.00  0.00    -0.451 OA
BRANCH  18  20
ATOM     19  O   UNL     1     -30.587  28.301   1.497  0.00  0.00    -0.250 OA
ATOM     20  C   UNL     1     -31.154  27.298   1.910  0.00  0.00    +0.317 C 
ATOM     21  C   UNL     1     -31.494  26.114   1.056  0.00  0.00    +0.121 C 
ENDBRANCH  18  20
ENDBRANCH   2  18
BRANCH  13  22
ATOM     22  O   UNL     1     -36.979  23.833   2.426  0.00  0.00    -0.421 OA
BRANCH  22  24
ATOM     23  O   UNL     1     -39.008  24.387   3.455  0.00  0.00    -0.250 OA
ATOM     24  C   UNL     1     -38.301  24.304   2.459  0.00  0.00    +0.322 C 
ATOM     25  C   UNL     1     -38.738  24.697   1.079  0.00  0.00    +0.122 C 
ENDBRANCH  22  24
ENDBRANCH  13  22
BRANCH  14  26
ATOM     26  O   UNL     1     -36.387  23.379   5.099  0.00  0.00    -0.421 OA
BRANCH  26  28
ATOM     27  O   UNL     1     -35.358  21.488   4.180  0.00  0.00    -0.250 OA
ATOM     28  C   UNL     1     -35.627  22.200   5.139  0.00  0.00    +0.322 C 
ATOM     29  C   UNL     1     -35.182  21.924   6.546  0.00  0.00    +0.122 C 
ENDBRANCH  26  28
ENDBRANCH  14  26
BRANCH  17  30
ATOM     30  O   UNL     1     -37.033  32.356   2.056  0.00  0.00    -0.424 OA
BRANCH  30  32
ATOM     31  O   UNL     1     -39.180  31.752   1.346  0.00  0.00    -0.250 OA
ATOM     32  C   UNL     1     -38.079  32.239   1.125  0.00  0.00    +0.322 C 
ATOM     33  C   UNL     1     -37.656  32.800  -0.199  0.00  0.00    +0.122 C 
ENDBRANCH  30  32
ENDBRANCH  17  30
TORSDOF 8
ENDMDL
MODEL 4
REMARK VINA RESULT:      -6.0      3.079      8.056
REMARK  Name = 192761
REMARK  8 active torsions:
REMARK  status: ('A' for Active; 'I' for Inactive)
REMARK    1  A    between atoms: C_2  and  O_18
REMARK    2  A    between atoms: C_13  and  O_22
REMARK    3  A    between atoms: C_14  and  O_26
REMARK    4  A    between atoms: C_17  and  O_30
REMARK    5  A    between atoms: O_18  and  C_20
REMARK    6  A    between atoms: O_22  and  C_24
REMARK    7  A    between atoms: O_26  and  C_28
REMARK    8  A    between atoms: O_30  and  C_32
REMARK                            x       y       z     vdW  Elec       q    Type
REMARK                         _______ _______ _______ _____ _____    ______ ____
ROOT
ATOM      1  O   UNL     1     -35.518  21.067   1.880  0.00  0.00    -0.472 OA
ATOM      2  C   UNL     1     -36.404  22.829   3.337  0.00  0.00    +0.187 C 
ATOM      3  C   UNL     1     -37.835  22.663   2.751  0.00  0.00    +0.088 C 
ATOM      4  C   UNL     1     -35.732  24.007   2.588  0.00  0.00    +0.071 C 
ATOM      5  C   UNL     1     -38.099  24.066   2.254  0.00  0.00    -0.015 C 
ATOM      6  C   UNL     1     -36.919  24.811   2.164  0.00  0.00    -0.019 C 
ATOM      7  C   UNL     1     -35.610  21.534   3.226  0.00  0.00    +0.246 C 
ATOM      8  C   UNL     1     -37.891  21.601   1.675  0.00  0.00    +0.019 C 
ATOM      9  C   UNL     1     -36.744  20.889   1.294  0.00  0.00    +0.138 C 
ATOM     10  C   UNL     1     -39.318  24.640   1.921  0.00  0.00    +0.037 C 
ATOM     11  C   UNL     1     -36.926  26.120   1.708  0.00  0.00    +0.036 C 
ATOM     12  C   UNL     1     -39.103  21.298   1.038  0.00  0.00    +0.002 C 
ATOM     13  C   UNL     1     -39.337  25.962   1.470  0.00  0.00    +0.182 C 
ATOM     14  C   UNL     1     -38.148  26.695   1.360  0.00  0.00    +0.182 C 
ATOM     15  C   UNL     1     -36.794  19.953   0.255  0.00  0.00    +0.074 C 
ATOM     16  C   UNL     1     -39.159  20.349   0.015  0.00  0.00    +0.037 C 
ATOM     17  C   UNL     1     -38.002  19.684  -0.383  0.00  0.00    +0.151 C 
ENDROOT
BRANCH   2  18
ATOM     18  O   UNL     1     -36.520  23.164   4.723  0.00  0.00    -0.451 OA
BRANCH  18  20
ATOM     19  O   UNL     1     -34.418  23.955   5.266  0.00  0.00    -0.250 OA
ATOM     20  C   UNL     1     -35.349  23.177   5.423  0.00  0.00    +0.317 C 
ATOM     21  C   UNL     1     -35.361  22.076   6.439  0.00  0.00    +0.121 C 
ENDBRANCH  18  20
ENDBRANCH   2  18
BRANCH  13  22
ATOM     22  O   UNL     1     -40.530  26.532   1.134  0.00  0.00    -0.421 OA
BRANCH  22  24
ATOM     23  O   UNL     1     -41.204  27.175   3.281  0.00  0.00    -0.250 OA
ATOM     24  C   UNL     1     -41.432  26.641   2.204  0.00  0.00    +0.322 C 
ATOM     25  C   UNL     1     -42.737  25.999   1.839  0.00  0.00    +0.122 C 
ENDBRANCH  22  24
ENDBRANCH  13  22
BRANCH  14  26
ATOM     26  O   UNL     1     -38.175  27.984   0.915  0.00  0.00    -0.421 OA
BRANCH  26  28
ATOM     27  O   UNL     1     -38.027  27.551  -1.381  0.00  0.00    -0.250 OA
ATOM     28  C   UNL     1     -37.660  28.153  -0.380  0.00  0.00    +0.322 C 
ATOM     29  C   UNL     1     -36.578  29.191  -0.369  0.00  0.00    +0.122 C 
ENDBRANCH  26  28
ENDBRANCH  14  26
BRANCH  17  30
ATOM     30  O   UNL     1     -38.054  18.766  -1.384  0.00  0.00    -0.424 OA
BRANCH  30  32
ATOM     31  O   UNL     1     -39.956  17.403  -1.290  0.00  0.00    -0.250 OA
ATOM     32  C   UNL     1     -38.769  17.601  -1.060  0.00  0.00    +0.322 C 
ATOM     33  C   UNL     1     -37.867  16.616  -0.379  0.00  0.00    +0.122 C 
ENDBRANCH  30  32
ENDBRANCH  17  30
TORSDOF 8
ENDMDL
MODEL 5
REMARK VINA RESULT:      -6.0      2.455      7.408
REMARK  Name = 192761
REMARK  8 active torsions:
REMARK  status: ('A' for Active; 'I' for Inactive)
REMARK    1  A    between atoms: C_2  and  O_18
REMARK    2  A    between atoms: C_13  and  O_22
REMARK    3  A    between atoms: C_14  and  O_26
REMARK    4  A    between atoms: C_17  and  O_30
REMARK    5  A    between atoms: O_18  and  C_20
REMARK    6  A    between atoms: O_22  and  C_24
REMARK    7  A    between atoms: O_26  and  C_28
REMARK    8  A    between atoms: O_30  and  C_32
REMARK                            x       y       z     vdW  Elec       q    Type
REMARK                         _______ _______ _______ _____ _____    ______ ____
ROOT
ATOM      1  O   UNL     1     -36.869  22.673   3.747  0.00  0.00    -0.472 OA
ATOM      2  C   UNL     1     -36.744  25.103   3.454  0.00  0.00    +0.187 C 
ATOM      3  C   UNL     1     -35.703  24.961   2.307  0.00  0.00    +0.088 C 
ATOM      4  C   UNL     1     -35.957  25.379   4.759  0.00  0.00    +0.071 C 
ATOM      5  C   UNL     1     -34.562  25.784   2.859  0.00  0.00    -0.015 C 
ATOM      6  C   UNL     1     -34.710  26.013   4.230  0.00  0.00    -0.019 C 
ATOM      7  C   UNL     1     -37.627  23.866   3.553  0.00  0.00    +0.246 C 
ATOM      8  C   UNL     1     -35.352  23.516   2.031  0.00  0.00    +0.019 C 
ATOM      9  C   UNL     1     -35.931  22.472   2.768  0.00  0.00    +0.138 C 
ATOM     10  C   UNL     1     -33.474  26.306   2.174  0.00  0.00    +0.037 C 
ATOM     11  C   UNL     1     -33.763  26.729   4.948  0.00  0.00    +0.036 C 
ATOM     12  C   UNL     1     -34.439  23.187   1.018  0.00  0.00    +0.002 C 
ATOM     13  C   UNL     1     -32.520  27.037   2.885  0.00  0.00    +0.182 C 
ATOM     14  C   UNL     1     -32.661  27.243   4.264  0.00  0.00    +0.182 C 
ATOM     15  C   UNL     1     -35.552  21.144   2.547  0.00  0.00    +0.074 C 
ATOM     16  C   UNL     1     -34.076  21.860   0.782  0.00  0.00    +0.037 C 
ATOM     17  C   UNL     1     -34.625  20.839   1.554  0.00  0.00    +0.151 C 
ENDROOT
BRANCH   2  18
ATOM     18  O   UNL     1     -37.581  26.228   3.168  0.00  0.00    -0.451 OA
BRANCH  18  20
ATOM     19  O   UNL     1     -38.988  25.550   1.465  0.00  0.00    -0.250 OA
ATOM     20  C   UNL     1     -38.099  26.265   1.907  0.00  0.00    +0.317 C 
ATOM     21  C   UNL     1     -37.410  27.335   1.114  0.00  0.00    +0.121 C 
ENDBRANCH  18  20
ENDBRANCH   2  18
BRANCH  13  22
ATOM     22  O   UNL     1     -31.444  27.548   2.220  0.00  0.00    -0.421 OA
BRANCH  22  24
ATOM     23  O   UNL     1     -29.855  25.897   2.699  0.00  0.00    -0.250 OA
ATOM     24  C   UNL     1     -30.465  26.595   1.899  0.00  0.00    +0.322 C 
ATOM     25  C   UNL     1     -30.264  26.549   0.414  0.00  0.00    +0.122 C 
ENDBRANCH  22  24
ENDBRANCH  13  22
BRANCH  14  26
ATOM     26  O   UNL     1     -31.724  27.954   4.951  0.00  0.00    -0.421 OA
BRANCH  26  28
ATOM     27  O   UNL     1     -32.848  29.989   4.681  0.00  0.00    -0.250 OA
ATOM     28  C   UNL     1     -32.148  29.234   5.342  0.00  0.00    +0.322 C 
ATOM     29  C   UNL     1     -31.614  29.556   6.707  0.00  0.00    +0.122 C 
ENDBRANCH  26  28
ENDBRANCH  14  26
BRANCH  17  30
ATOM     30  O   UNL     1     -34.266  19.547   1.330  0.00  0.00    -0.424 OA
BRANCH  30  32
ATOM     31  O   UNL     1     -36.080  18.850   0.024  0.00  0.00    -0.250 OA
ATOM     32  C   UNL     1     -34.874  18.967   0.204  0.00  0.00    +0.322 C 
ATOM     33  C   UNL     1     -33.828  18.501  -0.763  0.00  0.00    +0.122 C 
ENDBRANCH  30  32
ENDBRANCH  17  30
TORSDOF 8
ENDMDL
MODEL 6
REMARK VINA RESULT:      -5.9      2.133      7.603
REMARK  Name = 192761
REMARK  8 active torsions:
REMARK  status: ('A' for Active; 'I' for Inactive)
REMARK    1  A    between atoms: C_2  and  O_18
REMARK    2  A    between atoms: C_13  and  O_22
REMARK    3  A    between atoms: C_14  and  O_26
REMARK    4  A    between atoms: C_17  and  O_30
REMARK    5  A    between atoms: O_18  and  C_20
REMARK    6  A    between atoms: O_22  and  C_24
REMARK    7  A    between atoms: O_26  and  C_28
REMARK    8  A    between atoms: O_30  and  C_32
REMARK                            x       y       z     vdW  Elec       q    Type
REMARK                         _______ _______ _______ _____ _____    ______ ____
ROOT
ATOM      1  O   UNL     1     -34.133  20.509  -2.149  0.00  0.00    -0.472 OA
ATOM      2  C   UNL     1     -34.213  22.665  -0.986  0.00  0.00    +0.187 C 
ATOM      3  C   UNL     1     -33.917  21.993   0.385  0.00  0.00    +0.088 C 
ATOM      4  C   UNL     1     -35.748  22.844  -1.090  0.00  0.00    +0.071 C 
ATOM      5  C   UNL     1     -35.123  22.437   1.182  0.00  0.00    -0.015 C 
ATOM      6  C   UNL     1     -36.142  22.911   0.351  0.00  0.00    -0.019 C 
ATOM      7  C   UNL     1     -33.639  21.847  -2.135  0.00  0.00    +0.246 C 
ATOM      8  C   UNL     1     -33.770  20.492   0.264  0.00  0.00    +0.019 C 
ATOM      9  C   UNL     1     -33.903  19.844  -0.973  0.00  0.00    +0.138 C 
ATOM     10  C   UNL     1     -35.286  22.432   2.560  0.00  0.00    +0.037 C 
ATOM     11  C   UNL     1     -37.350  23.350   0.871  0.00  0.00    +0.036 C 
ATOM     12  C   UNL     1     -33.486  19.713   1.396  0.00  0.00    +0.002 C 
ATOM     13  C   UNL     1     -36.495  22.882   3.095  0.00  0.00    +0.182 C 
ATOM     14  C   UNL     1     -37.522  23.334   2.255  0.00  0.00    +0.182 C 
ATOM     15  C   UNL     1     -33.827  18.450  -1.063  0.00  0.00    +0.074 C 
ATOM     16  C   UNL     1     -33.388  18.323   1.303  0.00  0.00    +0.037 C 
ATOM     17  C   UNL     1     -33.569  17.691   0.076  0.00  0.00    +0.151 C 
ENDROOT
BRANCH   2  18
ATOM     18  O   UNL     1     -33.591  23.954  -1.000  0.00  0.00    -0.451 OA
BRANCH  18  20
ATOM     19  O   UNL     1     -31.390  23.375  -0.603  0.00  0.00    -0.250 OA
ATOM     20  C   UNL     1     -32.392  24.032  -0.355  0.00  0.00    +0.317 C 
ATOM     21  C   UNL     1     -32.474  25.063   0.729  0.00  0.00    +0.121 C 
ENDBRANCH  18  20
ENDBRANCH   2  18
BRANCH  13  22
ATOM     22  O   UNL     1     -36.667  22.875   4.448  0.00  0.00    -0.421 OA
BRANCH  22  24
ATOM     23  O   UNL     1     -34.926  24.314   5.062  0.00  0.00    -0.250 OA
ATOM     24  C   UNL     1     -35.524  23.252   5.170  0.00  0.00    +0.322 C 
ATOM     25  C   UNL     1     -35.128  22.153   6.110  0.00  0.00    +0.122 C 
ENDBRANCH  22  24
ENDBRANCH  13  22
BRANCH  14  26
ATOM     26  O   UNL     1     -38.701  23.767   2.784  0.00  0.00    -0.421 OA
BRANCH  26  28
ATOM     27  O   UNL     1     -40.118  22.015   2.148  0.00  0.00    -0.250 OA
ATOM     28  C   UNL     1     -39.839  23.207   2.183  0.00  0.00    +0.322 C 
ATOM     29  C   UNL     1     -40.683  24.289   1.576  0.00  0.00    +0.122 C 
ENDBRANCH  26  28
ENDBRANCH  14  26
BRANCH  17  30
ATOM     30  O   UNL     1     -33.483  16.337  -0.013  0.00  0.00    -0.424 OA
BRANCH  30  32
ATOM     31  O   UNL     1     -31.185  16.067   0.345  0.00  0.00    -0.250 OA
ATOM     32  C   UNL     1     -32.195  15.861  -0.314  0.00  0.00    +0.322 C 
ATOM     33  C   UNL     1     -32.227  15.055  -1.578  0.00  0.00    +0.122 C 
ENDBRANCH  30  32
ENDBRANCH  17  30
TORSDOF 8
ENDMDL
MODEL 7
REMARK VINA RESULT:      -5.9      2.317      7.347
REMARK  Name = 192761
REMARK  8 active torsions:
REMARK  status: ('A' for Active; 'I' for Inactive)
REMARK    1  A    between atoms: C_2  and  O_18
REMARK    2  A    between atoms: C_13  and  O_22
REMARK    3  A    between atoms: C_14  and  O_26
REMARK    4  A    between atoms: C_17  and  O_30
REMARK    5  A    between atoms: O_18  and  C_20
REMARK    6  A    between atoms: O_22  and  C_24
REMARK    7  A    between atoms: O_26  and  C_28
REMARK    8  A    between atoms: O_30  and  C_32
REMARK                            x       y       z     vdW  Elec       q    Type
REMARK                         _______ _______ _______ _____ _____    ______ ____
ROOT
ATOM      1  O   UNL     1     -34.887  20.668   2.464  0.00  0.00    -0.472 OA
ATOM      2  C   UNL     1     -36.343  22.543   3.076  0.00  0.00    +0.187 C 
ATOM      3  C   UNL     1     -35.937  23.338   1.803  0.00  0.00    +0.088 C 
ATOM      4  C   UNL     1     -35.461  23.055   4.241  0.00  0.00    +0.071 C 
ATOM      5  C   UNL     1     -35.402  24.608   2.424  0.00  0.00    -0.015 C 
ATOM      6  C   UNL     1     -35.137  24.442   3.786  0.00  0.00    -0.019 C 
ATOM      7  C   UNL     1     -36.208  21.042   2.853  0.00  0.00    +0.246 C 
ATOM      8  C   UNL     1     -34.932  22.588   0.958  0.00  0.00    +0.019 C 
ATOM      9  C   UNL     1     -34.458  21.324   1.340  0.00  0.00    +0.138 C 
ATOM     10  C   UNL     1     -35.184  25.834   1.811  0.00  0.00    +0.037 C 
ATOM     11  C   UNL     1     -34.617  25.476   4.551  0.00  0.00    +0.036 C 
ATOM     12  C   UNL     1     -34.457  23.141  -0.241  0.00  0.00    +0.002 C 
ATOM     13  C   UNL     1     -34.670  26.885   2.574  0.00  0.00    +0.182 C 
ATOM     14  C   UNL     1     -34.385  26.705   3.935  0.00  0.00    +0.182 C 
ATOM     15  C   UNL     1     -33.482  20.667   0.584  0.00  0.00    +0.074 C 
ATOM     16  C   UNL     1     -33.499  22.475  -1.008  0.00  0.00    +0.037 C 
ATOM     17  C   UNL     1     -33.004  21.243  -0.590  0.00  0.00    +0.151 C 
ENDROOT
BRANCH   2  18
ATOM     18  O   UNL     1     -37.715  22.829   3.368  0.00  0.00    -0.451 OA
BRANCH  18  20
ATOM     19  O   UNL     1     -38.799  21.604   1.737  0.00  0.00    -0.250 OA
ATOM     20  C   UNL     1     -38.584  22.651   2.332  0.00  0.00    +0.317 C 
ATOM     21  C   UNL     1     -39.258  23.951   2.016  0.00  0.00    +0.121 C 
ENDBRANCH  18  20
ENDBRANCH   2  18
BRANCH  13  22
ATOM     22  O   UNL     1     -34.446  28.091   1.978  0.00  0.00    -0.421 OA
BRANCH  22  24
ATOM     23  O   UNL     1     -36.664  28.658   1.488  0.00  0.00    -0.250 OA
ATOM     24  C   UNL     1     -35.568  28.935   1.958  0.00  0.00    +0.322 C 
ATOM     25  C   UNL     1     -35.232  30.248   2.599  0.00  0.00    +0.122 C 
ENDBRANCH  22  24
ENDBRANCH  13  22
BRANCH  14  26
ATOM     26  O   UNL     1     -33.880  27.734   4.672  0.00  0.00    -0.421 OA
BRANCH  26  28
ATOM     27  O   UNL     1     -31.636  27.470   4.059  0.00  0.00    -0.250 OA
ATOM     28  C   UNL     1     -32.499  27.645   4.909  0.00  0.00    +0.322 C 
ATOM     29  C   UNL     1     -32.221  27.795   6.376  0.00  0.00    +0.122 C 
ENDBRANCH  26  28
ENDBRANCH  14  26
BRANCH  17  30
ATOM     30  O   UNL     1     -32.064  20.598  -1.332  0.00  0.00    -0.424 OA
BRANCH  30  32
ATOM     31  O   UNL     1     -30.098  21.738  -0.767  0.00  0.00    -0.250 OA
ATOM     32  C   UNL     1     -30.757  20.708  -0.827  0.00  0.00    +0.322 C 
ATOM     33  C   UNL     1     -30.270  19.367  -0.366  0.00  0.00    +0.122 C 
ENDBRANCH  30  32
ENDBRANCH  17  30
TORSDOF 8
ENDMDL
MODEL 8
REMARK VINA RESULT:      -5.8      2.350      7.335
REMARK  Name = 192761
REMARK  8 active torsions:
REMARK  status: ('A' for Active; 'I' for Inactive)
REMARK    1  A    between atoms: C_2  and  O_18
REMARK    2  A    between atoms: C_13  and  O_22
REMARK    3  A    between atoms: C_14  and  O_26
REMARK    4  A    between atoms: C_17  and  O_30
REMARK    5  A    between atoms: O_18  and  C_20
REMARK    6  A    between atoms: O_22  and  C_24
REMARK    7  A    between atoms: O_26  and  C_28
REMARK    8  A    between atoms: O_30  and  C_32
REMARK                            x       y       z     vdW  Elec       q    Type
REMARK                         _______ _______ _______ _____ _____    ______ ____
ROOT
ATOM      1  O   UNL     1     -35.349  18.018   0.504  0.00  0.00    -0.472 OA
ATOM      2  C   UNL     1     -36.461  20.151   0.031  0.00  0.00    +0.187 C 
ATOM      3  C   UNL     1     -35.099  20.896  -0.065  0.00  0.00    +0.088 C 
ATOM      4  C   UNL     1     -37.006  20.367   1.464  0.00  0.00    +0.071 C 
ATOM      5  C   UNL     1     -35.287  21.961   0.991  0.00  0.00    -0.015 C 
ATOM      6  C   UNL     1     -36.354  21.659   1.843  0.00  0.00    -0.019 C 
ATOM      7  C   UNL     1     -36.307  18.677  -0.323  0.00  0.00    +0.246 C 
ATOM      8  C   UNL     1     -33.926  19.974   0.184  0.00  0.00    +0.019 C 
ATOM      9  C   UNL     1     -34.116  18.614   0.468  0.00  0.00    +0.138 C 
ATOM     10  C   UNL     1     -34.561  23.131   1.165  0.00  0.00    +0.037 C 
ATOM     11  C   UNL     1     -36.691  22.490   2.900  0.00  0.00    +0.036 C 
ATOM     12  C   UNL     1     -32.612  20.464   0.125  0.00  0.00    +0.002 C 
ATOM     13  C   UNL     1     -34.898  23.981   2.221  0.00  0.00    +0.182 C 
ATOM     14  C   UNL     1     -35.954  23.660   3.085  0.00  0.00    +0.182 C 
ATOM     15  C   UNL     1     -33.028  17.784   0.758  0.00  0.00    +0.074 C 
ATOM     16  C   UNL     1     -31.524  19.631   0.393  0.00  0.00    +0.037 C 
ATOM     17  C   UNL     1     -31.732  18.294   0.719  0.00  0.00    +0.151 C 
ENDROOT
BRANCH   2  18
ATOM     18  O   UNL     1     -37.366  20.743  -0.907  0.00  0.00    -0.451 OA
BRANCH  18  20
ATOM     19  O   UNL     1     -39.291  19.519  -0.541  0.00  0.00    -0.250 OA
ATOM     20  C   UNL     1     -38.690  20.582  -0.623  0.00  0.00    +0.317 C 
ATOM     21  C   UNL     1     -39.325  21.924  -0.420  0.00  0.00    +0.121 C 
ENDBRANCH  18  20
ENDBRANCH   2  18
BRANCH  13  22
ATOM     22  O   UNL     1     -34.186  25.129   2.403  0.00  0.00    -0.421 OA
BRANCH  22  24
ATOM     23  O   UNL     1     -35.321  26.331   0.746  0.00  0.00    -0.250 OA
ATOM     24  C   UNL     1     -34.785  26.269   1.845  0.00  0.00    +0.322 C 
ATOM     25  C   UNL     1     -34.675  27.423   2.795  0.00  0.00    +0.122 C 
ENDBRANCH  22  24
ENDBRANCH  13  22
BRANCH  14  26
ATOM     26  O   UNL     1     -36.275  24.493   4.116  0.00  0.00    -0.421 OA
BRANCH  26  28
ATOM     27  O   UNL     1     -35.930  23.095   5.961  0.00  0.00    -0.250 OA
ATOM     28  C   UNL     1     -35.704  24.128   5.345  0.00  0.00    +0.322 C 
ATOM     29  C   UNL     1     -34.763  25.200   5.811  0.00  0.00    +0.122 C 
ENDBRANCH  26  28
ENDBRANCH  14  26
BRANCH  17  30
ATOM     30  O   UNL     1     -30.673  17.485   0.988  0.00  0.00    -0.424 OA
BRANCH  30  32
ATOM     31  O   UNL     1     -30.828  15.251   0.305  0.00  0.00    -0.250 OA
ATOM     32  C   UNL     1     -30.522  16.416   0.088  0.00  0.00    +0.322 C 
ATOM     33  C   UNL     1     -29.922  16.906  -1.196  0.00  0.00    +0.122 C 
ENDBRANCH  30  32
ENDBRANCH  17  30
TORSDOF 8
ENDMDL
MODEL 9
REMARK VINA RESULT:      -5.7      3.023      4.260
REMARK  Name = 192761
REMARK  8 active torsions:
REMARK  status: ('A' for Active; 'I' for Inactive)
REMARK    1  A    between atoms: C_2  and  O_18
REMARK    2  A    between atoms: C_13  and  O_22
REMARK    3  A    between atoms: C_14  and  O_26
REMARK    4  A    between atoms: C_17  and  O_30
REMARK    5  A    between atoms: O_18  and  C_20
REMARK    6  A    between atoms: O_22  and  C_24
REMARK    7  A    between atoms: O_26  and  C_28
REMARK    8  A    between atoms: O_30  and  C_32
REMARK                            x       y       z     vdW  Elec       q    Type
REMARK                         _______ _______ _______ _____ _____    ______ ____
ROOT
ATOM      1  O   UNL     1     -36.817  26.041   2.406  0.00  0.00    -0.472 OA
ATOM      2  C   UNL     1     -36.637  23.895   3.578  0.00  0.00    +0.187 C 
ATOM      3  C   UNL     1     -35.273  23.583   2.899  0.00  0.00    +0.088 C 
ATOM      4  C   UNL     1     -37.735  23.174   2.758  0.00  0.00    +0.071 C 
ATOM      5  C   UNL     1     -35.588  22.266   2.228  0.00  0.00    -0.015 C 
ATOM      6  C   UNL     1     -36.966  22.045   2.152  0.00  0.00    -0.019 C 
ATOM      7  C   UNL     1     -36.870  25.397   3.678  0.00  0.00    +0.246 C 
ATOM      8  C   UNL     1     -34.844  24.679   1.949  0.00  0.00    +0.019 C 
ATOM      9  C   UNL     1     -35.637  25.818   1.745  0.00  0.00    +0.138 C 
ATOM     10  C   UNL     1     -34.697  21.323   1.734  0.00  0.00    +0.037 C 
ATOM     11  C   UNL     1     -37.481  20.905   1.552  0.00  0.00    +0.036 C 
ATOM     12  C   UNL     1     -33.629  24.582   1.253  0.00  0.00    +0.002 C 
ATOM     13  C   UNL     1     -35.205  20.167   1.137  0.00  0.00    +0.182 C 
ATOM     14  C   UNL     1     -36.589  19.962   1.043  0.00  0.00    +0.182 C 
ATOM     15  C   UNL     1     -35.262  26.795   0.818  0.00  0.00    +0.074 C 
ATOM     16  C   UNL     1     -33.243  25.568   0.343  0.00  0.00    +0.037 C 
ATOM     17  C   UNL     1     -34.065  26.669   0.118  0.00  0.00    +0.151 C 
ENDROOT
BRANCH   2  18
ATOM     18  O   UNL     1     -36.615  23.357   4.904  0.00  0.00    -0.451 OA
BRANCH  18  20
ATOM     19  O   UNL     1     -34.788  24.487   5.754  0.00  0.00    -0.250 OA
ATOM     20  C   UNL     1     -35.422  23.459   5.557  0.00  0.00    +0.317 C 
ATOM     21  C   UNL     1     -34.983  22.101   6.014  0.00  0.00    +0.121 C 
ENDBRANCH  18  20
ENDBRANCH   2  18
BRANCH  13  22
ATOM     22  O   UNL     1     -34.337  19.238   0.643  0.00  0.00    -0.421 OA
BRANCH  22  24
ATOM     23  O   UNL     1     -33.680  20.223  -1.376  0.00  0.00    -0.250 OA
ATOM     24  C   UNL     1     -33.412  19.753  -0.278  0.00  0.00    +0.322 C 
ATOM     25  C   UNL     1     -32.024  19.645   0.277  0.00  0.00    +0.122 C 
ENDBRANCH  22  24
ENDBRANCH  13  22
BRANCH  14  26
ATOM     26  O   UNL     1     -37.077  18.833   0.455  0.00  0.00    -0.421 OA
BRANCH  26  28
ATOM     27  O   UNL     1     -39.144  18.951  -0.637  0.00  0.00    -0.250 OA
ATOM     28  C   UNL     1     -37.926  19.077  -0.635  0.00  0.00    +0.322 C 
ATOM     29  C   UNL     1     -37.121  19.518  -1.822  0.00  0.00    +0.122 C 
ENDBRANCH  26  28
ENDBRANCH  14  26
BRANCH  17  30
ATOM     30  O   UNL     1     -33.693  27.626  -0.775  0.00  0.00    -0.424 OA
BRANCH  30  32
ATOM     31  O   UNL     1     -32.462  28.953   0.709  0.00  0.00    -0.250 OA
ATOM     32  C   UNL     1     -33.288  28.836  -0.187  0.00  0.00    +0.322 C 
ATOM     33  C   UNL     1     -34.020  29.984  -0.814  0.00  0.00    +0.122 C 
ENDBRANCH  30  32
ENDBRANCH  17  30
TORSDOF 8
ENDMDL
