MODEL 1
REMARK VINA RESULT:      -5.5      0.000      0.000
REMARK  Name = 5357616
REMARK  5 active torsions:
REMARK  status: ('A' for Active; 'I' for Inactive)
REMARK    1  A    between atoms: N_2  and  C_5
REMARK    2  A    between atoms: C_3  and  C_14
REMARK    3  A    between atoms: C_6  and  N_13
REMARK    4  A    between atoms: C_15  and  C_17
REMARK    5  A    between atoms: C_17  and  O_18
REMARK                            x       y       z     vdW  Elec       q    Type
REMARK                         _______ _______ _______ _____ _____    ______ ____
ROOT
ATOM      1  O   UNL     1     -36.649  23.642   1.238  0.00  0.00    -0.270 OA
ATOM      2  N   UNL     1     -37.393  23.466   3.459  0.00  0.00    -0.279 N 
ATOM      3  C   UNL     1     -37.418  23.217   2.092  0.00  0.00    +0.250 C 
ATOM      4  H   UNL     1     -38.097  23.035   3.994  0.00  0.00    +0.155 HD
ENDROOT
BRANCH   2   5
ATOM      5  C   UNL     1     -36.467  24.271   4.168  0.00  0.00    +0.073 C 
ATOM      6  C   UNL     1     -35.613  23.705   5.101  0.00  0.00    +0.156 C 
ATOM      7  C   UNL     1     -36.442  25.630   3.900  0.00  0.00    +0.016 C 
ATOM      8  C   UNL     1     -34.711  24.520   5.785  0.00  0.00    +0.025 C 
ATOM      9  C   UNL     1     -35.540  26.446   4.584  0.00  0.00    +0.001 C 
ATOM     10  C   UNL     1     -34.674  25.890   5.526  0.00  0.00    +0.002 C 
BRANCH   6  13
ATOM     11  O   UNL     1     -35.995  21.929   6.520  0.00  0.00    -0.126 OA
ATOM     12  O   UNL     1     -35.278  21.507   4.489  0.00  0.00    -0.126 OA
ATOM     13  N   UNL     1     -35.630  22.310   5.385  0.00  0.00    +0.059 N 
ENDBRANCH   6  13
ENDBRANCH   2   5
BRANCH   3  14
ATOM     14  C   UNL     1     -38.554  22.317   1.734  0.00  0.00    +0.065 C 
ATOM     15  C   UNL     1     -38.323  21.026   1.464  0.00  0.00    +0.086 C 
BRANCH  15  17
ATOM     16  O   UNL     1     -36.092  20.608   0.655  0.00  0.00    -0.245 OA
ATOM     17  C   UNL     1     -36.940  20.512   1.526  0.00  0.00    +0.338 C 
BRANCH  17  18
ATOM     18  O   UNL     1     -36.756  19.906   2.721  0.00  0.00    -0.477 OA
ATOM     19  H   UNL     1     -36.046  19.306   2.838  0.00  0.00    +0.295 HD
ENDBRANCH  17  18
ENDBRANCH  15  17
ENDBRANCH   3  14
TORSDOF 5
ENDMDL
MODEL 2
REMARK VINA RESULT:      -5.3      2.944      5.463
REMARK  Name = 5357616
REMARK  5 active torsions:
REMARK  status: ('A' for Active; 'I' for Inactive)
REMARK    1  A    between atoms: N_2  and  C_5
REMARK    2  A    between atoms: C_3  and  C_14
REMARK    3  A    between atoms: C_6  and  N_13
REMARK    4  A    between atoms: C_15  and  C_17
REMARK    5  A    between atoms: C_17  and  O_18
REMARK                            x       y       z     vdW  Elec       q    Type
REMARK                         _______ _______ _______ _____ _____    ______ ____
ROOT
ATOM      1  O   UNL     1     -35.944  26.206   4.949  0.00  0.00    -0.270 OA
ATOM      2  N   UNL     1     -34.315  24.556   4.574  0.00  0.00    -0.279 N 
ATOM      3  C   UNL     1     -34.863  25.680   5.182  0.00  0.00    +0.250 C 
ATOM      4  H   UNL     1     -33.427  24.277   4.894  0.00  0.00    +0.155 HD
ENDROOT
BRANCH   2   5
ATOM      5  C   UNL     1     -34.892  23.768   3.548  0.00  0.00    +0.073 C 
ATOM      6  C   UNL     1     -35.468  22.543   3.841  0.00  0.00    +0.156 C 
ATOM      7  C   UNL     1     -34.863  24.259   2.252  0.00  0.00    +0.016 C 
ATOM      8  C   UNL     1     -36.029  21.787   2.812  0.00  0.00    +0.025 C 
ATOM      9  C   UNL     1     -35.424  23.503   1.222  0.00  0.00    +0.001 C 
ATOM     10  C   UNL     1     -36.008  22.267   1.502  0.00  0.00    +0.002 C 
BRANCH   6  13
ATOM     11  O   UNL     1     -36.021  22.723   6.073  0.00  0.00    -0.126 OA
ATOM     12  O   UNL     1     -35.017  20.895   5.391  0.00  0.00    -0.126 OA
ATOM     13  N   UNL     1     -35.504  22.028   5.168  0.00  0.00    +0.059 N 
ENDBRANCH   6  13
ENDBRANCH   2   5
BRANCH   3  14
ATOM     14  C   UNL     1     -33.940  26.228   6.220  0.00  0.00    +0.065 C 
ATOM     15  C   UNL     1     -32.977  27.089   5.869  0.00  0.00    +0.086 C 
BRANCH  15  17
ATOM     16  O   UNL     1     -32.325  26.827   3.564  0.00  0.00    -0.245 OA
ATOM     17  C   UNL     1     -32.843  27.483   4.452  0.00  0.00    +0.338 C 
BRANCH  17  18
ATOM     18  O   UNL     1     -33.392  28.709   4.289  0.00  0.00    -0.477 OA
ATOM     19  H   UNL     1     -34.223  28.797   3.866  0.00  0.00    +0.295 HD
ENDBRANCH  17  18
ENDBRANCH  15  17
ENDBRANCH   3  14
TORSDOF 5
ENDMDL
MODEL 3
REMARK VINA RESULT:      -5.3      1.839      2.692
REMARK  Name = 5357616
REMARK  5 active torsions:
REMARK  status: ('A' for Active; 'I' for Inactive)
REMARK    1  A    between atoms: N_2  and  C_5
REMARK    2  A    between atoms: C_3  and  C_14
REMARK    3  A    between atoms: C_6  and  N_13
REMARK    4  A    between atoms: C_15  and  C_17
REMARK    5  A    between atoms: C_17  and  O_18
REMARK                            x       y       z     vdW  Elec       q    Type
REMARK                         _______ _______ _______ _____ _____    ______ ____
ROOT
ATOM      1  O   UNL     1     -34.783  22.505   1.607  0.00  0.00    -0.270 OA
ATOM      2  N   UNL     1     -35.827  22.112   3.673  0.00  0.00    -0.279 N 
ATOM      3  C   UNL     1     -35.331  21.771   2.421  0.00  0.00    +0.250 C 
ATOM      4  H   UNL     1     -36.238  21.383   4.192  0.00  0.00    +0.155 HD
ENDROOT
BRANCH   2   5
ATOM      5  C   UNL     1     -35.806  23.388   4.288  0.00  0.00    +0.073 C 
ATOM      6  C   UNL     1     -36.730  24.356   3.932  0.00  0.00    +0.156 C 
ATOM      7  C   UNL     1     -34.839  23.634   5.250  0.00  0.00    +0.016 C 
ATOM      8  C   UNL     1     -36.688  25.604   4.552  0.00  0.00    +0.025 C 
ATOM      9  C   UNL     1     -34.795  24.883   5.871  0.00  0.00    +0.001 C 
ATOM     10  C   UNL     1     -35.720  25.868   5.523  0.00  0.00    +0.002 C 
BRANCH   6  13
ATOM     11  O   UNL     1     -38.810  23.592   3.295  0.00  0.00    -0.126 OA
ATOM     12  O   UNL     1     -37.491  24.433   1.756  0.00  0.00    -0.126 OA
ATOM     13  N   UNL     1     -37.727  24.114   2.945  0.00  0.00    +0.059 N 
ENDBRANCH   6  13
ENDBRANCH   2   5
BRANCH   3  14
ATOM     14  C   UNL     1     -35.546  20.321   2.137  0.00  0.00    +0.065 C 
ATOM     15  C   UNL     1     -36.688  19.916   1.565  0.00  0.00    +0.086 C 
BRANCH  15  17
ATOM     16  O   UNL     1     -37.784  21.567   0.195  0.00  0.00    -0.245 OA
ATOM     17  C   UNL     1     -37.719  20.916   1.224  0.00  0.00    +0.338 C 
BRANCH  17  18
ATOM     18  O   UNL     1     -38.597  21.000   2.250  0.00  0.00    -0.477 OA
ATOM     19  H   UNL     1     -38.359  21.454   3.034  0.00  0.00    +0.295 HD
ENDBRANCH  17  18
ENDBRANCH  15  17
ENDBRANCH   3  14
TORSDOF 5
ENDMDL
MODEL 4
REMARK VINA RESULT:      -5.2      2.288      5.536
REMARK  Name = 5357616
REMARK  5 active torsions:
REMARK  status: ('A' for Active; 'I' for Inactive)
REMARK    1  A    between atoms: N_2  and  C_5
REMARK    2  A    between atoms: C_3  and  C_14
REMARK    3  A    between atoms: C_6  and  N_13
REMARK    4  A    between atoms: C_15  and  C_17
REMARK    5  A    between atoms: C_17  and  O_18
REMARK                            x       y       z     vdW  Elec       q    Type
REMARK                         _______ _______ _______ _____ _____    ______ ____
ROOT
ATOM      1  O   UNL     1     -34.958  23.676   2.915  0.00  0.00    -0.270 OA
ATOM      2  N   UNL     1     -37.012  22.941   3.785  0.00  0.00    -0.279 N 
ATOM      3  C   UNL     1     -35.717  23.442   3.847  0.00  0.00    +0.250 C 
ATOM      4  H   UNL     1     -37.474  22.817   4.645  0.00  0.00    +0.155 HD
ENDROOT
BRANCH   2   5
ATOM      5  C   UNL     1     -37.742  22.589   2.622  0.00  0.00    +0.073 C 
ATOM      6  C   UNL     1     -38.724  23.431   2.126  0.00  0.00    +0.156 C 
ATOM      7  C   UNL     1     -37.442  21.387   2.001  0.00  0.00    +0.016 C 
ATOM      8  C   UNL     1     -39.427  23.061   0.980  0.00  0.00    +0.025 C 
ATOM      9  C   UNL     1     -38.145  21.016   0.854  0.00  0.00    +0.001 C 
ATOM     10  C   UNL     1     -39.137  21.854   0.343  0.00  0.00    +0.002 C 
BRANCH   6  13
ATOM     11  O   UNL     1     -38.635  25.732   2.236  0.00  0.00    -0.126 OA
ATOM     12  O   UNL     1     -39.716  24.654   3.812  0.00  0.00    -0.126 OA
ATOM     13  N   UNL     1     -39.040  24.668   2.756  0.00  0.00    +0.059 N 
ENDBRANCH   6  13
ENDBRANCH   2   5
BRANCH   3  14
ATOM     14  C   UNL     1     -35.307  23.686   5.262  0.00  0.00    +0.065 C 
ATOM     15  C   UNL     1     -35.350  24.926   5.765  0.00  0.00    +0.086 C 
BRANCH  15  17
ATOM     16  O   UNL     1     -35.098  26.856   4.344  0.00  0.00    -0.245 OA
ATOM     17  C   UNL     1     -35.806  26.037   4.906  0.00  0.00    +0.338 C 
BRANCH  17  18
ATOM     18  O   UNL     1     -37.157  26.006   4.838  0.00  0.00    -0.477 OA
ATOM     19  H   UNL     1     -37.605  25.186   4.777  0.00  0.00    +0.295 HD
ENDBRANCH  17  18
ENDBRANCH  15  17
ENDBRANCH   3  14
TORSDOF 5
ENDMDL
MODEL 5
REMARK VINA RESULT:      -5.2      1.829      2.655
REMARK  Name = 5357616
REMARK  5 active torsions:
REMARK  status: ('A' for Active; 'I' for Inactive)
REMARK    1  A    between atoms: N_2  and  C_5
REMARK    2  A    between atoms: C_3  and  C_14
REMARK    3  A    between atoms: C_6  and  N_13
REMARK    4  A    between atoms: C_15  and  C_17
REMARK    5  A    between atoms: C_17  and  O_18
REMARK                            x       y       z     vdW  Elec       q    Type
REMARK                         _______ _______ _______ _____ _____    ______ ____
ROOT
ATOM      1  O   UNL     1     -36.435  23.252   0.747  0.00  0.00    -0.270 OA
ATOM      2  N   UNL     1     -37.359  22.501   2.771  0.00  0.00    -0.279 N 
ATOM      3  C   UNL     1     -37.212  22.557   1.390  0.00  0.00    +0.250 C 
ATOM      4  H   UNL     1     -38.041  21.878   3.112  0.00  0.00    +0.155 HD
ENDROOT
BRANCH   2   5
ATOM      5  C   UNL     1     -36.639  23.239   3.742  0.00  0.00    +0.073 C 
ATOM      6  C   UNL     1     -37.029  24.523   4.083  0.00  0.00    +0.156 C 
ATOM      7  C   UNL     1     -35.540  22.639   4.336  0.00  0.00    +0.016 C 
ATOM      8  C   UNL     1     -36.303  25.228   5.043  0.00  0.00    +0.025 C 
ATOM      9  C   UNL     1     -34.812  23.342   5.296  0.00  0.00    +0.001 C 
ATOM     10  C   UNL     1     -35.194  24.637   5.650  0.00  0.00    +0.002 C 
BRANCH   6  13
ATOM     11  O   UNL     1     -37.978  26.179   2.789  0.00  0.00    -0.126 OA
ATOM     12  O   UNL     1     -39.293  24.652   3.658  0.00  0.00    -0.126 OA
ATOM     13  N   UNL     1     -38.156  25.150   3.480  0.00  0.00    +0.059 N 
ENDBRANCH   6  13
ENDBRANCH   2   5
BRANCH   3  14
ATOM     14  C   UNL     1     -38.161  21.623   0.714  0.00  0.00    +0.065 C 
ATOM     15  C   UNL     1     -37.850  20.325   0.598  0.00  0.00    +0.086 C 
BRANCH  15  17
ATOM     16  O   UNL     1     -35.528  19.685   0.527  0.00  0.00    -0.245 OA
ATOM     17  C   UNL     1     -36.568  19.839   1.146  0.00  0.00    +0.338 C 
BRANCH  17  18
ATOM     18  O   UNL     1     -36.729  19.584   2.465  0.00  0.00    -0.477 OA
ATOM     19  H   UNL     1     -37.034  18.745   2.747  0.00  0.00    +0.295 HD
ENDBRANCH  17  18
ENDBRANCH  15  17
ENDBRANCH   3  14
TORSDOF 5
ENDMDL
MODEL 6
REMARK VINA RESULT:      -5.2      1.731      2.802
REMARK  Name = 5357616
REMARK  5 active torsions:
REMARK  status: ('A' for Active; 'I' for Inactive)
REMARK    1  A    between atoms: N_2  and  C_5
REMARK    2  A    between atoms: C_3  and  C_14
REMARK    3  A    between atoms: C_6  and  N_13
REMARK    4  A    between atoms: C_15  and  C_17
REMARK    5  A    between atoms: C_17  and  O_18
REMARK                            x       y       z     vdW  Elec       q    Type
REMARK                         _______ _______ _______ _____ _____    ______ ____
ROOT
ATOM      1  O   UNL     1     -36.835  23.554   1.542  0.00  0.00    -0.270 OA
ATOM      2  N   UNL     1     -37.493  23.826   3.780  0.00  0.00    -0.279 N 
ATOM      3  C   UNL     1     -37.637  23.422   2.458  0.00  0.00    +0.250 C 
ATOM      4  H   UNL     1     -38.250  23.634   4.379  0.00  0.00    +0.155 HD
ENDROOT
BRANCH   2   5
ATOM      5  C   UNL     1     -36.380  24.482   4.361  0.00  0.00    +0.073 C 
ATOM      6  C   UNL     1     -35.470  23.777   5.130  0.00  0.00    +0.156 C 
ATOM      7  C   UNL     1     -36.231  25.841   4.134  0.00  0.00    +0.016 C 
ATOM      8  C   UNL     1     -34.383  24.447   5.690  0.00  0.00    +0.025 C 
ATOM      9  C   UNL     1     -35.144  26.512   4.694  0.00  0.00    +0.001 C 
ATOM     10  C   UNL     1     -34.219  25.815   5.472  0.00  0.00    +0.002 C 
BRANCH   6  13
ATOM     11  O   UNL     1     -35.375  21.579   4.437  0.00  0.00    -0.126 OA
ATOM     12  O   UNL     1     -35.972  21.996   6.508  0.00  0.00    -0.126 OA
ATOM     13  N   UNL     1     -35.613  22.381   5.370  0.00  0.00    +0.059 N 
ENDBRANCH   6  13
ENDBRANCH   2   5
BRANCH   3  14
ATOM     14  C   UNL     1     -38.961  22.764   2.242  0.00  0.00    +0.065 C 
ATOM     15  C   UNL     1     -40.077  23.503   2.220  0.00  0.00    +0.086 C 
BRANCH  15  17
ATOM     16  O   UNL     1     -39.795  25.797   1.540  0.00  0.00    -0.245 OA
ATOM     17  C   UNL     1     -39.980  24.963   2.411  0.00  0.00    +0.338 C 
BRANCH  17  18
ATOM     18  O   UNL     1     -40.129  25.239   3.727  0.00  0.00    -0.477 OA
ATOM     19  H   UNL     1     -40.784  25.847   4.007  0.00  0.00    +0.295 HD
ENDBRANCH  17  18
ENDBRANCH  15  17
ENDBRANCH   3  14
TORSDOF 5
ENDMDL
MODEL 7
REMARK VINA RESULT:      -5.2      3.298      4.996
REMARK  Name = 5357616
REMARK  5 active torsions:
REMARK  status: ('A' for Active; 'I' for Inactive)
REMARK    1  A    between atoms: N_2  and  C_5
REMARK    2  A    between atoms: C_3  and  C_14
REMARK    3  A    between atoms: C_6  and  N_13
REMARK    4  A    between atoms: C_15  and  C_17
REMARK    5  A    between atoms: C_17  and  O_18
REMARK                            x       y       z     vdW  Elec       q    Type
REMARK                         _______ _______ _______ _____ _____    ______ ____
ROOT
ATOM      1  O   UNL     1     -33.571  24.956   1.782  0.00  0.00    -0.270 OA
ATOM      2  N   UNL     1     -35.673  24.827   2.820  0.00  0.00    -0.279 N 
ATOM      3  C   UNL     1     -34.730  25.323   1.929  0.00  0.00    +0.250 C 
ATOM      4  H   UNL     1     -36.562  25.250   2.795  0.00  0.00    +0.155 HD
ENDROOT
BRANCH   2   5
ATOM      5  C   UNL     1     -35.500  23.780   3.759  0.00  0.00    +0.073 C 
ATOM      6  C   UNL     1     -35.270  24.064   5.095  0.00  0.00    +0.156 C 
ATOM      7  C   UNL     1     -35.571  22.474   3.302  0.00  0.00    +0.016 C 
ATOM      8  C   UNL     1     -35.104  23.015   5.999  0.00  0.00    +0.025 C 
ATOM      9  C   UNL     1     -35.404  21.424   4.205  0.00  0.00    +0.001 C 
ATOM     10  C   UNL     1     -35.171  21.694   5.554  0.00  0.00    +0.002 C 
BRANCH   6  13
ATOM     11  O   UNL     1     -34.072  25.890   5.835  0.00  0.00    -0.126 OA
ATOM     12  O   UNL     1     -36.258  26.051   5.724  0.00  0.00    -0.126 OA
ATOM     13  N   UNL     1     -35.196  25.402   5.576  0.00  0.00    +0.059 N 
ENDBRANCH   6  13
ENDBRANCH   2   5
BRANCH   3  14
ATOM     14  C   UNL     1     -35.303  26.430   1.106  0.00  0.00    +0.065 C 
ATOM     15  C   UNL     1     -35.167  27.700   1.509  0.00  0.00    +0.086 C 
BRANCH  15  17
ATOM     16  O   UNL     1     -33.255  28.203   2.887  0.00  0.00    -0.245 OA
ATOM     17  C   UNL     1     -34.449  27.984   2.767  0.00  0.00    +0.338 C 
BRANCH  17  18
ATOM     18  O   UNL     1     -35.338  27.965   3.787  0.00  0.00    -0.477 OA
ATOM     19  H   UNL     1     -36.255  27.896   3.609  0.00  0.00    +0.295 HD
ENDBRANCH  17  18
ENDBRANCH  15  17
ENDBRANCH   3  14
TORSDOF 5
ENDMDL
MODEL 8
REMARK VINA RESULT:      -5.1      2.315      3.914
REMARK  Name = 5357616
REMARK  5 active torsions:
REMARK  status: ('A' for Active; 'I' for Inactive)
REMARK    1  A    between atoms: N_2  and  C_5
REMARK    2  A    between atoms: C_3  and  C_14
REMARK    3  A    between atoms: C_6  and  N_13
REMARK    4  A    between atoms: C_15  and  C_17
REMARK    5  A    between atoms: C_17  and  O_18
REMARK                            x       y       z     vdW  Elec       q    Type
REMARK                         _______ _______ _______ _____ _____    ______ ____
ROOT
ATOM      1  O   UNL     1     -38.681  22.996   2.505  0.00  0.00    -0.270 OA
ATOM      2  N   UNL     1     -36.462  23.759   2.592  0.00  0.00    -0.279 N 
ATOM      3  C   UNL     1     -37.741  23.645   2.062  0.00  0.00    +0.250 C 
ATOM      4  H   UNL     1     -35.832  24.329   2.095  0.00  0.00    +0.155 HD
ENDROOT
BRANCH   2   5
ATOM      5  C   UNL     1     -35.962  23.147   3.768  0.00  0.00    +0.073 C 
ATOM      6  C   UNL     1     -35.520  21.834   3.746  0.00  0.00    +0.156 C 
ATOM      7  C   UNL     1     -35.927  23.899   4.932  0.00  0.00    +0.016 C 
ATOM      8  C   UNL     1     -35.032  21.256   4.918  0.00  0.00    +0.025 C 
ATOM      9  C   UNL     1     -35.439  23.321   6.105  0.00  0.00    +0.001 C 
ATOM     10  C   UNL     1     -34.991  22.000   6.098  0.00  0.00    +0.002 C 
BRANCH   6  13
ATOM     11  O   UNL     1     -36.288  20.041   2.517  0.00  0.00    -0.126 OA
ATOM     12  O   UNL     1     -34.840  21.401   1.585  0.00  0.00    -0.126 OA
ATOM     13  N   UNL     1     -35.551  21.053   2.556  0.00  0.00    +0.059 N 
ENDBRANCH   6  13
ENDBRANCH   2   5
BRANCH   3  14
ATOM     14  C   UNL     1     -37.873  24.445   0.808  0.00  0.00    +0.065 C 
ATOM     15  C   UNL     1     -38.245  25.730   0.873  0.00  0.00    +0.086 C 
BRANCH  15  17
ATOM     16  O   UNL     1     -39.599  26.371   2.760  0.00  0.00    -0.245 OA
ATOM     17  C   UNL     1     -38.521  26.335   2.191  0.00  0.00    +0.338 C 
BRANCH  17  18
ATOM     18  O   UNL     1     -37.371  26.856   2.678  0.00  0.00    -0.477 OA
ATOM     19  H   UNL     1     -36.940  27.550   2.219  0.00  0.00    +0.295 HD
ENDBRANCH  17  18
ENDBRANCH  15  17
ENDBRANCH   3  14
TORSDOF 5
ENDMDL
MODEL 9
REMARK VINA RESULT:      -5.1      1.908      5.068
REMARK  Name = 5357616
REMARK  5 active torsions:
REMARK  status: ('A' for Active; 'I' for Inactive)
REMARK    1  A    between atoms: N_2  and  C_5
REMARK    2  A    between atoms: C_3  and  C_14
REMARK    3  A    between atoms: C_6  and  N_13
REMARK    4  A    between atoms: C_15  and  C_17
REMARK    5  A    between atoms: C_17  and  O_18
REMARK                            x       y       z     vdW  Elec       q    Type
REMARK                         _______ _______ _______ _____ _____    ______ ____
ROOT
ATOM      1  O   UNL     1     -36.176  22.873   5.704  0.00  0.00    -0.270 OA
ATOM      2  N   UNL     1     -36.087  23.776   3.538  0.00  0.00    -0.279 N 
ATOM      3  C   UNL     1     -35.661  23.580   4.846  0.00  0.00    +0.250 C 
ATOM      4  H   UNL     1     -35.542  24.385   2.989  0.00  0.00    +0.155 HD
ENDROOT
BRANCH   2   5
ATOM      5  C   UNL     1     -37.215  23.198   2.906  0.00  0.00    +0.073 C 
ATOM      6  C   UNL     1     -37.118  21.965   2.282  0.00  0.00    +0.156 C 
ATOM      7  C   UNL     1     -38.410  23.899   2.933  0.00  0.00    +0.016 C 
ATOM      8  C   UNL     1     -38.244  21.418   1.668  0.00  0.00    +0.025 C 
ATOM      9  C   UNL     1     -39.538  23.353   2.319  0.00  0.00    +0.001 C 
ATOM     10  C   UNL     1     -39.455  22.112   1.687  0.00  0.00    +0.002 C 
BRANCH   6  13
ATOM     11  O   UNL     1     -35.765  20.239   2.994  0.00  0.00    -0.126 OA
ATOM     12  O   UNL     1     -34.988  21.614   1.470  0.00  0.00    -0.126 OA
ATOM     13  N   UNL     1     -35.896  21.236   2.248  0.00  0.00    +0.059 N 
ENDBRANCH   6  13
ENDBRANCH   2   5
BRANCH   3  14
ATOM     14  C   UNL     1     -34.426  24.371   5.130  0.00  0.00    +0.065 C 
ATOM     15  C   UNL     1     -34.423  25.695   4.933  0.00  0.00    +0.086 C 
BRANCH  15  17
ATOM     16  O   UNL     1     -35.876  26.679   3.281  0.00  0.00    -0.245 OA
ATOM     17  C   UNL     1     -35.646  26.354   4.434  0.00  0.00    +0.338 C 
BRANCH  17  18
ATOM     18  O   UNL     1     -36.490  26.546   5.474  0.00  0.00    -0.477 OA
ATOM     19  H   UNL     1     -36.354  26.087   6.279  0.00  0.00    +0.295 HD
ENDBRANCH  17  18
ENDBRANCH  15  17
ENDBRANCH   3  14
TORSDOF 5
ENDMDL
