MODEL 1
REMARK VINA RESULT:      -7.0      0.000      0.000
REMARK  Name = 191413
REMARK  9 active torsions:
REMARK  status: ('A' for Active; 'I' for Inactive)
REMARK    1  A    between atoms: CA_5  and  N_11
REMARK    2  A    between atoms: CA_7  and  C_24
REMARK    3  A    between atoms: C_8  and  C_27
REMARK    4  A    between atoms: C_12  and  C_14
REMARK    5  A    between atoms: C_14  and  C_15
REMARK    6  A    between atoms: C_14  and  O_21
REMARK    7  A    between atoms: C_24  and  O_25
REMARK    8  A    between atoms: C_27  and  S_28
REMARK    9  A    between atoms: S_28  and  C_31
REMARK                            x       y       z     vdW  Elec       q    Type
REMARK                         _______ _______ _______ _____ _____    ______ ____
ROOT
ATOM      1  S   UNL     1     -36.277  25.385   0.629  0.00  0.00    -0.114 S 
ATOM      2  O   UNL     1     -36.274  23.374   4.821  0.00  0.00    -0.273 OA
ATOM      3  N   UNL     1     -35.586  24.881   3.143  0.00  0.00    -0.242 N 
ATOM      4  C   UNL     1     -35.351  24.371   1.805  0.00  0.00    +0.155 C 
ATOM      5  CA  UNL     1     -36.038  23.073   2.282  0.00  0.00    +0.178 C 
ATOM      6  C   UNL     1     -35.991  23.718   3.697  0.00  0.00    +0.251 C 
ATOM      7  CA  UNL     1     -35.393  26.177   3.503  0.00  0.00    +0.124 C 
ATOM      8  C   UNL     1     -35.246  27.153   2.576  0.00  0.00    -0.002 C 
ATOM      9  C   UNL     1     -35.384  26.914   1.074  0.00  0.00    +0.083 C 
ENDROOT
BRANCH   5  11
ATOM     10  O   UNL     1     -36.018  21.236   0.051  0.00  0.00    -0.272 OA
ATOM     11  N   UNL     1     -35.306  21.811   2.185  0.00  0.00    -0.294 N 
ATOM     12  C   UNL     1     -35.361  20.988   1.060  0.00  0.00    +0.254 C 
ATOM     13  H   UNL     1     -34.751  21.529   2.948  0.00  0.00    +0.150 HD
BRANCH  12  14
ATOM     14  C   UNL     1     -34.496  19.743   1.193  0.00  0.00    +0.209 C 
BRANCH  14  15
ATOM     15  C   UNL     1     -33.127  19.946   0.586  0.00  0.00    +0.013 C 
ATOM     16  C   UNL     1     -32.850  21.130  -0.078  0.00  0.00    -0.001 C 
ATOM     17  C   UNL     1     -32.177  18.945   0.705  0.00  0.00    -0.001 C 
ATOM     18  C   UNL     1     -31.585  21.317  -0.639  0.00  0.00    -0.000 C 
ATOM     19  C   UNL     1     -30.914  19.133   0.145  0.00  0.00    -0.000 C 
ATOM     20  C   UNL     1     -30.618  20.319  -0.527  0.00  0.00    -0.000 C 
ENDBRANCH  14  15
BRANCH  14  21
ATOM     21  O   UNL     1     -34.344  19.423   2.568  0.00  0.00    -0.372 OA
ATOM     22  H   UNL     1     -34.470  20.223   3.102  0.00  0.00    +0.211 HD
ENDBRANCH  14  21
ENDBRANCH  12  14
ENDBRANCH   5  11
BRANCH   7  24
ATOM     23  OXT UNL     1     -34.423  26.613   5.628  0.00  0.00    -0.244 OA
ATOM     24  C   UNL     1     -35.415  26.480   4.941  0.00  0.00    +0.351 C 
BRANCH  24  25
ATOM     25  O   UNL     1     -36.693  26.585   5.356  0.00  0.00    -0.476 OA
ATOM     26  H   UNL     1     -36.888  26.606   6.272  0.00  0.00    +0.295 HD
ENDBRANCH  24  25
ENDBRANCH   7  24
BRANCH   8  27
ATOM     27  C   UNL     1     -34.948  28.598   2.894  0.00  0.00    +0.088 C 
BRANCH  27  28
ATOM     28  S   UNL     1     -33.277  28.996   2.352  0.00  0.00    -0.089 S 
BRANCH  28  31
ATOM     29  O   UNL     1     -31.590  27.121   3.965  0.00  0.00    -0.163 OA
ATOM     30  N   UNL     1     -31.704  28.275   4.498  0.00  0.00    -0.123 N 
ATOM     31  C   UNL     1     -32.441  29.283   3.912  0.00  0.00    +0.128 C 
ATOM     32  C   UNL     1     -32.555  30.533   4.504  0.00  0.00    +0.027 C 
ATOM     33  C   UNL     1     -31.069  28.526   5.699  0.00  0.00    +0.122 C 
ATOM     34  C   UNL     1     -31.913  30.776   5.714  0.00  0.00    +0.004 C 
ATOM     35  C   UNL     1     -31.166  29.769   6.315  0.00  0.00    +0.022 C 
ENDBRANCH  28  31
ENDBRANCH  27  28
ENDBRANCH   8  27
TORSDOF 9
ENDMDL
MODEL 2
REMARK VINA RESULT:      -7.0      2.347      3.914
REMARK  Name = 191413
REMARK  9 active torsions:
REMARK  status: ('A' for Active; 'I' for Inactive)
REMARK    1  A    between atoms: CA_5  and  N_11
REMARK    2  A    between atoms: CA_7  and  C_24
REMARK    3  A    between atoms: C_8  and  C_27
REMARK    4  A    between atoms: C_12  and  C_14
REMARK    5  A    between atoms: C_14  and  C_15
REMARK    6  A    between atoms: C_14  and  O_21
REMARK    7  A    between atoms: C_24  and  O_25
REMARK    8  A    between atoms: C_27  and  S_28
REMARK    9  A    between atoms: S_28  and  C_31
REMARK                            x       y       z     vdW  Elec       q    Type
REMARK                         _______ _______ _______ _____ _____    ______ ____
ROOT
ATOM      1  S   UNL     1     -33.815  27.698   1.936  0.00  0.00    -0.114 S 
ATOM      2  O   UNL     1     -34.603  26.329   6.308  0.00  0.00    -0.273 OA
ATOM      3  N   UNL     1     -33.318  27.002   4.450  0.00  0.00    -0.242 N 
ATOM      4  C   UNL     1     -33.585  26.389   3.162  0.00  0.00    +0.155 C 
ATOM      5  CA  UNL     1     -34.868  25.820   3.806  0.00  0.00    +0.178 C 
ATOM      6  C   UNL     1     -34.289  26.367   5.142  0.00  0.00    +0.251 C 
ATOM      7  CA  UNL     1     -32.337  27.917   4.662  0.00  0.00    +0.124 C 
ATOM      8  C   UNL     1     -31.722  28.546   3.632  0.00  0.00    -0.002 C 
ATOM      9  C   UNL     1     -32.133  28.367   2.173  0.00  0.00    +0.083 C 
ENDROOT
BRANCH   5  11
ATOM     10  O   UNL     1     -37.207  24.395   2.884  0.00  0.00    -0.272 OA
ATOM     11  N   UNL     1     -35.075  24.372   3.804  0.00  0.00    -0.294 N 
ATOM     12  C   UNL     1     -36.246  23.775   3.336  0.00  0.00    +0.254 C 
ATOM     13  H   UNL     1     -34.357  23.793   4.149  0.00  0.00    +0.150 HD
BRANCH  12  14
ATOM     14  C   UNL     1     -36.211  22.256   3.418  0.00  0.00    +0.209 C 
BRANCH  14  15
ATOM     15  C   UNL     1     -35.307  21.660   2.365  0.00  0.00    +0.013 C 
ATOM     16  C   UNL     1     -34.982  20.316   2.432  0.00  0.00    -0.001 C 
ATOM     17  C   UNL     1     -34.821  22.470   1.351  0.00  0.00    -0.001 C 
ATOM     18  C   UNL     1     -34.146  19.765   1.459  0.00  0.00    -0.000 C 
ATOM     19  C   UNL     1     -33.987  21.920   0.378  0.00  0.00    -0.000 C 
ATOM     20  C   UNL     1     -33.650  20.568   0.432  0.00  0.00    -0.000 C 
ENDBRANCH  14  15
BRANCH  14  21
ATOM     21  O   UNL     1     -35.740  21.867   4.700  0.00  0.00    -0.372 OA
ATOM     22  H   UNL     1     -35.364  20.973   4.648  0.00  0.00    +0.211 HD
ENDBRANCH  14  21
ENDBRANCH  12  14
ENDBRANCH   5  11
BRANCH   7  24
ATOM     23  OXT UNL     1     -32.196  29.331   6.567  0.00  0.00    -0.244 OA
ATOM     24  C   UNL     1     -32.018  28.242   6.060  0.00  0.00    +0.351 C 
BRANCH  24  25
ATOM     25  O   UNL     1     -31.509  27.152   6.668  0.00  0.00    -0.476 OA
ATOM     26  H   UNL     1     -31.512  27.093   7.602  0.00  0.00    +0.295 HD
ENDBRANCH  24  25
ENDBRANCH   7  24
BRANCH   8  27
ATOM     27  C   UNL     1     -30.571  29.511   3.782  0.00  0.00    +0.088 C 
BRANCH  27  28
ATOM     28  S   UNL     1     -29.021  28.642   3.492  0.00  0.00    -0.089 S 
BRANCH  28  31
ATOM     29  O   UNL     1     -27.730  26.196   4.639  0.00  0.00    -0.163 OA
ATOM     30  N   UNL     1     -27.870  27.135   5.493  0.00  0.00    -0.123 N 
ATOM     31  C   UNL     1     -28.444  28.345   5.163  0.00  0.00    +0.128 C 
ATOM     32  C   UNL     1     -28.590  29.356   6.103  0.00  0.00    +0.027 C 
ATOM     33  C   UNL     1     -27.434  26.936   6.789  0.00  0.00    +0.122 C 
ATOM     34  C   UNL     1     -28.148  29.146   7.404  0.00  0.00    +0.004 C 
ATOM     35  C   UNL     1     -27.566  27.931   7.751  0.00  0.00    +0.022 C 
ENDBRANCH  28  31
ENDBRANCH  27  28
ENDBRANCH   8  27
TORSDOF 9
ENDMDL
MODEL 3
REMARK VINA RESULT:      -6.7      3.827      6.003
REMARK  Name = 191413
REMARK  9 active torsions:
REMARK  status: ('A' for Active; 'I' for Inactive)
REMARK    1  A    between atoms: CA_5  and  N_11
REMARK    2  A    between atoms: CA_7  and  C_24
REMARK    3  A    between atoms: C_8  and  C_27
REMARK    4  A    between atoms: C_12  and  C_14
REMARK    5  A    between atoms: C_14  and  C_15
REMARK    6  A    between atoms: C_14  and  O_21
REMARK    7  A    between atoms: C_24  and  O_25
REMARK    8  A    between atoms: C_27  and  S_28
REMARK    9  A    between atoms: S_28  and  C_31
REMARK                            x       y       z     vdW  Elec       q    Type
REMARK                         _______ _______ _______ _____ _____    ______ ____
ROOT
ATOM      1  S   UNL     1     -31.747  27.722   1.358  0.00  0.00    -0.114 S 
ATOM      2  O   UNL     1     -34.425  30.643   3.788  0.00  0.00    -0.273 OA
ATOM      3  N   UNL     1     -32.475  29.430   3.256  0.00  0.00    -0.242 N 
ATOM      4  C   UNL     1     -32.602  28.023   2.922  0.00  0.00    +0.155 C 
ATOM      5  CA  UNL     1     -34.122  28.279   2.835  0.00  0.00    +0.178 C 
ATOM      6  C   UNL     1     -33.792  29.683   3.419  0.00  0.00    +0.251 C 
ATOM      7  CA  UNL     1     -31.288  30.086   3.323  0.00  0.00    +0.124 C 
ATOM      8  C   UNL     1     -30.156  29.556   2.801  0.00  0.00    -0.002 C 
ATOM      9  C   UNL     1     -30.127  28.248   2.014  0.00  0.00    +0.083 C 
ENDROOT
BRANCH   5  11
ATOM     10  O   UNL     1     -35.848  26.120   1.992  0.00  0.00    -0.272 OA
ATOM     11  N   UNL     1     -35.020  27.488   3.675  0.00  0.00    -0.294 N 
ATOM     12  C   UNL     1     -35.818  26.460   3.173  0.00  0.00    +0.254 C 
ATOM     13  H   UNL     1     -35.063  27.690   4.638  0.00  0.00    +0.150 HD
BRANCH  12  14
ATOM     14  C   UNL     1     -36.647  25.774   4.249  0.00  0.00    +0.209 C 
BRANCH  14  15
ATOM     15  C   UNL     1     -36.150  24.374   4.528  0.00  0.00    +0.013 C 
ATOM     16  C   UNL     1     -35.486  24.116   5.716  0.00  0.00    -0.001 C 
ATOM     17  C   UNL     1     -36.369  23.377   3.592  0.00  0.00    -0.001 C 
ATOM     18  C   UNL     1     -35.027  22.823   5.974  0.00  0.00    -0.000 C 
ATOM     19  C   UNL     1     -35.911  22.085   3.851  0.00  0.00    -0.000 C 
ATOM     20  C   UNL     1     -35.240  21.809   5.042  0.00  0.00    -0.000 C 
ENDBRANCH  14  15
BRANCH  14  21
ATOM     21  O   UNL     1     -36.581  26.531   5.447  0.00  0.00    -0.372 OA
ATOM     22  H   UNL     1     -37.445  26.513   5.889  0.00  0.00    +0.211 HD
ENDBRANCH  14  21
ENDBRANCH  12  14
ENDBRANCH   5  11
BRANCH   7  24
ATOM     23  OXT UNL     1     -31.445  32.458   3.308  0.00  0.00    -0.244 OA
ATOM     24  C   UNL     1     -31.299  31.425   3.930  0.00  0.00    +0.351 C 
BRANCH  24  25
ATOM     25  O   UNL     1     -31.126  31.314   5.263  0.00  0.00    -0.476 OA
ATOM     26  H   UNL     1     -31.368  32.021   5.827  0.00  0.00    +0.295 HD
ENDBRANCH  24  25
ENDBRANCH   7  24
BRANCH   8  27
ATOM     27  C   UNL     1     -28.788  30.184   2.907  0.00  0.00    +0.088 C 
BRANCH  27  28
ATOM     28  S   UNL     1     -27.583  28.919   3.343  0.00  0.00    -0.089 S 
BRANCH  28  31
ATOM     29  O   UNL     1     -27.836  26.480   5.061  0.00  0.00    -0.163 OA
ATOM     30  N   UNL     1     -27.891  27.568   5.727  0.00  0.00    -0.123 N 
ATOM     31  C   UNL     1     -27.794  28.803   5.120  0.00  0.00    +0.128 C 
ATOM     32  C   UNL     1     -27.856  29.978   5.857  0.00  0.00    +0.027 C 
ATOM     33  C   UNL     1     -28.052  27.510   7.097  0.00  0.00    +0.122 C 
ATOM     34  C   UNL     1     -28.018  29.909   7.236  0.00  0.00    +0.004 C 
ATOM     35  C   UNL     1     -28.116  28.671   7.862  0.00  0.00    +0.022 C 
ENDBRANCH  28  31
ENDBRANCH  27  28
ENDBRANCH   8  27
TORSDOF 9
ENDMDL
MODEL 4
REMARK VINA RESULT:      -6.6      4.618      9.082
REMARK  Name = 191413
REMARK  9 active torsions:
REMARK  status: ('A' for Active; 'I' for Inactive)
REMARK    1  A    between atoms: CA_5  and  N_11
REMARK    2  A    between atoms: CA_7  and  C_24
REMARK    3  A    between atoms: C_8  and  C_27
REMARK    4  A    between atoms: C_12  and  C_14
REMARK    5  A    between atoms: C_14  and  C_15
REMARK    6  A    between atoms: C_14  and  O_21
REMARK    7  A    between atoms: C_24  and  O_25
REMARK    8  A    between atoms: C_27  and  S_28
REMARK    9  A    between atoms: S_28  and  C_31
REMARK                            x       y       z     vdW  Elec       q    Type
REMARK                         _______ _______ _______ _____ _____    ______ ____
ROOT
ATOM      1  S   UNL     1     -37.576  23.571   0.722  0.00  0.00    -0.114 S 
ATOM      2  O   UNL     1     -36.996  25.780   4.772  0.00  0.00    -0.273 OA
ATOM      3  N   UNL     1     -37.224  23.929   3.330  0.00  0.00    -0.242 N 
ATOM      4  C   UNL     1     -38.287  23.944   2.342  0.00  0.00    +0.155 C 
ATOM      5  CA  UNL     1     -38.458  25.439   2.689  0.00  0.00    +0.178 C 
ATOM      6  C   UNL     1     -37.456  25.155   3.845  0.00  0.00    +0.251 C 
ATOM      7  CA  UNL     1     -36.370  22.887   3.504  0.00  0.00    +0.124 C 
ATOM      8  C   UNL     1     -36.256  21.903   2.580  0.00  0.00    -0.002 C 
ATOM      9  C   UNL     1     -36.984  21.924   1.238  0.00  0.00    +0.083 C 
ENDROOT
BRANCH   5  11
ATOM     10  O   UNL     1     -40.344  27.052   1.208  0.00  0.00    -0.272 OA
ATOM     11  N   UNL     1     -39.765  25.912   3.145  0.00  0.00    -0.294 N 
ATOM     12  C   UNL     1     -40.608  26.690   2.352  0.00  0.00    +0.254 C 
ATOM     13  H   UNL     1     -40.062  25.670   4.053  0.00  0.00    +0.150 HD
BRANCH  12  14
ATOM     14  C   UNL     1     -41.918  27.037   3.043  0.00  0.00    +0.209 C 
BRANCH  14  15
ATOM     15  C   UNL     1     -43.068  26.220   2.502  0.00  0.00    +0.013 C 
ATOM     16  C   UNL     1     -44.296  26.269   3.142  0.00  0.00    -0.001 C 
ATOM     17  C   UNL     1     -42.874  25.439   1.374  0.00  0.00    -0.001 C 
ATOM     18  C   UNL     1     -45.358  25.515   2.642  0.00  0.00    -0.000 C 
ATOM     19  C   UNL     1     -43.935  24.685   0.874  0.00  0.00    -0.000 C 
ATOM     20  C   UNL     1     -45.177  24.724   1.508  0.00  0.00    -0.000 C 
ENDBRANCH  14  15
BRANCH  14  21
ATOM     21  O   UNL     1     -41.795  26.788   4.436  0.00  0.00    -0.372 OA
ATOM     22  H   UNL     1     -41.352  27.539   4.860  0.00  0.00    +0.211 HD
ENDBRANCH  14  21
ENDBRANCH  12  14
ENDBRANCH   5  11
BRANCH   7  24
ATOM     23  OXT UNL     1     -34.454  23.471   4.784  0.00  0.00    -0.244 OA
ATOM     24  C   UNL     1     -35.528  22.909   4.709  0.00  0.00    +0.351 C 
BRANCH  24  25
ATOM     25  O   UNL     1     -36.138  22.217   5.693  0.00  0.00    -0.476 OA
ATOM     26  H   UNL     1     -35.867  21.342   5.886  0.00  0.00    +0.295 HD
ENDBRANCH  24  25
ENDBRANCH   7  24
BRANCH   8  27
ATOM     27  C   UNL     1     -35.394  20.675   2.738  0.00  0.00    +0.088 C 
BRANCH  27  28
ATOM     28  S   UNL     1     -35.435  19.716   1.214  0.00  0.00    -0.089 S 
BRANCH  28  31
ATOM     29  O   UNL     1     -33.504  21.539  -0.169  0.00  0.00    -0.163 OA
ATOM     30  N   UNL     1     -32.968  20.449   0.223  0.00  0.00    -0.123 N 
ATOM     31  C   UNL     1     -33.690  19.475   0.882  0.00  0.00    +0.128 C 
ATOM     32  C   UNL     1     -33.093  18.293   1.302  0.00  0.00    +0.027 C 
ATOM     33  C   UNL     1     -31.625  20.235  -0.017  0.00  0.00    +0.122 C 
ATOM     34  C   UNL     1     -31.740  18.088   1.054  0.00  0.00    +0.004 C 
ATOM     35  C   UNL     1     -31.001  19.062   0.393  0.00  0.00    +0.022 C 
ENDBRANCH  28  31
ENDBRANCH  27  28
ENDBRANCH   8  27
TORSDOF 9
ENDMDL
MODEL 5
REMARK VINA RESULT:      -6.6      4.314      9.903
REMARK  Name = 191413
REMARK  9 active torsions:
REMARK  status: ('A' for Active; 'I' for Inactive)
REMARK    1  A    between atoms: CA_5  and  N_11
REMARK    2  A    between atoms: CA_7  and  C_24
REMARK    3  A    between atoms: C_8  and  C_27
REMARK    4  A    between atoms: C_12  and  C_14
REMARK    5  A    between atoms: C_14  and  C_15
REMARK    6  A    between atoms: C_14  and  O_21
REMARK    7  A    between atoms: C_24  and  O_25
REMARK    8  A    between atoms: C_27  and  S_28
REMARK    9  A    between atoms: S_28  and  C_31
REMARK                            x       y       z     vdW  Elec       q    Type
REMARK                         _______ _______ _______ _____ _____    ______ ____
ROOT
ATOM      1  S   UNL     1     -35.329  27.285   0.834  0.00  0.00    -0.114 S 
ATOM      2  O   UNL     1     -33.486  30.224   3.928  0.00  0.00    -0.273 OA
ATOM      3  N   UNL     1     -34.549  28.258   3.178  0.00  0.00    -0.242 N 
ATOM      4  C   UNL     1     -35.648  28.379   2.238  0.00  0.00    +0.155 C 
ATOM      5  CA  UNL     1     -35.218  29.852   2.071  0.00  0.00    +0.178 C 
ATOM      6  C   UNL     1     -34.252  29.574   3.258  0.00  0.00    +0.251 C 
ATOM      7  CA  UNL     1     -34.118  27.076   3.689  0.00  0.00    +0.124 C 
ATOM      8  C   UNL     1     -34.486  25.893   3.143  0.00  0.00    -0.002 C 
ATOM      9  C   UNL     1     -35.317  25.780   1.867  0.00  0.00    +0.083 C 
ENDROOT
BRANCH   5  11
ATOM     10  O   UNL     1     -36.803  31.299   0.135  0.00  0.00    -0.272 OA
ATOM     11  N   UNL     1     -36.195  30.906   2.341  0.00  0.00    -0.294 N 
ATOM     12  C   UNL     1     -36.914  31.549   1.333  0.00  0.00    +0.254 C 
ATOM     13  H   UNL     1     -36.352  31.175   3.276  0.00  0.00    +0.150 HD
BRANCH  12  14
ATOM     14  C   UNL     1     -37.883  32.593   1.870  0.00  0.00    +0.209 C 
BRANCH  14  15
ATOM     15  C   UNL     1     -37.499  33.987   1.433  0.00  0.00    +0.013 C 
ATOM     16  C   UNL     1     -36.185  34.250   1.083  0.00  0.00    -0.001 C 
ATOM     17  C   UNL     1     -38.469  34.976   1.390  0.00  0.00    -0.001 C 
ATOM     18  C   UNL     1     -35.831  35.538   0.680  0.00  0.00    -0.000 C 
ATOM     19  C   UNL     1     -38.115  36.263   0.986  0.00  0.00    -0.000 C 
ATOM     20  C   UNL     1     -36.796  36.544   0.631  0.00  0.00    -0.000 C 
ENDBRANCH  14  15
BRANCH  14  21
ATOM     21  O   UNL     1     -39.190  32.308   1.396  0.00  0.00    -0.372 OA
ATOM     22  H   UNL     1     -39.824  32.916   1.809  0.00  0.00    +0.211 HD
ENDBRANCH  14  21
ENDBRANCH  12  14
ENDBRANCH   5  11
BRANCH   7  24
ATOM     23  OXT UNL     1     -33.500  26.966   5.982  0.00  0.00    -0.244 OA
ATOM     24  C   UNL     1     -33.183  27.140   4.822  0.00  0.00    +0.351 C 
BRANCH  24  25
ATOM     25  O   UNL     1     -31.946  27.417   4.366  0.00  0.00    -0.476 OA
ATOM     26  H   UNL     1     -31.540  26.850   3.739  0.00  0.00    +0.295 HD
ENDBRANCH  24  25
ENDBRANCH   7  24
BRANCH   8  27
ATOM     27  C   UNL     1     -34.117  24.540   3.700  0.00  0.00    +0.088 C 
BRANCH  27  28
ATOM     28  S   UNL     1     -35.489  23.902   4.677  0.00  0.00    -0.089 S 
BRANCH  28  31
ATOM     29  O   UNL     1     -38.198  23.969   3.404  0.00  0.00    -0.163 OA
ATOM     30  N   UNL     1     -37.512  22.946   3.066  0.00  0.00    -0.123 N 
ATOM     31  C   UNL     1     -36.236  22.730   3.544  0.00  0.00    +0.128 C 
ATOM     32  C   UNL     1     -35.503  21.614   3.167  0.00  0.00    +0.027 C 
ATOM     33  C   UNL     1     -38.061  22.027   2.193  0.00  0.00    +0.122 C 
ATOM     34  C   UNL     1     -36.064  20.694   2.288  0.00  0.00    +0.004 C 
ATOM     35  C   UNL     1     -37.349  20.900   1.797  0.00  0.00    +0.022 C 
ENDBRANCH  28  31
ENDBRANCH  27  28
ENDBRANCH   8  27
TORSDOF 9
ENDMDL
MODEL 6
REMARK VINA RESULT:      -6.6      2.155      8.407
REMARK  Name = 191413
REMARK  9 active torsions:
REMARK  status: ('A' for Active; 'I' for Inactive)
REMARK    1  A    between atoms: CA_5  and  N_11
REMARK    2  A    between atoms: CA_7  and  C_24
REMARK    3  A    between atoms: C_8  and  C_27
REMARK    4  A    between atoms: C_12  and  C_14
REMARK    5  A    between atoms: C_14  and  C_15
REMARK    6  A    between atoms: C_14  and  O_21
REMARK    7  A    between atoms: C_24  and  O_25
REMARK    8  A    between atoms: C_27  and  S_28
REMARK    9  A    between atoms: S_28  and  C_31
REMARK                            x       y       z     vdW  Elec       q    Type
REMARK                         _______ _______ _______ _____ _____    ______ ____
ROOT
ATOM      1  S   UNL     1     -33.785  25.904   1.282  0.00  0.00    -0.114 S 
ATOM      2  O   UNL     1     -34.805  24.986   5.724  0.00  0.00    -0.273 OA
ATOM      3  N   UNL     1     -35.237  25.560   3.479  0.00  0.00    -0.242 N 
ATOM      4  C   UNL     1     -34.405  26.566   2.846  0.00  0.00    +0.155 C 
ATOM      5  CA  UNL     1     -33.472  26.426   4.069  0.00  0.00    +0.178 C 
ATOM      6  C   UNL     1     -34.601  25.541   4.670  0.00  0.00    +0.251 C 
ATOM      7  CA  UNL     1     -36.285  24.952   2.865  0.00  0.00    +0.124 C 
ATOM      8  C   UNL     1     -36.457  25.023   1.523  0.00  0.00    -0.002 C 
ATOM      9  C   UNL     1     -35.457  25.690   0.582  0.00  0.00    +0.083 C 
ENDROOT
BRANCH   5  11
ATOM     10  O   UNL     1     -30.934  27.794   4.264  0.00  0.00    -0.272 OA
ATOM     11  N   UNL     1     -33.169  27.615   4.864  0.00  0.00    -0.294 N 
ATOM     12  C   UNL     1     -31.905  28.205   4.893  0.00  0.00    +0.254 C 
ATOM     13  H   UNL     1     -33.889  28.017   5.404  0.00  0.00    +0.150 HD
BRANCH  12  14
ATOM     14  C   UNL     1     -31.849  29.442   5.779  0.00  0.00    +0.209 C 
BRANCH  14  15
ATOM     15  C   UNL     1     -30.444  29.989   5.885  0.00  0.00    +0.013 C 
ATOM     16  C   UNL     1     -30.064  31.043   5.071  0.00  0.00    -0.001 C 
ATOM     17  C   UNL     1     -29.565  29.426   6.796  0.00  0.00    -0.001 C 
ATOM     18  C   UNL     1     -28.766  31.547   5.170  0.00  0.00    -0.000 C 
ATOM     19  C   UNL     1     -28.268  29.931   6.894  0.00  0.00    -0.000 C 
ATOM     20  C   UNL     1     -27.869  30.991   6.081  0.00  0.00    -0.000 C 
ENDBRANCH  14  15
BRANCH  14  21
ATOM     21  O   UNL     1     -32.691  30.447   5.235  0.00  0.00    -0.372 OA
ATOM     22  H   UNL     1     -32.190  30.978   4.596  0.00  0.00    +0.211 HD
ENDBRANCH  14  21
ENDBRANCH  12  14
ENDBRANCH   5  11
BRANCH   7  24
ATOM     23  OXT UNL     1     -37.035  22.980   3.960  0.00  0.00    -0.244 OA
ATOM     24  C   UNL     1     -37.187  24.160   3.714  0.00  0.00    +0.351 C 
BRANCH  24  25
ATOM     25  O   UNL     1     -38.186  24.947   4.161  0.00  0.00    -0.476 OA
ATOM     26  H   UNL     1     -38.789  24.621   4.799  0.00  0.00    +0.295 HD
ENDBRANCH  24  25
ENDBRANCH   7  24
BRANCH   8  27
ATOM     27  C   UNL     1     -37.636  24.445   0.779  0.00  0.00    +0.088 C 
BRANCH  27  28
ATOM     28  S   UNL     1     -37.044  23.346  -0.518  0.00  0.00    -0.089 S 
BRANCH  28  31
ATOM     29  O   UNL     1     -38.267  21.215   1.193  0.00  0.00    -0.163 OA
ATOM     30  N   UNL     1     -36.992  21.161   1.162  0.00  0.00    -0.123 N 
ATOM     31  C   UNL     1     -36.239  22.055   0.430  0.00  0.00    +0.128 C 
ATOM     32  C   UNL     1     -34.852  21.983   0.407  0.00  0.00    +0.027 C 
ATOM     33  C   UNL     1     -36.344  20.175   1.882  0.00  0.00    +0.122 C 
ATOM     34  C   UNL     1     -34.209  20.988   1.135  0.00  0.00    +0.004 C 
ATOM     35  C   UNL     1     -34.956  20.078   1.876  0.00  0.00    +0.022 C 
ENDBRANCH  28  31
ENDBRANCH  27  28
ENDBRANCH   8  27
TORSDOF 9
ENDMDL
MODEL 7
REMARK VINA RESULT:      -6.5      2.738      8.913
REMARK  Name = 191413
REMARK  9 active torsions:
REMARK  status: ('A' for Active; 'I' for Inactive)
REMARK    1  A    between atoms: CA_5  and  N_11
REMARK    2  A    between atoms: CA_7  and  C_24
REMARK    3  A    between atoms: C_8  and  C_27
REMARK    4  A    between atoms: C_12  and  C_14
REMARK    5  A    between atoms: C_14  and  C_15
REMARK    6  A    between atoms: C_14  and  O_21
REMARK    7  A    between atoms: C_24  and  O_25
REMARK    8  A    between atoms: C_27  and  S_28
REMARK    9  A    between atoms: S_28  and  C_31
REMARK                            x       y       z     vdW  Elec       q    Type
REMARK                         _______ _______ _______ _____ _____    ______ ____
ROOT
ATOM      1  S   UNL     1     -33.031  25.597   1.495  0.00  0.00    -0.114 S 
ATOM      2  O   UNL     1     -34.188  26.371   5.931  0.00  0.00    -0.273 OA
ATOM      3  N   UNL     1     -34.441  25.527   3.744  0.00  0.00    -0.242 N 
ATOM      4  C   UNL     1     -34.184  26.413   2.624  0.00  0.00    +0.155 C 
ATOM      5  CA  UNL     1     -33.565  27.381   3.655  0.00  0.00    +0.178 C 
ATOM      6  C   UNL     1     -34.126  26.401   4.725  0.00  0.00    +0.251 C 
ATOM      7  CA  UNL     1     -34.863  24.243   3.610  0.00  0.00    +0.124 C 
ATOM      8  C   UNL     1     -34.797  23.597   2.422  0.00  0.00    -0.002 C 
ATOM      9  C   UNL     1     -34.162  24.202   1.172  0.00  0.00    +0.083 C 
ENDROOT
BRANCH   5  11
ATOM     10  O   UNL     1     -32.383  29.809   2.627  0.00  0.00    -0.272 OA
ATOM     11  N   UNL     1     -34.102  28.737   3.760  0.00  0.00    -0.294 N 
ATOM     12  C   UNL     1     -33.454  29.852   3.228  0.00  0.00    +0.254 C 
ATOM     13  H   UNL     1     -34.959  28.870   4.227  0.00  0.00    +0.150 HD
BRANCH  12  14
ATOM     14  C   UNL     1     -34.223  31.147   3.449  0.00  0.00    +0.209 C 
BRANCH  14  15
ATOM     15  C   UNL     1     -34.160  32.047   2.236  0.00  0.00    +0.013 C 
ATOM     16  C   UNL     1     -33.321  33.148   2.253  0.00  0.00    -0.001 C 
ATOM     17  C   UNL     1     -34.942  31.752   1.131  0.00  0.00    -0.001 C 
ATOM     18  C   UNL     1     -33.262  33.979   1.134  0.00  0.00    -0.000 C 
ATOM     19  C   UNL     1     -34.883  32.583   0.013  0.00  0.00    -0.000 C 
ATOM     20  C   UNL     1     -34.043  33.696   0.014  0.00  0.00    -0.000 C 
ENDBRANCH  14  15
BRANCH  14  21
ATOM     21  O   UNL     1     -35.582  30.844   3.724  0.00  0.00    -0.372 OA
ATOM     22  H   UNL     1     -35.916  30.222   3.058  0.00  0.00    +0.211 HD
ENDBRANCH  14  21
ENDBRANCH  12  14
ENDBRANCH   5  11
BRANCH   7  24
ATOM     23  OXT UNL     1     -34.622  22.916   5.568  0.00  0.00    -0.244 OA
ATOM     24  C   UNL     1     -35.333  23.565   4.827  0.00  0.00    +0.351 C 
BRANCH  24  25
ATOM     25  O   UNL     1     -36.655  23.782   4.977  0.00  0.00    -0.476 OA
ATOM     26  H   UNL     1     -37.148  23.268   5.586  0.00  0.00    +0.295 HD
ENDBRANCH  24  25
ENDBRANCH   7  24
BRANCH   8  27
ATOM     27  C   UNL     1     -35.320  22.203   2.174  0.00  0.00    +0.088 C 
BRANCH  27  28
ATOM     28  S   UNL     1     -35.027  21.752   0.455  0.00  0.00    -0.089 S 
BRANCH  28  31
ATOM     29  O   UNL     1     -32.230  21.825  -0.608  0.00  0.00    -0.163 OA
ATOM     30  N   UNL     1     -32.490  20.756   0.040  0.00  0.00    -0.123 N 
ATOM     31  C   UNL     1     -33.726  20.529   0.610  0.00  0.00    +0.128 C 
ATOM     32  C   UNL     1     -33.994  19.362   1.312  0.00  0.00    +0.027 C 
ATOM     33  C   UNL     1     -31.507  19.796   0.177  0.00  0.00    +0.122 C 
ATOM     34  C   UNL     1     -32.998  18.401   1.443  0.00  0.00    +0.004 C 
ATOM     35  C   UNL     1     -31.747  18.617   0.875  0.00  0.00    +0.022 C 
ENDBRANCH  28  31
ENDBRANCH  27  28
ENDBRANCH   8  27
TORSDOF 9
ENDMDL
MODEL 8
REMARK VINA RESULT:      -6.5      5.327      9.621
REMARK  Name = 191413
REMARK  9 active torsions:
REMARK  status: ('A' for Active; 'I' for Inactive)
REMARK    1  A    between atoms: CA_5  and  N_11
REMARK    2  A    between atoms: CA_7  and  C_24
REMARK    3  A    between atoms: C_8  and  C_27
REMARK    4  A    between atoms: C_12  and  C_14
REMARK    5  A    between atoms: C_14  and  C_15
REMARK    6  A    between atoms: C_14  and  O_21
REMARK    7  A    between atoms: C_24  and  O_25
REMARK    8  A    between atoms: C_27  and  S_28
REMARK    9  A    between atoms: S_28  and  C_31
REMARK                            x       y       z     vdW  Elec       q    Type
REMARK                         _______ _______ _______ _____ _____    ______ ____
ROOT
ATOM      1  S   UNL     1     -39.683  22.743   1.536  0.00  0.00    -0.114 S 
ATOM      2  O   UNL     1     -37.938  27.029   1.979  0.00  0.00    -0.273 OA
ATOM      3  N   UNL     1     -38.181  24.732   2.451  0.00  0.00    -0.242 N 
ATOM      4  C   UNL     1     -39.519  24.192   2.605  0.00  0.00    +0.155 C 
ATOM      5  CA  UNL     1     -40.022  25.532   2.026  0.00  0.00    +0.178 C 
ATOM      6  C   UNL     1     -38.544  25.998   2.153  0.00  0.00    +0.251 C 
ATOM      7  CA  UNL     1     -37.048  23.998   2.605  0.00  0.00    +0.124 C 
ATOM      8  C   UNL     1     -37.080  22.645   2.626  0.00  0.00    -0.002 C 
ATOM      9  C   UNL     1     -38.348  21.830   2.382  0.00  0.00    +0.083 C 
ENDROOT
BRANCH   5  11
ATOM     10  O   UNL     1     -41.919  27.473   1.032  0.00  0.00    -0.272 OA
ATOM     11  N   UNL     1     -40.961  26.331   2.812  0.00  0.00    -0.294 N 
ATOM     12  C   UNL     1     -41.843  27.247   2.238  0.00  0.00    +0.254 C 
ATOM     13  H   UNL     1     -40.972  26.218   3.791  0.00  0.00    +0.150 HD
BRANCH  12  14
ATOM     14  C   UNL     1     -42.731  27.938   3.263  0.00  0.00    +0.209 C 
BRANCH  14  15
ATOM     15  C   UNL     1     -43.930  27.091   3.623  0.00  0.00    +0.013 C 
ATOM     16  C   UNL     1     -44.452  26.221   2.681  0.00  0.00    -0.001 C 
ATOM     17  C   UNL     1     -44.483  27.202   4.889  0.00  0.00    -0.001 C 
ATOM     18  C   UNL     1     -45.559  25.439   3.014  0.00  0.00    -0.000 C 
ATOM     19  C   UNL     1     -45.588  26.420   5.221  0.00  0.00    -0.000 C 
ATOM     20  C   UNL     1     -46.127  25.538   4.284  0.00  0.00    -0.000 C 
ENDBRANCH  14  15
BRANCH  14  21
ATOM     21  O   UNL     1     -41.980  28.193   4.440  0.00  0.00    -0.372 OA
ATOM     22  H   UNL     1     -42.313  28.998   4.868  0.00  0.00    +0.211 HD
ENDBRANCH  14  21
ENDBRANCH  12  14
ENDBRANCH   5  11
BRANCH   7  24
ATOM     23  OXT UNL     1     -35.237  25.059   3.720  0.00  0.00    -0.244 OA
ATOM     24  C   UNL     1     -35.780  24.738   2.682  0.00  0.00    +0.351 C 
BRANCH  24  25
ATOM     25  O   UNL     1     -35.333  24.990   1.436  0.00  0.00    -0.476 OA
ATOM     26  H   UNL     1     -34.733  24.399   1.025  0.00  0.00    +0.295 HD
ENDBRANCH  24  25
ENDBRANCH   7  24
BRANCH   8  27
ATOM     27  C   UNL     1     -35.880  21.763   2.874  0.00  0.00    +0.088 C 
BRANCH  27  28
ATOM     28  S   UNL     1     -35.993  20.295   1.838  0.00  0.00    -0.089 S 
BRANCH  28  31
ATOM     29  O   UNL     1     -34.509  22.260   0.137  0.00  0.00    -0.163 OA
ATOM     30  N   UNL     1     -33.828  21.211   0.399  0.00  0.00    -0.123 N 
ATOM     31  C   UNL     1     -34.334  20.185   1.169  0.00  0.00    +0.128 C 
ATOM     32  C   UNL     1     -33.582  19.051   1.446  0.00  0.00    +0.027 C 
ATOM     33  C   UNL     1     -32.545  21.100  -0.101  0.00  0.00    +0.122 C 
ATOM     34  C   UNL     1     -32.292  18.948   0.937  0.00  0.00    +0.004 C 
ATOM     35  C   UNL     1     -31.769  19.976   0.160  0.00  0.00    +0.022 C 
ENDBRANCH  28  31
ENDBRANCH  27  28
ENDBRANCH   8  27
TORSDOF 9
ENDMDL
MODEL 9
REMARK VINA RESULT:      -6.5      2.128      2.871
REMARK  Name = 191413
REMARK  9 active torsions:
REMARK  status: ('A' for Active; 'I' for Inactive)
REMARK    1  A    between atoms: CA_5  and  N_11
REMARK    2  A    between atoms: CA_7  and  C_24
REMARK    3  A    between atoms: C_8  and  C_27
REMARK    4  A    between atoms: C_12  and  C_14
REMARK    5  A    between atoms: C_14  and  C_15
REMARK    6  A    between atoms: C_14  and  O_21
REMARK    7  A    between atoms: C_24  and  O_25
REMARK    8  A    between atoms: C_27  and  S_28
REMARK    9  A    between atoms: S_28  and  C_31
REMARK                            x       y       z     vdW  Elec       q    Type
REMARK                         _______ _______ _______ _____ _____    ______ ____
ROOT
ATOM      1  S   UNL     1     -34.286  25.264   0.597  0.00  0.00    -0.114 S 
ATOM      2  O   UNL     1     -37.144  24.154   4.092  0.00  0.00    -0.273 OA
ATOM      3  N   UNL     1     -35.111  24.778   3.074  0.00  0.00    -0.242 N 
ATOM      4  C   UNL     1     -34.680  24.061   1.889  0.00  0.00    +0.155 C 
ATOM      5  CA  UNL     1     -36.100  23.456   1.854  0.00  0.00    +0.178 C 
ATOM      6  C   UNL     1     -36.285  24.132   3.243  0.00  0.00    +0.251 C 
ATOM      7  CA  UNL     1     -34.391  25.767   3.663  0.00  0.00    +0.124 C 
ATOM      8  C   UNL     1     -33.353  26.361   3.027  0.00  0.00    -0.002 C 
ATOM      9  C   UNL     1     -32.968  26.056   1.581  0.00  0.00    +0.083 C 
ENDROOT
BRANCH   5  11
ATOM     10  O   UNL     1     -35.980  21.648  -0.397  0.00  0.00    -0.272 OA
ATOM     11  N   UNL     1     -36.247  22.002   1.881  0.00  0.00    -0.294 N 
ATOM     12  C   UNL     1     -36.174  21.211   0.735  0.00  0.00    +0.254 C 
ATOM     13  H   UNL     1     -36.406  21.561   2.748  0.00  0.00    +0.150 HD
BRANCH  12  14
ATOM     14  C   UNL     1     -36.338  19.726   1.027  0.00  0.00    +0.209 C 
BRANCH  14  15
ATOM     15  C   UNL     1     -35.046  18.970   0.817  0.00  0.00    +0.013 C 
ATOM     16  C   UNL     1     -35.018  17.914  -0.078  0.00  0.00    -0.001 C 
ATOM     17  C   UNL     1     -33.916  19.348   1.524  0.00  0.00    -0.001 C 
ATOM     18  C   UNL     1     -33.825  17.216  -0.272  0.00  0.00    -0.000 C 
ATOM     19  C   UNL     1     -32.724  18.651   1.330  0.00  0.00    -0.000 C 
ATOM     20  C   UNL     1     -32.679  17.584   0.432  0.00  0.00    -0.000 C 
ENDBRANCH  14  15
BRANCH  14  21
ATOM     21  O   UNL     1     -36.754  19.556   2.374  0.00  0.00    -0.372 OA
ATOM     22  H   UNL     1     -36.124  19.998   2.965  0.00  0.00    +0.211 HD
ENDBRANCH  14  21
ENDBRANCH  12  14
ENDBRANCH   5  11
BRANCH   7  24
ATOM     23  OXT UNL     1     -34.287  25.886   6.035  0.00  0.00    -0.244 OA
ATOM     24  C   UNL     1     -34.828  26.208   4.996  0.00  0.00    +0.351 C 
BRANCH  24  25
ATOM     25  O   UNL     1     -35.903  27.012   4.871  0.00  0.00    -0.476 OA
ATOM     26  H   UNL     1     -35.850  27.786   4.347  0.00  0.00    +0.295 HD
ENDBRANCH  24  25
ENDBRANCH   7  24
BRANCH   8  27
ATOM     27  C   UNL     1     -32.456  27.407   3.643  0.00  0.00    +0.088 C 
BRANCH  27  28
ATOM     28  S   UNL     1     -32.081  28.670   2.416  0.00  0.00    -0.089 S 
BRANCH  28  31
ATOM     29  O   UNL     1     -33.348  30.589   4.332  0.00  0.00    -0.163 OA
ATOM     30  N   UNL     1     -34.054  30.386   3.288  0.00  0.00    -0.123 N 
ATOM     31  C   UNL     1     -33.646  29.534   2.283  0.00  0.00    +0.128 C 
ATOM     32  C   UNL     1     -34.426  29.322   1.154  0.00  0.00    +0.027 C 
ATOM     33  C   UNL     1     -35.265  31.039   3.158  0.00  0.00    +0.122 C 
ATOM     34  C   UNL     1     -35.643  29.983   1.033  0.00  0.00    +0.004 C 
ATOM     35  C   UNL     1     -36.066  30.847   2.037  0.00  0.00    +0.022 C 
ENDBRANCH  28  31
ENDBRANCH  27  28
ENDBRANCH   8  27
TORSDOF 9
ENDMDL
