MODEL 1
REMARK VINA RESULT:      -5.9      0.000      0.000
REMARK  Name = 5487888
REMARK  6 active torsions:
REMARK  status: ('A' for Active; 'I' for Inactive)
REMARK    1  A    between atoms: N_2  and  CA_9
REMARK    2  A    between atoms: C_3  and  C_20
REMARK    3  A    between atoms: CA_11  and  C_16
REMARK    4  A    between atoms: C_16  and  O_17
REMARK    5  A    between atoms: N_19  and  O_29
REMARK    6  A    between atoms: C_20  and  C_24
REMARK                            x       y       z     vdW  Elec       q    Type
REMARK                         _______ _______ _______ _____ _____    ______ ____
ROOT
ATOM      1  O   UNL     1     -36.943  25.859   3.888  0.00  0.00    -0.268 OA
ATOM      2  N   UNL     1     -35.686  24.168   2.855  0.00  0.00    -0.291 N 
ATOM      3  C   UNL     1     -35.983  25.109   3.825  0.00  0.00    +0.269 C 
ATOM      4  H   UNL     1     -34.863  23.636   2.949  0.00  0.00    +0.150 HD
ENDROOT
BRANCH   2   9
ATOM      5  S   UNL     1     -34.121  23.114   0.435  0.00  0.00    -0.114 S 
ATOM      6  O   UNL     1     -38.182  22.107   2.462  0.00  0.00    -0.273 OA
ATOM      7  N   UNL     1     -36.557  22.106   0.754  0.00  0.00    -0.242 N 
ATOM      8  C   UNL     1     -35.912  23.360   0.409  0.00  0.00    +0.155 C 
ATOM      9  CA  UNL     1     -36.546  23.931   1.695  0.00  0.00    +0.179 C 
ATOM     10  C   UNL     1     -37.320  22.584   1.761  0.00  0.00    +0.251 C 
ATOM     11  CA  UNL     1     -36.311  20.931   0.120  0.00  0.00    +0.124 C 
ATOM     12  C   UNL     1     -34.164  21.845  -0.876  0.00  0.00    +0.083 C 
ATOM     13  C   UNL     1     -35.234  20.774  -0.687  0.00  0.00    -0.013 C 
ATOM     14  C   UNL     1     -34.938  19.529  -1.489  0.00  0.00    +0.029 C 
BRANCH  11  16
ATOM     15  OXT UNL     1     -38.164  19.506  -0.309  0.00  0.00    -0.244 OA
ATOM     16  C   UNL     1     -37.229  19.817   0.400  0.00  0.00    +0.351 C 
BRANCH  16  17
ATOM     17  O   UNL     1     -36.866  19.217   1.551  0.00  0.00    -0.476 OA
ATOM     18  H   UNL     1     -36.975  19.663   2.368  0.00  0.00    +0.295 HD
ENDBRANCH  16  17
ENDBRANCH  11  16
ENDBRANCH   2   9
BRANCH   3  20
ATOM     19  N   UNL     1     -34.914  24.258   5.840  0.00  0.00    -0.076 NA
ATOM     20  C   UNL     1     -34.948  25.173   4.919  0.00  0.00    +0.198 C 
BRANCH  20  24
ATOM     21  S   UNL     1     -32.411  28.124   4.350  0.00  0.00    -0.060 S 
ATOM     22  N   UNL     1     -33.433  26.614   6.183  0.00  0.00    -0.383 NA
ATOM     23  N   UNL     1     -31.869  28.212   6.953  0.00  0.00    -0.328 N 
ATOM     24  C   UNL     1     -33.965  26.260   4.976  0.00  0.00    +0.148 C 
ATOM     25  C   UNL     1     -33.555  26.939   3.869  0.00  0.00    +0.127 C 
ATOM     26  C   UNL     1     -32.590  27.600   5.975  0.00  0.00    +0.204 C 
ATOM     27  H   UNL     1     -31.254  28.946   6.724  0.00  0.00    +0.145 HD
ATOM     28  H   UNL     1     -31.963  27.921   7.888  0.00  0.00    +0.145 HD
ENDBRANCH  20  24
BRANCH  19  29
ATOM     29  O   UNL     1     -35.916  23.294   5.654  0.00  0.00    -0.373 OA
ATOM     30  C   UNL     1     -35.489  22.089   6.269  0.00  0.00    +0.288 C 
ENDBRANCH  19  29
ENDBRANCH   3  20
TORSDOF 6
ENDMDL
MODEL 2
REMARK VINA RESULT:      -5.9      1.887      2.171
REMARK  Name = 5487888
REMARK  6 active torsions:
REMARK  status: ('A' for Active; 'I' for Inactive)
REMARK    1  A    between atoms: N_2  and  CA_9
REMARK    2  A    between atoms: C_3  and  C_20
REMARK    3  A    between atoms: CA_11  and  C_16
REMARK    4  A    between atoms: C_16  and  O_17
REMARK    5  A    between atoms: N_19  and  O_29
REMARK    6  A    between atoms: C_20  and  C_24
REMARK                            x       y       z     vdW  Elec       q    Type
REMARK                         _______ _______ _______ _____ _____    ______ ____
ROOT
ATOM      1  O   UNL     1     -36.376  26.477   5.040  0.00  0.00    -0.268 OA
ATOM      2  N   UNL     1     -35.769  25.562   2.966  0.00  0.00    -0.291 N 
ATOM      3  C   UNL     1     -35.570  25.982   4.269  0.00  0.00    +0.269 C 
ATOM      4  H   UNL     1     -35.008  25.180   2.471  0.00  0.00    +0.150 HD
ENDROOT
BRANCH   2   9
ATOM      5  S   UNL     1     -35.723  24.334   0.154  0.00  0.00    -0.114 S 
ATOM      6  O   UNL     1     -38.661  24.282   3.757  0.00  0.00    -0.273 OA
ATOM      7  N   UNL     1     -37.974  23.990   1.521  0.00  0.00    -0.242 N 
ATOM      8  C   UNL     1     -37.214  25.050   0.883  0.00  0.00    +0.155 C 
ATOM      9  CA  UNL     1     -37.064  25.660   2.293  0.00  0.00    +0.179 C 
ATOM     10  C   UNL     1     -38.079  24.568   2.737  0.00  0.00    +0.251 C 
ATOM     11  CA  UNL     1     -38.352  22.849   0.890  0.00  0.00    +0.124 C 
ATOM     12  C   UNL     1     -36.661  23.236  -0.962  0.00  0.00    +0.083 C 
ATOM     13  C   UNL     1     -37.804  22.477  -0.292  0.00  0.00    -0.013 C 
ATOM     14  C   UNL     1     -38.228  21.270  -1.093  0.00  0.00    +0.029 C 
BRANCH  11  16
ATOM     15  OXT UNL     1     -40.539  22.155   1.513  0.00  0.00    -0.244 OA
ATOM     16  C   UNL     1     -39.336  22.001   1.579  0.00  0.00    +0.351 C 
BRANCH  16  17
ATOM     17  O   UNL     1     -38.692  21.047   2.280  0.00  0.00    -0.476 OA
ATOM     18  H   UNL     1     -38.836  20.142   2.084  0.00  0.00    +0.295 HD
ENDBRANCH  16  17
ENDBRANCH  11  16
ENDBRANCH   2   9
BRANCH   3  20
ATOM     19  N   UNL     1     -33.693  24.584   4.940  0.00  0.00    -0.076 NA
ATOM     20  C   UNL     1     -34.153  25.783   4.742  0.00  0.00    +0.198 C 
BRANCH  20  24
ATOM     21  S   UNL     1     -31.799  28.933   4.694  0.00  0.00    -0.060 S 
ATOM     22  N   UNL     1     -32.889  27.204   6.276  0.00  0.00    -0.383 NA
ATOM     23  N   UNL     1     -31.537  28.827   7.338  0.00  0.00    -0.328 N 
ATOM     24  C   UNL     1     -33.265  26.923   4.993  0.00  0.00    +0.148 C 
ATOM     25  C   UNL     1     -32.794  27.723   3.997  0.00  0.00    +0.127 C 
ATOM     26  C   UNL     1     -32.105  28.258   6.242  0.00  0.00    +0.204 C 
ATOM     27  H   UNL     1     -30.958  29.617   7.238  0.00  0.00    +0.145 HD
ATOM     28  H   UNL     1     -31.705  28.449   8.231  0.00  0.00    +0.145 HD
ENDBRANCH  20  24
BRANCH  19  29
ATOM     29  O   UNL     1     -34.658  23.604   4.663  0.00  0.00    -0.373 OA
ATOM     30  C   UNL     1     -34.997  22.962   5.881  0.00  0.00    +0.288 C 
ENDBRANCH  19  29
ENDBRANCH   3  20
TORSDOF 6
ENDMDL
MODEL 3
REMARK VINA RESULT:      -5.8      2.864      7.182
REMARK  Name = 5487888
REMARK  6 active torsions:
REMARK  status: ('A' for Active; 'I' for Inactive)
REMARK    1  A    between atoms: N_2  and  CA_9
REMARK    2  A    between atoms: C_3  and  C_20
REMARK    3  A    between atoms: CA_11  and  C_16
REMARK    4  A    between atoms: C_16  and  O_17
REMARK    5  A    between atoms: N_19  and  O_29
REMARK    6  A    between atoms: C_20  and  C_24
REMARK                            x       y       z     vdW  Elec       q    Type
REMARK                         _______ _______ _______ _____ _____    ______ ____
ROOT
ATOM      1  O   UNL     1     -36.016  23.286   5.144  0.00  0.00    -0.268 OA
ATOM      2  N   UNL     1     -35.089  24.262   3.221  0.00  0.00    -0.291 N 
ATOM      3  C   UNL     1     -35.969  23.470   3.939  0.00  0.00    +0.269 C 
ATOM      4  H   UNL     1     -35.183  24.305   2.243  0.00  0.00    +0.150 HD
ENDROOT
BRANCH   2   9
ATOM      5  S   UNL     1     -33.182  25.530   1.179  0.00  0.00    -0.114 S 
ATOM      6  O   UNL     1     -35.252  26.920   5.102  0.00  0.00    -0.273 OA
ATOM      7  N   UNL     1     -33.697  26.995   3.332  0.00  0.00    -0.242 N 
ATOM      8  C   UNL     1     -33.007  25.774   2.961  0.00  0.00    +0.155 C 
ATOM      9  CA  UNL     1     -34.026  25.039   3.859  0.00  0.00    +0.179 C 
ATOM     10  C   UNL     1     -34.474  26.461   4.299  0.00  0.00    +0.251 C 
ATOM     11  CA  UNL     1     -33.470  28.198   2.746  0.00  0.00    +0.124 C 
ATOM     12  C   UNL     1     -32.329  27.090   0.769  0.00  0.00    +0.083 C 
ATOM     13  C   UNL     1     -32.796  28.299   1.574  0.00  0.00    -0.013 C 
ATOM     14  C   UNL     1     -32.433  29.602   0.903  0.00  0.00    +0.029 C 
BRANCH  11  16
ATOM     15  OXT UNL     1     -33.408  30.164   4.081  0.00  0.00    -0.244 OA
ATOM     16  C   UNL     1     -34.044  29.381   3.405  0.00  0.00    +0.351 C 
BRANCH  16  17
ATOM     17  O   UNL     1     -35.363  29.446   3.138  0.00  0.00    -0.476 OA
ATOM     18  H   UNL     1     -35.844  28.662   2.956  0.00  0.00    +0.295 HD
ENDBRANCH  16  17
ENDBRANCH  11  16
ENDBRANCH   2   9
BRANCH   3  20
ATOM     19  N   UNL     1     -38.191  23.209   2.980  0.00  0.00    -0.076 NA
ATOM     20  C   UNL     1     -36.973  22.765   3.064  0.00  0.00    +0.198 C 
BRANCH  20  24
ATOM     21  S   UNL     1     -36.668  19.617   0.726  0.00  0.00    -0.060 S 
ATOM     22  N   UNL     1     -35.367  21.026   2.460  0.00  0.00    -0.383 NA
ATOM     23  N   UNL     1     -34.184  19.182   1.570  0.00  0.00    -0.328 N 
ATOM     24  C   UNL     1     -36.609  21.570   2.296  0.00  0.00    +0.148 C 
ATOM     25  C   UNL     1     -37.461  20.972   1.417  0.00  0.00    +0.127 C 
ATOM     26  C   UNL     1     -35.282  19.977   1.673  0.00  0.00    +0.204 C 
ATOM     27  H   UNL     1     -34.190  18.410   0.958  0.00  0.00    +0.145 HD
ATOM     28  H   UNL     1     -33.383  19.378   2.107  0.00  0.00    +0.145 HD
ENDBRANCH  20  24
BRANCH  19  29
ATOM     29  O   UNL     1     -38.386  24.350   3.773  0.00  0.00    -0.373 OA
ATOM     30  C   UNL     1     -39.084  25.311   2.998  0.00  0.00    +0.288 C 
ENDBRANCH  19  29
ENDBRANCH   3  20
TORSDOF 6
ENDMDL
MODEL 4
REMARK VINA RESULT:      -5.8      3.768      7.911
REMARK  Name = 5487888
REMARK  6 active torsions:
REMARK  status: ('A' for Active; 'I' for Inactive)
REMARK    1  A    between atoms: N_2  and  CA_9
REMARK    2  A    between atoms: C_3  and  C_20
REMARK    3  A    between atoms: CA_11  and  C_16
REMARK    4  A    between atoms: C_16  and  O_17
REMARK    5  A    between atoms: N_19  and  O_29
REMARK    6  A    between atoms: C_20  and  C_24
REMARK                            x       y       z     vdW  Elec       q    Type
REMARK                         _______ _______ _______ _____ _____    ______ ____
ROOT
ATOM      1  O   UNL     1     -34.584  23.941   2.542  0.00  0.00    -0.268 OA
ATOM      2  N   UNL     1     -34.567  25.896   3.841  0.00  0.00    -0.291 N 
ATOM      3  C   UNL     1     -35.063  24.689   3.378  0.00  0.00    +0.269 C 
ATOM      4  H   UNL     1     -35.078  26.385   4.525  0.00  0.00    +0.150 HD
ENDROOT
BRANCH   2   9
ATOM      5  S   UNL     1     -35.024  28.271   1.953  0.00  0.00    -0.114 S 
ATOM      6  O   UNL     1     -32.133  27.328   5.470  0.00  0.00    -0.273 OA
ATOM      7  N   UNL     1     -32.928  28.477   3.571  0.00  0.00    -0.242 N 
ATOM      8  C   UNL     1     -33.374  27.703   2.427  0.00  0.00    +0.155 C 
ATOM      9  CA  UNL     1     -33.313  26.472   3.357  0.00  0.00    +0.179 C 
ATOM     10  C   UNL     1     -32.636  27.432   4.375  0.00  0.00    +0.251 C 
ATOM     11  CA  UNL     1     -32.901  29.834   3.600  0.00  0.00    +0.124 C 
ATOM     12  C   UNL     1     -34.460  29.970   1.602  0.00  0.00    +0.083 C 
ATOM     13  C   UNL     1     -33.560  30.575   2.676  0.00  0.00    -0.013 C 
ATOM     14  C   UNL     1     -33.511  32.082   2.593  0.00  0.00    +0.029 C 
BRANCH  11  16
ATOM     15  OXT UNL     1     -32.674  30.721   5.793  0.00  0.00    -0.244 OA
ATOM     16  C   UNL     1     -32.178  30.463   4.715  0.00  0.00    +0.351 C 
BRANCH  16  17
ATOM     17  O   UNL     1     -30.904  30.700   4.345  0.00  0.00    -0.476 OA
ATOM     18  H   UNL     1     -30.488  31.505   4.585  0.00  0.00    +0.295 HD
ENDBRANCH  16  17
ENDBRANCH  11  16
ENDBRANCH   2   9
BRANCH   3  20
ATOM     19  N   UNL     1     -36.380  23.741   5.193  0.00  0.00    -0.076 NA
ATOM     20  C   UNL     1     -36.370  24.305   4.023  0.00  0.00    +0.198 C 
BRANCH  20  24
ATOM     21  S   UNL     1     -39.653  25.662   2.334  0.00  0.00    -0.060 S 
ATOM     22  N   UNL     1     -38.388  23.483   2.917  0.00  0.00    -0.383 NA
ATOM     23  N   UNL     1     -40.454  23.180   1.806  0.00  0.00    -0.328 N 
ATOM     24  C   UNL     1     -37.652  24.548   3.353  0.00  0.00    +0.148 C 
ATOM     25  C   UNL     1     -38.146  25.799   3.142  0.00  0.00    +0.127 C 
ATOM     26  C   UNL     1     -39.479  23.953   2.356  0.00  0.00    +0.204 C 
ATOM     27  H   UNL     1     -41.247  23.602   1.402  0.00  0.00    +0.145 HD
ATOM     28  H   UNL     1     -40.365  22.201   1.812  0.00  0.00    +0.145 HD
ENDBRANCH  20  24
BRANCH  19  29
ATOM     29  O   UNL     1     -35.083  23.570   5.699  0.00  0.00    -0.373 OA
ATOM     30  C   UNL     1     -34.923  22.205   6.052  0.00  0.00    +0.288 C 
ENDBRANCH  19  29
ENDBRANCH   3  20
TORSDOF 6
ENDMDL
MODEL 5
REMARK VINA RESULT:      -5.7      3.009      6.937
REMARK  Name = 5487888
REMARK  6 active torsions:
REMARK  status: ('A' for Active; 'I' for Inactive)
REMARK    1  A    between atoms: N_2  and  CA_9
REMARK    2  A    between atoms: C_3  and  C_20
REMARK    3  A    between atoms: CA_11  and  C_16
REMARK    4  A    between atoms: C_16  and  O_17
REMARK    5  A    between atoms: N_19  and  O_29
REMARK    6  A    between atoms: C_20  and  C_24
REMARK                            x       y       z     vdW  Elec       q    Type
REMARK                         _______ _______ _______ _____ _____    ______ ____
ROOT
ATOM      1  O   UNL     1     -36.012  23.034   5.056  0.00  0.00    -0.268 OA
ATOM      2  N   UNL     1     -35.216  24.208   3.186  0.00  0.00    -0.291 N 
ATOM      3  C   UNL     1     -36.044  23.339   3.875  0.00  0.00    +0.269 C 
ATOM      4  H   UNL     1     -35.375  24.349   2.225  0.00  0.00    +0.150 HD
ENDROOT
BRANCH   2   9
ATOM      5  S   UNL     1     -33.272  25.431   1.151  0.00  0.00    -0.114 S 
ATOM      6  O   UNL     1     -35.250  26.835   5.116  0.00  0.00    -0.273 OA
ATOM      7  N   UNL     1     -33.707  26.877   3.334  0.00  0.00    -0.242 N 
ATOM      8  C   UNL     1     -33.073  25.634   2.936  0.00  0.00    +0.155 C 
ATOM      9  CA  UNL     1     -34.115  24.927   3.828  0.00  0.00    +0.179 C 
ATOM     10  C   UNL     1     -34.498  26.359   4.298  0.00  0.00    +0.251 C 
ATOM     11  CA  UNL     1     -33.433  28.080   2.768  0.00  0.00    +0.124 C 
ATOM     12  C   UNL     1     -32.356  26.960   0.761  0.00  0.00    +0.083 C 
ATOM     13  C   UNL     1     -32.765  28.173   1.593  0.00  0.00    -0.013 C 
ATOM     14  C   UNL     1     -32.351  29.472   0.942  0.00  0.00    +0.029 C 
BRANCH  11  16
ATOM     15  OXT UNL     1     -33.282  30.000   4.161  0.00  0.00    -0.244 OA
ATOM     16  C   UNL     1     -33.950  29.274   3.453  0.00  0.00    +0.351 C 
BRANCH  16  17
ATOM     17  O   UNL     1     -35.260  29.420   3.170  0.00  0.00    -0.476 OA
ATOM     18  H   UNL     1     -35.561  29.328   2.287  0.00  0.00    +0.295 HD
ENDBRANCH  16  17
ENDBRANCH  11  16
ENDBRANCH   2   9
BRANCH   3  20
ATOM     19  N   UNL     1     -36.920  21.533   2.498  0.00  0.00    -0.076 NA
ATOM     20  C   UNL     1     -37.102  22.717   3.001  0.00  0.00    +0.198 C 
BRANCH  20  24
ATOM     21  S   UNL     1     -40.504  24.134   1.627  0.00  0.00    -0.060 S 
ATOM     22  N   UNL     1     -38.728  24.478   3.474  0.00  0.00    -0.383 NA
ATOM     23  N   UNL     1     -40.544  25.991   3.531  0.00  0.00    -0.328 N 
ATOM     24  C   UNL     1     -38.349  23.424   2.692  0.00  0.00    +0.148 C 
ATOM     25  C   UNL     1     -39.155  23.075   1.651  0.00  0.00    +0.127 C 
ATOM     26  C   UNL     1     -39.865  24.939   3.003  0.00  0.00    +0.204 C 
ATOM     27  H   UNL     1     -41.393  26.283   3.125  0.00  0.00    +0.145 HD
ATOM     28  H   UNL     1     -40.189  26.460   4.320  0.00  0.00    +0.145 HD
ENDBRANCH  20  24
BRANCH  19  29
ATOM     29  O   UNL     1     -35.683  20.991   2.877  0.00  0.00    -0.373 OA
ATOM     30  C   UNL     1     -35.088  20.405   1.731  0.00  0.00    +0.288 C 
ENDBRANCH  19  29
ENDBRANCH   3  20
TORSDOF 6
ENDMDL
MODEL 6
REMARK VINA RESULT:      -5.7      2.843      3.340
REMARK  Name = 5487888
REMARK  6 active torsions:
REMARK  status: ('A' for Active; 'I' for Inactive)
REMARK    1  A    between atoms: N_2  and  CA_9
REMARK    2  A    between atoms: C_3  and  C_20
REMARK    3  A    between atoms: CA_11  and  C_16
REMARK    4  A    between atoms: C_16  and  O_17
REMARK    5  A    between atoms: N_19  and  O_29
REMARK    6  A    between atoms: C_20  and  C_24
REMARK                            x       y       z     vdW  Elec       q    Type
REMARK                         _______ _______ _______ _____ _____    ______ ____
ROOT
ATOM      1  O   UNL     1     -37.140  27.380   2.221  0.00  0.00    -0.268 OA
ATOM      2  N   UNL     1     -35.494  25.712   2.096  0.00  0.00    -0.291 N 
ATOM      3  C   UNL     1     -36.002  26.968   2.376  0.00  0.00    +0.269 C 
ATOM      4  H   UNL     1     -34.543  25.535   2.280  0.00  0.00    +0.150 HD
ENDROOT
BRANCH   2   9
ATOM      5  S   UNL     1     -33.869  23.804   0.324  0.00  0.00    -0.114 S 
ATOM      6  O   UNL     1     -37.150  23.330   3.583  0.00  0.00    -0.273 OA
ATOM      7  N   UNL     1     -35.773  22.671   1.787  0.00  0.00    -0.242 N 
ATOM      8  C   UNL     1     -35.630  23.568   0.655  0.00  0.00    +0.155 C 
ATOM      9  CA  UNL     1     -36.313  24.635   1.538  0.00  0.00    +0.179 C 
ATOM     10  C   UNL     1     -36.567  23.468   2.533  0.00  0.00    +0.251 C 
ATOM     11  CA  UNL     1     -35.191  21.446   1.857  0.00  0.00    +0.124 C 
ATOM     12  C   UNL     1     -33.581  22.035  -0.014  0.00  0.00    +0.083 C 
ATOM     13  C   UNL     1     -34.197  21.085   1.010  0.00  0.00    -0.013 C 
ATOM     14  C   UNL     1     -33.558  19.717   0.971  0.00  0.00    +0.029 C 
BRANCH  11  16
ATOM     15  OXT UNL     1     -35.155  20.522   4.047  0.00  0.00    -0.244 OA
ATOM     16  C   UNL     1     -35.642  20.553   2.935  0.00  0.00    +0.351 C 
BRANCH  16  17
ATOM     17  O   UNL     1     -36.664  19.795   2.490  0.00  0.00    -0.476 OA
ATOM     18  H   UNL     1     -36.509  18.910   2.224  0.00  0.00    +0.295 HD
ENDBRANCH  16  17
ENDBRANCH  11  16
ENDBRANCH   2   9
BRANCH   3  20
ATOM     19  N   UNL     1     -34.478  27.704   4.127  0.00  0.00    -0.076 NA
ATOM     20  C   UNL     1     -34.968  27.908   2.941  0.00  0.00    +0.198 C 
BRANCH  20  24
ATOM     21  S   UNL     1     -33.713  30.566   0.327  0.00  0.00    -0.060 S 
ATOM     22  N   UNL     1     -34.297  30.254   2.827  0.00  0.00    -0.383 NA
ATOM     23  N   UNL     1     -33.579  32.425   2.224  0.00  0.00    -0.328 N 
ATOM     24  C   UNL     1     -34.495  29.068   2.179  0.00  0.00    +0.148 C 
ATOM     25  C   UNL     1     -34.242  29.017   0.842  0.00  0.00    +0.127 C 
ATOM     26  C   UNL     1     -33.879  31.130   1.941  0.00  0.00    +0.204 C 
ATOM     27  H   UNL     1     -33.270  33.027   1.509  0.00  0.00    +0.145 HD
ATOM     28  H   UNL     1     -33.671  32.761   3.145  0.00  0.00    +0.145 HD
ENDBRANCH  20  24
BRANCH  19  29
ATOM     29  O   UNL     1     -35.030  26.564   4.729  0.00  0.00    -0.373 OA
ATOM     30  C   UNL     1     -34.171  26.162   5.784  0.00  0.00    +0.288 C 
ENDBRANCH  19  29
ENDBRANCH   3  20
TORSDOF 6
ENDMDL
MODEL 7
REMARK VINA RESULT:      -5.6      4.608      6.445
REMARK  Name = 5487888
REMARK  6 active torsions:
REMARK  status: ('A' for Active; 'I' for Inactive)
REMARK    1  A    between atoms: N_2  and  CA_9
REMARK    2  A    between atoms: C_3  and  C_20
REMARK    3  A    between atoms: CA_11  and  C_16
REMARK    4  A    between atoms: C_16  and  O_17
REMARK    5  A    between atoms: N_19  and  O_29
REMARK    6  A    between atoms: C_20  and  C_24
REMARK                            x       y       z     vdW  Elec       q    Type
REMARK                         _______ _______ _______ _____ _____    ______ ____
ROOT
ATOM      1  O   UNL     1     -34.089  29.653   0.752  0.00  0.00    -0.268 OA
ATOM      2  N   UNL     1     -35.456  28.517   2.285  0.00  0.00    -0.291 N 
ATOM      3  C   UNL     1     -34.822  29.613   1.726  0.00  0.00    +0.269 C 
ATOM      4  H   UNL     1     -36.021  28.652   3.079  0.00  0.00    +0.150 HD
ENDROOT
BRANCH   2   9
ATOM      5  S   UNL     1     -33.979  26.629   4.200  0.00  0.00    -0.114 S 
ATOM      6  O   UNL     1     -37.733  26.328   1.475  0.00  0.00    -0.273 OA
ATOM      7  N   UNL     1     -35.961  25.536   2.813  0.00  0.00    -0.242 N 
ATOM      8  C   UNL     1     -34.634  26.086   2.606  0.00  0.00    +0.155 C 
ATOM      9  CA  UNL     1     -35.321  27.165   1.742  0.00  0.00    +0.179 C 
ATOM     10  C   UNL     1     -36.602  26.299   1.903  0.00  0.00    +0.251 C 
ATOM     11  CA  UNL     1     -36.240  24.554   3.709  0.00  0.00    +0.124 C 
ATOM     12  C   UNL     1     -34.049  24.956   4.926  0.00  0.00    +0.083 C 
ATOM     13  C   UNL     1     -35.362  24.215   4.684  0.00  0.00    -0.013 C 
ATOM     14  C   UNL     1     -35.563  23.083   5.663  0.00  0.00    +0.029 C 
BRANCH  11  16
ATOM     15  OXT UNL     1     -37.763  22.819   3.144  0.00  0.00    -0.244 OA
ATOM     16  C   UNL     1     -37.563  23.920   3.614  0.00  0.00    +0.351 C 
BRANCH  16  17
ATOM     17  O   UNL     1     -38.494  24.751   4.125  0.00  0.00    -0.476 OA
ATOM     18  H   UNL     1     -38.292  25.278   4.873  0.00  0.00    +0.295 HD
ENDBRANCH  16  17
ENDBRANCH  11  16
ENDBRANCH   2   9
BRANCH   3  20
ATOM     19  N   UNL     1     -34.556  31.128   3.614  0.00  0.00    -0.076 NA
ATOM     20  C   UNL     1     -35.111  30.897   2.462  0.00  0.00    +0.198 C 
BRANCH  20  24
ATOM     21  S   UNL     1     -36.938  33.995   0.871  0.00  0.00    -0.060 S 
ATOM     22  N   UNL     1     -37.358  31.644   1.863  0.00  0.00    -0.383 NA
ATOM     23  N   UNL     1     -39.294  32.785   1.126  0.00  0.00    -0.328 N 
ATOM     24  C   UNL     1     -36.018  31.906   1.907  0.00  0.00    +0.148 C 
ATOM     25  C   UNL     1     -35.582  33.104   1.429  0.00  0.00    +0.127 C 
ATOM     26  C   UNL     1     -37.953  32.688   1.329  0.00  0.00    +0.204 C 
ATOM     27  H   UNL     1     -39.672  33.599   0.720  0.00  0.00    +0.145 HD
ATOM     28  H   UNL     1     -39.886  32.043   1.383  0.00  0.00    +0.145 HD
ENDBRANCH  20  24
BRANCH  19  29
ATOM     29  O   UNL     1     -33.723  30.072   4.012  0.00  0.00    -0.373 OA
ATOM     30  C   UNL     1     -32.508  30.625   4.491  0.00  0.00    +0.288 C 
ENDBRANCH  19  29
ENDBRANCH   3  20
TORSDOF 6
ENDMDL
MODEL 8
REMARK VINA RESULT:      -5.6      2.618      3.767
REMARK  Name = 5487888
REMARK  6 active torsions:
REMARK  status: ('A' for Active; 'I' for Inactive)
REMARK    1  A    between atoms: N_2  and  CA_9
REMARK    2  A    between atoms: C_3  and  C_20
REMARK    3  A    between atoms: CA_11  and  C_16
REMARK    4  A    between atoms: C_16  and  O_17
REMARK    5  A    between atoms: N_19  and  O_29
REMARK    6  A    between atoms: C_20  and  C_24
REMARK                            x       y       z     vdW  Elec       q    Type
REMARK                         _______ _______ _______ _____ _____    ______ ____
ROOT
ATOM      1  O   UNL     1     -33.635  24.727   4.958  0.00  0.00    -0.268 OA
ATOM      2  N   UNL     1     -35.416  25.643   3.735  0.00  0.00    -0.291 N 
ATOM      3  C   UNL     1     -34.104  25.517   4.156  0.00  0.00    +0.269 C 
ATOM      4  H   UNL     1     -35.635  26.339   3.074  0.00  0.00    +0.150 HD
ENDROOT
BRANCH   2   9
ATOM      5  S   UNL     1     -38.091  26.187   2.333  0.00  0.00    -0.114 S 
ATOM      6  O   UNL     1     -35.737  22.400   3.647  0.00  0.00    -0.273 OA
ATOM      7  N   UNL     1     -37.607  23.647   2.936  0.00  0.00    -0.242 N 
ATOM      8  C   UNL     1     -37.892  24.908   3.595  0.00  0.00    +0.155 C 
ATOM      9  CA  UNL     1     -36.491  24.783   4.231  0.00  0.00    +0.179 C 
ATOM     10  C   UNL     1     -36.478  23.355   3.617  0.00  0.00    +0.251 C 
ATOM     11  CA  UNL     1     -38.381  23.116   1.956  0.00  0.00    +0.124 C 
ATOM     12  C   UNL     1     -39.512  25.351   1.551  0.00  0.00    +0.083 C 
ATOM     13  C   UNL     1     -39.316  23.857   1.312  0.00  0.00    -0.013 C 
ATOM     14  C   UNL     1     -40.269  23.319   0.272  0.00  0.00    +0.029 C 
BRANCH  11  16
ATOM     15  OXT UNL     1     -37.340  21.381   0.708  0.00  0.00    -0.244 OA
ATOM     16  C   UNL     1     -38.116  21.720   1.579  0.00  0.00    +0.351 C 
BRANCH  16  17
ATOM     17  O   UNL     1     -38.862  20.900   2.345  0.00  0.00    -0.476 OA
ATOM     18  H   UNL     1     -38.817  20.961   3.280  0.00  0.00    +0.295 HD
ENDBRANCH  16  17
ENDBRANCH  11  16
ENDBRANCH   2   9
BRANCH   3  20
ATOM     19  N   UNL     1     -32.780  26.337   2.284  0.00  0.00    -0.076 NA
ATOM     20  C   UNL     1     -33.180  26.515   3.507  0.00  0.00    +0.198 C 
BRANCH  20  24
ATOM     21  S   UNL     1     -32.039  30.042   4.823  0.00  0.00    -0.060 S 
ATOM     22  N   UNL     1     -32.323  27.572   5.536  0.00  0.00    -0.383 NA
ATOM     23  N   UNL     1     -31.497  29.016   7.217  0.00  0.00    -0.328 N 
ATOM     24  C   UNL     1     -32.707  27.700   4.231  0.00  0.00    +0.148 C 
ATOM     25  C   UNL     1     -32.634  28.933   3.658  0.00  0.00    +0.127 C 
ATOM     26  C   UNL     1     -31.946  28.758   5.960  0.00  0.00    +0.204 C 
ATOM     27  H   UNL     1     -31.231  29.931   7.466  0.00  0.00    +0.145 HD
ATOM     28  H   UNL     1     -31.440  28.290   7.878  0.00  0.00    +0.145 HD
ENDBRANCH  20  24
BRANCH  19  29
ATOM     29  O   UNL     1     -33.311  25.162   1.729  0.00  0.00    -0.373 OA
ATOM     30  C   UNL     1     -32.691  24.950   0.471  0.00  0.00    +0.288 C 
ENDBRANCH  19  29
ENDBRANCH   3  20
TORSDOF 6
ENDMDL
MODEL 9
REMARK VINA RESULT:      -5.6      2.216      2.778
REMARK  Name = 5487888
REMARK  6 active torsions:
REMARK  status: ('A' for Active; 'I' for Inactive)
REMARK    1  A    between atoms: N_2  and  CA_9
REMARK    2  A    between atoms: C_3  and  C_20
REMARK    3  A    between atoms: CA_11  and  C_16
REMARK    4  A    between atoms: C_16  and  O_17
REMARK    5  A    between atoms: N_19  and  O_29
REMARK    6  A    between atoms: C_20  and  C_24
REMARK                            x       y       z     vdW  Elec       q    Type
REMARK                         _______ _______ _______ _____ _____    ______ ____
ROOT
ATOM      1  O   UNL     1     -37.529  23.158   3.341  0.00  0.00    -0.268 OA
ATOM      2  N   UNL     1     -35.404  23.051   2.349  0.00  0.00    -0.291 N 
ATOM      3  C   UNL     1     -36.358  23.489   3.252  0.00  0.00    +0.269 C 
ATOM      4  H   UNL     1     -34.493  23.418   2.409  0.00  0.00    +0.150 HD
ENDROOT
BRANCH   2   9
ATOM      5  S   UNL     1     -33.194  22.899   0.226  0.00  0.00    -0.114 S 
ATOM      6  O   UNL     1     -35.783  19.819   2.554  0.00  0.00    -0.273 OA
ATOM      7  N   UNL     1     -34.341  20.589   0.855  0.00  0.00    -0.242 N 
ATOM      8  C   UNL     1     -34.658  21.839   0.189  0.00  0.00    +0.155 C 
ATOM      9  CA  UNL     1     -35.696  22.062   1.310  0.00  0.00    +0.179 C 
ATOM     10  C   UNL     1     -35.368  20.602   1.732  0.00  0.00    +0.251 C 
ATOM     11  CA  UNL     1     -33.280  19.807   0.529  0.00  0.00    +0.124 C 
ATOM     12  C   UNL     1     -32.178  21.719  -0.724  0.00  0.00    +0.083 C 
ATOM     13  C   UNL     1     -32.269  20.273  -0.244  0.00  0.00    -0.013 C 
ATOM     14  C   UNL     1     -31.099  19.443  -0.717  0.00  0.00    +0.029 C 
BRANCH  11  16
ATOM     15  OXT UNL     1     -32.379  18.051   1.854  0.00  0.00    -0.244 OA
ATOM     16  C   UNL     1     -33.245  18.454   1.104  0.00  0.00    +0.351 C 
BRANCH  16  17
ATOM     17  O   UNL     1     -34.312  17.755   0.668  0.00  0.00    -0.476 OA
ATOM     18  H   UNL     1     -34.459  16.883   0.977  0.00  0.00    +0.295 HD
ENDBRANCH  16  17
ENDBRANCH  11  16
ENDBRANCH   2   9
BRANCH   3  20
ATOM     19  N   UNL     1     -35.739  24.225   5.488  0.00  0.00    -0.076 NA
ATOM     20  C   UNL     1     -35.822  24.509   4.223  0.00  0.00    +0.198 C 
BRANCH  20  24
ATOM     21  S   UNL     1     -35.219  28.016   2.548  0.00  0.00    -0.060 S 
ATOM     22  N   UNL     1     -34.319  26.428   4.380  0.00  0.00    -0.383 NA
ATOM     23  N   UNL     1     -33.148  28.470   4.155  0.00  0.00    -0.328 N 
ATOM     24  C   UNL     1     -35.391  25.836   3.774  0.00  0.00    +0.148 C 
ATOM     25  C   UNL     1     -36.016  26.513   2.772  0.00  0.00    +0.127 C 
ATOM     26  C   UNL     1     -34.131  27.597   3.809  0.00  0.00    +0.204 C 
ATOM     27  H   UNL     1     -33.066  29.331   3.683  0.00  0.00    +0.145 HD
ATOM     28  H   UNL     1     -32.519  28.242   4.876  0.00  0.00    +0.145 HD
ENDBRANCH  20  24
BRANCH  19  29
ATOM     29  O   UNL     1     -36.193  22.926   5.761  0.00  0.00    -0.373 OA
ATOM     30  C   UNL     1     -35.117  22.192   6.324  0.00  0.00    +0.288 C 
ENDBRANCH  19  29
ENDBRANCH   3  20
TORSDOF 6
ENDMDL
