MODEL 1
REMARK VINA RESULT:      -5.8      0.000      0.000
REMARK  Name = 5281453
REMARK  9 active torsions:
REMARK  status: ('A' for Active; 'I' for Inactive)
REMARK    1  A    between atoms: C_4  and  O_18
REMARK    2  A    between atoms: C_12  and  O_29
REMARK    3  A    between atoms: O_18  and  C_20
REMARK    4  A    between atoms: C_20  and  C_21
REMARK    5  A    between atoms: C_21  and  C_23
REMARK    6  A    between atoms: C_22  and  C_26
REMARK    7  A    between atoms: C_23  and  O_24
REMARK    8  A    between atoms: C_26  and  O_27
REMARK    9  A    between atoms: O_29  and  C_31
REMARK                            x       y       z     vdW  Elec       q    Type
REMARK                         _______ _______ _______ _____ _____    ______ ____
ROOT
ATOM      1  O   UNL     1     -35.951  20.572   2.761  0.00  0.00    -0.444 OA
ATOM      2  O   UNL     1     -36.228  22.296   4.252  0.00  0.00    -0.245 OA
ATOM      3  C   UNL     1     -35.082  21.766   0.870  0.00  0.00    +0.113 C 
ATOM      4  C   UNL     1     -36.102  22.191  -0.220  0.00  0.00    +0.181 C 
ATOM      5  C   UNL     1     -35.306  20.370   1.484  0.00  0.00    +0.198 C 
ATOM      6  C   UNL     1     -35.771  21.681  -1.647  0.00  0.00    +0.066 C 
ATOM      7  C   UNL     1     -35.207  22.619   2.092  0.00  0.00    +0.060 C 
ATOM      8  C   UNL     1     -34.012  19.621   1.717  0.00  0.00    +0.012 C 
ATOM      9  C   UNL     1     -35.594  20.182  -1.760  0.00  0.00    -0.044 C 
ATOM     10  C   UNL     1     -33.569  18.509   1.091  0.00  0.00    -0.005 C 
ATOM     11  C   UNL     1     -35.849  21.863   3.179  0.00  0.00    +0.338 C 
ATOM     12  C   UNL     1     -34.351  17.752   0.023  0.00  0.00    +0.191 C 
ATOM     13  C   UNL     1     -34.040  18.199  -1.420  0.00  0.00    +0.073 C 
ATOM     14  C   UNL     1     -34.364  19.650  -1.627  0.00  0.00    -0.030 C 
ATOM     15  C   UNL     1     -34.779  23.873   2.266  0.00  0.00    +0.002 C 
ATOM     16  C   UNL     1     -36.854  19.381  -1.943  0.00  0.00    +0.026 C 
ATOM     17  C   UNL     1     -32.196  17.976   1.420  0.00  0.00    +0.030 C 
ENDROOT
BRANCH   4  18
ATOM     18  O   UNL     1     -37.424  21.803   0.149  0.00  0.00    -0.449 OA
BRANCH  18  20
ATOM     19  O   UNL     1     -38.751  23.329  -0.950  0.00  0.00    -0.245 OA
ATOM     20  C   UNL     1     -38.374  22.779   0.074  0.00  0.00    +0.339 C 
BRANCH  20  21
ATOM     21  C   UNL     1     -38.900  23.078   1.442  0.00  0.00    +0.081 C 
ATOM     22  C   UNL     1     -38.589  24.292   1.934  0.00  0.00    +0.010 C 
BRANCH  21  23
ATOM     23  C   UNL     1     -39.663  22.012   2.174  0.00  0.00    +0.170 C 
BRANCH  23  24
ATOM     24  O   UNL     1     -38.866  20.837   2.257  0.00  0.00    -0.377 OA
ATOM     25  H   UNL     1     -38.924  20.349   1.421  0.00  0.00    +0.211 HD
ENDBRANCH  23  24
ENDBRANCH  21  23
BRANCH  22  26
ATOM     26  C   UNL     1     -38.991  24.858   3.260  0.00  0.00    +0.163 C 
BRANCH  26  27
ATOM     27  O   UNL     1     -37.911  24.694   4.171  0.00  0.00    -0.377 OA
ATOM     28  H   UNL     1     -37.788  23.751   4.359  0.00  0.00    +0.211 HD
ENDBRANCH  26  27
ENDBRANCH  22  26
ENDBRANCH  20  21
ENDBRANCH  18  20
ENDBRANCH   4  18
BRANCH  12  29
ATOM     29  O   UNL     1     -34.116  16.345   0.137  0.00  0.00    -0.448 OA
BRANCH  29  31
ATOM     30  O   UNL     1     -36.305  15.615   0.062  0.00  0.00    -0.250 OA
ATOM     31  C   UNL     1     -35.135  15.543  -0.285  0.00  0.00    +0.318 C 
ATOM     32  C   UNL     1     -34.608  14.534  -1.260  0.00  0.00    +0.121 C 
ENDBRANCH  29  31
ENDBRANCH  12  29
TORSDOF 9
ENDMDL
MODEL 2
REMARK VINA RESULT:      -5.7      2.300      6.611
REMARK  Name = 5281453
REMARK  9 active torsions:
REMARK  status: ('A' for Active; 'I' for Inactive)
REMARK    1  A    between atoms: C_4  and  O_18
REMARK    2  A    between atoms: C_12  and  O_29
REMARK    3  A    between atoms: O_18  and  C_20
REMARK    4  A    between atoms: C_20  and  C_21
REMARK    5  A    between atoms: C_21  and  C_23
REMARK    6  A    between atoms: C_22  and  C_26
REMARK    7  A    between atoms: C_23  and  O_24
REMARK    8  A    between atoms: C_26  and  O_27
REMARK    9  A    between atoms: O_29  and  C_31
REMARK                            x       y       z     vdW  Elec       q    Type
REMARK                         _______ _______ _______ _____ _____    ______ ____
ROOT
ATOM      1  O   UNL     1     -39.756  21.120   1.484  0.00  0.00    -0.444 OA
ATOM      2  O   UNL     1     -41.463  20.606   0.037  0.00  0.00    -0.245 OA
ATOM      3  C   UNL     1     -38.021  21.690  -0.071  0.00  0.00    +0.113 C 
ATOM      4  C   UNL     1     -37.013  20.569  -0.439  0.00  0.00    +0.181 C 
ATOM      5  C   UNL     1     -38.452  21.738   1.408  0.00  0.00    +0.198 C 
ATOM      6  C   UNL     1     -35.527  20.926  -0.178  0.00  0.00    +0.066 C 
ATOM      7  C   UNL     1     -39.345  21.467  -0.729  0.00  0.00    +0.060 C 
ATOM      8  C   UNL     1     -38.564  23.151   1.937  0.00  0.00    +0.012 C 
ATOM      9  C   UNL     1     -35.217  21.358   1.240  0.00  0.00    -0.044 C 
ATOM     10  C   UNL     1     -37.792  23.757   2.866  0.00  0.00    -0.005 C 
ATOM     11  C   UNL     1     -40.336  21.012   0.258  0.00  0.00    +0.338 C 
ATOM     12  C   UNL     1     -36.649  23.077   3.612  0.00  0.00    +0.191 C 
ATOM     13  C   UNL     1     -35.271  23.247   2.940  0.00  0.00    +0.073 C 
ATOM     14  C   UNL     1     -35.259  22.667   1.556  0.00  0.00    -0.030 C 
ATOM     15  C   UNL     1     -39.672  21.677  -2.007  0.00  0.00    +0.002 C 
ATOM     16  C   UNL     1     -34.954  20.251   2.223  0.00  0.00    +0.026 C 
ATOM     17  C   UNL     1     -38.025  25.214   3.182  0.00  0.00    +0.030 C 
ENDROOT
BRANCH   4  18
ATOM     18  O   UNL     1     -37.351  19.351   0.221  0.00  0.00    -0.449 OA
BRANCH  18  20
ATOM     19  O   UNL     1     -35.770  17.914  -0.636  0.00  0.00    -0.245 OA
ATOM     20  C   UNL     1     -36.932  18.206  -0.389  0.00  0.00    +0.339 C 
BRANCH  20  21
ATOM     21  C   UNL     1     -38.110  17.343  -0.710  0.00  0.00    +0.081 C 
ATOM     22  C   UNL     1     -39.105  17.943  -1.391  0.00  0.00    +0.010 C 
BRANCH  21  23
ATOM     23  C   UNL     1     -38.128  15.926  -0.212  0.00  0.00    +0.170 C 
BRANCH  23  24
ATOM     24  O   UNL     1     -37.085  15.750   0.738  0.00  0.00    -0.377 OA
ATOM     25  H   UNL     1     -36.410  15.160   0.369  0.00  0.00    +0.211 HD
ENDBRANCH  23  24
ENDBRANCH  21  23
BRANCH  22  26
ATOM     26  C   UNL     1     -40.385  17.320  -1.853  0.00  0.00    +0.163 C 
BRANCH  26  27
ATOM     27  O   UNL     1     -41.464  18.163  -1.472  0.00  0.00    -0.377 OA
ATOM     28  H   UNL     1     -41.148  18.827  -0.840  0.00  0.00    +0.211 HD
ENDBRANCH  26  27
ENDBRANCH  22  26
ENDBRANCH  20  21
ENDBRANCH  18  20
ENDBRANCH   4  18
BRANCH  12  29
ATOM     29  O   UNL     1     -36.575  23.559   4.957  0.00  0.00    -0.448 OA
BRANCH  29  31
ATOM     30  O   UNL     1     -34.465  24.104   5.720  0.00  0.00    -0.250 OA
ATOM     31  C   UNL     1     -35.398  23.321   5.603  0.00  0.00    +0.318 C 
ATOM     32  C   UNL     1     -35.405  21.932   6.165  0.00  0.00    +0.121 C 
ENDBRANCH  29  31
ENDBRANCH  12  29
TORSDOF 9
ENDMDL
MODEL 3
REMARK VINA RESULT:      -5.5      4.933      9.187
REMARK  Name = 5281453
REMARK  9 active torsions:
REMARK  status: ('A' for Active; 'I' for Inactive)
REMARK    1  A    between atoms: C_4  and  O_18
REMARK    2  A    between atoms: C_12  and  O_29
REMARK    3  A    between atoms: O_18  and  C_20
REMARK    4  A    between atoms: C_20  and  C_21
REMARK    5  A    between atoms: C_21  and  C_23
REMARK    6  A    between atoms: C_22  and  C_26
REMARK    7  A    between atoms: C_23  and  O_24
REMARK    8  A    between atoms: C_26  and  O_27
REMARK    9  A    between atoms: O_29  and  C_31
REMARK                            x       y       z     vdW  Elec       q    Type
REMARK                         _______ _______ _______ _____ _____    ______ ____
ROOT
ATOM      1  O   UNL     1     -38.155  26.518   2.766  0.00  0.00    -0.444 OA
ATOM      2  O   UNL     1     -38.807  24.542   3.737  0.00  0.00    -0.245 OA
ATOM      3  C   UNL     1     -36.431  25.733   1.294  0.00  0.00    +0.113 C 
ATOM      4  C   UNL     1     -34.971  25.816   1.816  0.00  0.00    +0.181 C 
ATOM      5  C   UNL     1     -37.334  26.929   1.650  0.00  0.00    +0.198 C 
ATOM      6  C   UNL     1     -34.006  26.618   0.905  0.00  0.00    +0.066 C 
ATOM      7  C   UNL     1     -37.182  24.623   1.958  0.00  0.00    +0.060 C 
ATOM      8  C   UNL     1     -38.247  27.330   0.512  0.00  0.00    +0.012 C 
ATOM      9  C   UNL     1     -34.451  28.031   0.595  0.00  0.00    -0.044 C 
ATOM     10  C   UNL     1     -38.216  28.465  -0.221  0.00  0.00    -0.005 C 
ATOM     11  C   UNL     1     -38.144  25.167   2.930  0.00  0.00    +0.338 C 
ATOM     12  C   UNL     1     -37.241  29.614   0.012  0.00  0.00    +0.191 C 
ATOM     13  C   UNL     1     -35.947  29.520  -0.822  0.00  0.00    +0.073 C 
ATOM     14  C   UNL     1     -35.184  28.266  -0.511  0.00  0.00    -0.030 C 
ATOM     15  C   UNL     1     -37.087  23.311   1.722  0.00  0.00    +0.002 C 
ATOM     16  C   UNL     1     -34.092  29.075   1.617  0.00  0.00    +0.026 C 
ATOM     17  C   UNL     1     -39.172  28.621  -1.378  0.00  0.00    +0.030 C 
ENDROOT
BRANCH   4  18
ATOM     18  O   UNL     1     -34.940  26.333   3.145  0.00  0.00    -0.449 OA
BRANCH  18  20
ATOM     19  O   UNL     1     -32.907  25.735   4.043  0.00  0.00    -0.245 OA
ATOM     20  C   UNL     1     -34.128  25.676   4.021  0.00  0.00    +0.339 C 
BRANCH  20  21
ATOM     21  C   UNL     1     -34.956  24.867   4.968  0.00  0.00    +0.081 C 
ATOM     22  C   UNL     1     -34.860  23.531   4.833  0.00  0.00    +0.010 C 
BRANCH  21  23
ATOM     23  C   UNL     1     -35.857  25.582   5.934  0.00  0.00    +0.170 C 
BRANCH  23  24
ATOM     24  O   UNL     1     -36.435  26.710   5.290  0.00  0.00    -0.377 OA
ATOM     25  H   UNL     1     -37.177  26.419   4.737  0.00  0.00    +0.211 HD
ENDBRANCH  23  24
ENDBRANCH  21  23
BRANCH  22  26
ATOM     26  C   UNL     1     -35.560  22.489   5.649  0.00  0.00    +0.163 C 
BRANCH  26  27
ATOM     27  O   UNL     1     -34.623  21.479   5.997  0.00  0.00    -0.377 OA
ATOM     28  H   UNL     1     -34.267  21.659   6.881  0.00  0.00    +0.211 HD
ENDBRANCH  26  27
ENDBRANCH  22  26
ENDBRANCH  20  21
ENDBRANCH  18  20
ENDBRANCH   4  18
BRANCH  12  29
ATOM     29  O   UNL     1     -37.877  30.868  -0.253  0.00  0.00    -0.448 OA
BRANCH  29  31
ATOM     30  O   UNL     1     -39.444  31.820   1.152  0.00  0.00    -0.250 OA
ATOM     31  C   UNL     1     -38.288  31.563   0.847  0.00  0.00    +0.318 C 
ATOM     32  C   UNL     1     -37.094  31.979   1.652  0.00  0.00    +0.121 C 
ENDBRANCH  29  31
ENDBRANCH  12  29
TORSDOF 9
ENDMDL
MODEL 4
REMARK VINA RESULT:      -5.4      3.501      7.753
REMARK  Name = 5281453
REMARK  9 active torsions:
REMARK  status: ('A' for Active; 'I' for Inactive)
REMARK    1  A    between atoms: C_4  and  O_18
REMARK    2  A    between atoms: C_12  and  O_29
REMARK    3  A    between atoms: O_18  and  C_20
REMARK    4  A    between atoms: C_20  and  C_21
REMARK    5  A    between atoms: C_21  and  C_23
REMARK    6  A    between atoms: C_22  and  C_26
REMARK    7  A    between atoms: C_23  and  O_24
REMARK    8  A    between atoms: C_26  and  O_27
REMARK    9  A    between atoms: O_29  and  C_31
REMARK                            x       y       z     vdW  Elec       q    Type
REMARK                         _______ _______ _______ _____ _____    ______ ____
ROOT
ATOM      1  O   UNL     1     -35.281  25.249   0.780  0.00  0.00    -0.444 OA
ATOM      2  O   UNL     1     -35.660  23.762  -0.929  0.00  0.00    -0.245 OA
ATOM      3  C   UNL     1     -34.674  23.740   2.544  0.00  0.00    +0.113 C 
ATOM      4  C   UNL     1     -35.802  23.315   3.522  0.00  0.00    +0.181 C 
ATOM      5  C   UNL     1     -34.699  25.217   2.102  0.00  0.00    +0.198 C 
ATOM      6  C   UNL     1     -35.505  23.606   5.015  0.00  0.00    +0.066 C 
ATOM      7  C   UNL     1     -34.819  23.061   1.219  0.00  0.00    +0.060 C 
ATOM      8  C   UNL     1     -33.316  25.826   2.027  0.00  0.00    +0.012 C 
ATOM      9  C   UNL     1     -35.165  25.048   5.326  0.00  0.00    -0.044 C 
ATOM     10  C   UNL     1     -32.788  26.793   2.810  0.00  0.00    -0.005 C 
ATOM     11  C   UNL     1     -35.301  24.014   0.207  0.00  0.00    +0.338 C 
ATOM     12  C   UNL     1     -33.544  27.506   3.926  0.00  0.00    +0.191 C 
ATOM     13  C   UNL     1     -33.376  26.854   5.314  0.00  0.00    +0.073 C 
ATOM     14  C   UNL     1     -33.876  25.440   5.320  0.00  0.00    -0.030 C 
ATOM     15  C   UNL     1     -34.527  21.795   0.909  0.00  0.00    +0.002 C 
ATOM     16  C   UNL     1     -36.334  25.968   5.548  0.00  0.00    +0.026 C 
ATOM     17  C   UNL     1     -31.346  27.192   2.616  0.00  0.00    +0.030 C 
ENDROOT
BRANCH   4  18
ATOM     18  O   UNL     1     -37.046  23.901   3.142  0.00  0.00    -0.449 OA
BRANCH  18  20
ATOM     19  O   UNL     1     -37.839  21.837   2.502  0.00  0.00    -0.245 OA
ATOM     20  C   UNL     1     -37.977  23.045   2.634  0.00  0.00    +0.339 C 
BRANCH  20  21
ATOM     21  C   UNL     1     -39.213  23.803   2.265  0.00  0.00    +0.081 C 
ATOM     22  C   UNL     1     -39.442  24.925   2.973  0.00  0.00    +0.010 C 
BRANCH  21  23
ATOM     23  C   UNL     1     -40.117  23.242   1.205  0.00  0.00    +0.170 C 
BRANCH  23  24
ATOM     24  O   UNL     1     -40.439  21.896   1.526  0.00  0.00    -0.377 OA
ATOM     25  H   UNL     1     -40.260  21.330   0.759  0.00  0.00    +0.211 HD
ENDBRANCH  23  24
ENDBRANCH  21  23
BRANCH  22  26
ATOM     26  C   UNL     1     -40.585  25.877   2.809  0.00  0.00    +0.163 C 
BRANCH  26  27
ATOM     27  O   UNL     1     -40.593  26.773   3.912  0.00  0.00    -0.377 OA
ATOM     28  H   UNL     1     -40.089  27.569   3.685  0.00  0.00    +0.211 HD
ENDBRANCH  26  27
ENDBRANCH  22  26
ENDBRANCH  20  21
ENDBRANCH  18  20
ENDBRANCH   4  18
BRANCH  12  29
ATOM     29  O   UNL     1     -33.143  28.878   4.002  0.00  0.00    -0.448 OA
BRANCH  29  31
ATOM     30  O   UNL     1     -35.130  29.636   3.102  0.00  0.00    -0.250 OA
ATOM     31  C   UNL     1     -33.934  29.759   3.326  0.00  0.00    +0.318 C 
ATOM     32  C   UNL     1     -33.113  30.933   2.885  0.00  0.00    +0.121 C 
ENDBRANCH  29  31
ENDBRANCH  12  29
TORSDOF 9
ENDMDL
MODEL 5
REMARK VINA RESULT:      -5.3      1.768      2.797
REMARK  Name = 5281453
REMARK  9 active torsions:
REMARK  status: ('A' for Active; 'I' for Inactive)
REMARK    1  A    between atoms: C_4  and  O_18
REMARK    2  A    between atoms: C_12  and  O_29
REMARK    3  A    between atoms: O_18  and  C_20
REMARK    4  A    between atoms: C_20  and  C_21
REMARK    5  A    between atoms: C_21  and  C_23
REMARK    6  A    between atoms: C_22  and  C_26
REMARK    7  A    between atoms: C_23  and  O_24
REMARK    8  A    between atoms: C_26  and  O_27
REMARK    9  A    between atoms: O_29  and  C_31
REMARK                            x       y       z     vdW  Elec       q    Type
REMARK                         _______ _______ _______ _____ _____    ______ ____
ROOT
ATOM      1  O   UNL     1     -36.000  20.979   3.914  0.00  0.00    -0.444 OA
ATOM      2  O   UNL     1     -35.805  22.144   5.883  0.00  0.00    -0.245 OA
ATOM      3  C   UNL     1     -35.292  22.650   2.345  0.00  0.00    +0.113 C 
ATOM      4  C   UNL     1     -36.407  23.480   1.654  0.00  0.00    +0.181 C 
ATOM      5  C   UNL     1     -35.600  21.152   2.536  0.00  0.00    +0.198 C 
ATOM      6  C   UNL     1     -36.378  23.435   0.105  0.00  0.00    +0.066 C 
ATOM      7  C   UNL     1     -35.107  23.069   3.769  0.00  0.00    +0.060 C 
ATOM      8  C   UNL     1     -34.397  20.272   2.277  0.00  0.00    +0.012 C 
ATOM      9  C   UNL     1     -36.423  22.044  -0.491  0.00  0.00    -0.044 C 
ATOM     10  C   UNL     1     -34.211  19.391   1.269  0.00  0.00    -0.005 C 
ATOM     11  C   UNL     1     -35.662  22.053   4.677  0.00  0.00    +0.338 C 
ATOM     12  C   UNL     1     -35.246  19.081   0.194  0.00  0.00    +0.191 C 
ATOM     13  C   UNL     1     -35.112  19.946  -1.077  0.00  0.00    +0.073 C 
ATOM     14  C   UNL     1     -35.269  21.406  -0.766  0.00  0.00    -0.030 C 
ATOM     15  C   UNL     1     -34.493  24.163   4.229  0.00  0.00    +0.002 C 
ATOM     16  C   UNL     1     -37.791  21.443  -0.662  0.00  0.00    +0.026 C 
ATOM     17  C   UNL     1     -32.886  18.678   1.149  0.00  0.00    +0.030 C 
ENDROOT
BRANCH   4  18
ATOM     18  O   UNL     1     -37.694  23.096   2.136  0.00  0.00    -0.449 OA
BRANCH  18  20
ATOM     19  O   UNL     1     -38.189  24.375   3.984  0.00  0.00    -0.245 OA
ATOM     20  C   UNL     1     -38.383  24.051   2.821  0.00  0.00    +0.339 C 
BRANCH  20  21
ATOM     21  C   UNL     1     -39.420  24.661   1.932  0.00  0.00    +0.081 C 
ATOM     22  C   UNL     1     -40.085  23.802   1.136  0.00  0.00    +0.010 C 
BRANCH  21  23
ATOM     23  C   UNL     1     -39.600  26.152   1.945  0.00  0.00    +0.170 C 
BRANCH  23  24
ATOM     24  O   UNL     1     -39.639  26.608   3.291  0.00  0.00    -0.377 OA
ATOM     25  H   UNL     1     -40.307  26.105   3.782  0.00  0.00    +0.211 HD
ENDBRANCH  23  24
ENDBRANCH  21  23
BRANCH  22  26
ATOM     26  C   UNL     1     -41.175  24.131   0.165  0.00  0.00    +0.163 C 
BRANCH  26  27
ATOM     27  O   UNL     1     -42.426  24.023   0.831  0.00  0.00    -0.377 OA
ATOM     28  H   UNL     1     -43.135  24.306   0.234  0.00  0.00    +0.211 HD
ENDBRANCH  26  27
ENDBRANCH  22  26
ENDBRANCH  20  21
ENDBRANCH  18  20
ENDBRANCH   4  18
BRANCH  12  29
ATOM     29  O   UNL     1     -35.185  17.700  -0.173  0.00  0.00    -0.448 OA
BRANCH  29  31
ATOM     30  O   UNL     1     -36.158  16.754  -2.042  0.00  0.00    -0.250 OA
ATOM     31  C   UNL     1     -36.229  17.244  -0.923  0.00  0.00    +0.318 C 
ATOM     32  C   UNL     1     -37.510  17.431  -0.167  0.00  0.00    +0.121 C 
ENDBRANCH  29  31
ENDBRANCH  12  29
TORSDOF 9
ENDMDL
MODEL 6
REMARK VINA RESULT:      -5.3      3.185      6.651
REMARK  Name = 5281453
REMARK  9 active torsions:
REMARK  status: ('A' for Active; 'I' for Inactive)
REMARK    1  A    between atoms: C_4  and  O_18
REMARK    2  A    between atoms: C_12  and  O_29
REMARK    3  A    between atoms: O_18  and  C_20
REMARK    4  A    between atoms: C_20  and  C_21
REMARK    5  A    between atoms: C_21  and  C_23
REMARK    6  A    between atoms: C_22  and  C_26
REMARK    7  A    between atoms: C_23  and  O_24
REMARK    8  A    between atoms: C_26  and  O_27
REMARK    9  A    between atoms: O_29  and  C_31
REMARK                            x       y       z     vdW  Elec       q    Type
REMARK                         _______ _______ _______ _____ _____    ______ ____
ROOT
ATOM      1  O   UNL     1     -37.377  21.896   2.023  0.00  0.00    -0.444 OA
ATOM      2  O   UNL     1     -35.891  20.366   2.873  0.00  0.00    -0.245 OA
ATOM      3  C   UNL     1     -35.935  23.145   0.568  0.00  0.00    +0.113 C 
ATOM      4  C   UNL     1     -35.325  24.453   1.139  0.00  0.00    +0.181 C 
ATOM      5  C   UNL     1     -37.401  22.870   0.955  0.00  0.00    +0.198 C 
ATOM      6  C   UNL     1     -35.622  25.723   0.300  0.00  0.00    +0.066 C 
ATOM      7  C   UNL     1     -35.272  21.937   1.152  0.00  0.00    +0.060 C 
ATOM      8  C   UNL     1     -38.209  22.300  -0.190  0.00  0.00    +0.012 C 
ATOM      9  C   UNL     1     -37.091  25.987   0.047  0.00  0.00    -0.044 C 
ATOM     10  C   UNL     1     -39.225  22.882  -0.864  0.00  0.00    -0.005 C 
ATOM     11  C   UNL     1     -36.167  21.281   2.118  0.00  0.00    +0.338 C 
ATOM     12  C   UNL     1     -39.793  24.261  -0.543  0.00  0.00    +0.191 C 
ATOM     13  C   UNL     1     -39.141  25.409  -1.340  0.00  0.00    +0.073 C 
ATOM     14  C   UNL     1     -37.668  25.500  -1.068  0.00  0.00    -0.030 C 
ATOM     15  C   UNL     1     -34.071  21.436   0.854  0.00  0.00    +0.002 C 
ATOM     16  C   UNL     1     -37.823  26.730   1.131  0.00  0.00    +0.026 C 
ATOM     17  C   UNL     1     -39.836  22.163  -2.041  0.00  0.00    +0.030 C 
ENDROOT
BRANCH   4  18
ATOM     18  O   UNL     1     -35.730  24.649   2.492  0.00  0.00    -0.449 OA
BRANCH  18  20
ATOM     19  O   UNL     1     -33.607  25.228   3.170  0.00  0.00    -0.245 OA
ATOM     20  C   UNL     1     -34.723  24.783   3.402  0.00  0.00    +0.339 C 
BRANCH  20  21
ATOM     21  C   UNL     1     -35.186  24.310   4.743  0.00  0.00    +0.081 C 
ATOM     22  C   UNL     1     -35.008  22.999   4.993  0.00  0.00    +0.010 C 
BRANCH  21  23
ATOM     23  C   UNL     1     -35.855  25.289   5.665  0.00  0.00    +0.170 C 
BRANCH  23  24
ATOM     24  O   UNL     1     -35.854  26.577   5.063  0.00  0.00    -0.377 OA
ATOM     25  H   UNL     1     -34.948  26.813   4.809  0.00  0.00    +0.211 HD
ENDBRANCH  23  24
ENDBRANCH  21  23
BRANCH  22  26
ATOM     26  C   UNL     1     -35.363  22.264   6.247  0.00  0.00    +0.163 C 
BRANCH  26  27
ATOM     27  O   UNL     1     -35.436  20.874   5.955  0.00  0.00    -0.377 OA
ATOM     28  H   UNL     1     -35.074  20.711   5.070  0.00  0.00    +0.211 HD
ENDBRANCH  26  27
ENDBRANCH  22  26
ENDBRANCH  20  21
ENDBRANCH  18  20
ENDBRANCH   4  18
BRANCH  12  29
ATOM     29  O   UNL     1     -41.206  24.281  -0.765  0.00  0.00    -0.448 OA
BRANCH  29  31
ATOM     30  O   UNL     1     -43.151  23.978   0.444  0.00  0.00    -0.250 OA
ATOM     31  C   UNL     1     -41.977  24.313   0.360  0.00  0.00    +0.318 C 
ATOM     32  C   UNL     1     -41.166  24.828   1.509  0.00  0.00    +0.121 C 
ENDBRANCH  29  31
ENDBRANCH  12  29
TORSDOF 9
ENDMDL
MODEL 7
REMARK VINA RESULT:      -5.2      4.439      7.468
REMARK  Name = 5281453
REMARK  9 active torsions:
REMARK  status: ('A' for Active; 'I' for Inactive)
REMARK    1  A    between atoms: C_4  and  O_18
REMARK    2  A    between atoms: C_12  and  O_29
REMARK    3  A    between atoms: O_18  and  C_20
REMARK    4  A    between atoms: C_20  and  C_21
REMARK    5  A    between atoms: C_21  and  C_23
REMARK    6  A    between atoms: C_22  and  C_26
REMARK    7  A    between atoms: C_23  and  O_24
REMARK    8  A    between atoms: C_26  and  O_27
REMARK    9  A    between atoms: O_29  and  C_31
REMARK                            x       y       z     vdW  Elec       q    Type
REMARK                         _______ _______ _______ _____ _____    ______ ____
ROOT
ATOM      1  O   UNL     1     -33.843  26.316   1.131  0.00  0.00    -0.444 OA
ATOM      2  O   UNL     1     -33.224  28.418   0.444  0.00  0.00    -0.245 OA
ATOM      3  C   UNL     1     -35.474  26.865   2.802  0.00  0.00    +0.113 C 
ATOM      4  C   UNL     1     -34.982  26.911   4.274  0.00  0.00    +0.181 C 
ATOM      5  C   UNL     1     -34.888  25.731   1.939  0.00  0.00    +0.198 C 
ATOM      6  C   UNL     1     -35.759  25.982   5.243  0.00  0.00    +0.066 C 
ATOM      7  C   UNL     1     -35.000  28.058   2.035  0.00  0.00    +0.060 C 
ATOM      8  C   UNL     1     -35.913  25.111   1.015  0.00  0.00    +0.012 C 
ATOM      9  C   UNL     1     -35.801  24.526   4.830  0.00  0.00    -0.044 C 
ATOM     10  C   UNL     1     -36.432  23.864   1.063  0.00  0.00    -0.005 C 
ATOM     11  C   UNL     1     -33.923  27.674   1.108  0.00  0.00    +0.338 C 
ATOM     12  C   UNL     1     -36.022  22.799   2.073  0.00  0.00    +0.191 C 
ATOM     13  C   UNL     1     -36.892  22.773   3.347  0.00  0.00    +0.073 C 
ATOM     14  C   UNL     1     -36.828  24.080   4.082  0.00  0.00    -0.030 C 
ATOM     15  C   UNL     1     -35.468  29.308   2.089  0.00  0.00    +0.002 C 
ATOM     16  C   UNL     1     -34.618  23.691   5.238  0.00  0.00    +0.026 C 
ATOM     17  C   UNL     1     -37.519  23.482   0.088  0.00  0.00    +0.030 C 
ENDROOT
BRANCH   4  18
ATOM     18  O   UNL     1     -33.583  26.641   4.346  0.00  0.00    -0.449 OA
BRANCH  18  20
ATOM     19  O   UNL     1     -32.836  27.555   6.322  0.00  0.00    -0.245 OA
ATOM     20  C   UNL     1     -32.848  27.507   5.100  0.00  0.00    +0.339 C 
BRANCH  20  21
ATOM     21  C   UNL     1     -32.042  28.395   4.207  0.00  0.00    +0.081 C 
ATOM     22  C   UNL     1     -32.446  29.678   4.141  0.00  0.00    +0.010 C 
BRANCH  21  23
ATOM     23  C   UNL     1     -30.909  27.799   3.423  0.00  0.00    +0.170 C 
BRANCH  23  24
ATOM     24  O   UNL     1     -31.314  26.543   2.894  0.00  0.00    -0.377 OA
ATOM     25  H   UNL     1     -32.186  26.311   3.249  0.00  0.00    +0.211 HD
ENDBRANCH  23  24
ENDBRANCH  21  23
BRANCH  22  26
ATOM     26  C   UNL     1     -31.822  30.780   3.344  0.00  0.00    +0.163 C 
BRANCH  26  27
ATOM     27  O   UNL     1     -32.305  30.706   2.009  0.00  0.00    -0.377 OA
ATOM     28  H   UNL     1     -32.213  31.573   1.584  0.00  0.00    +0.211 HD
ENDBRANCH  26  27
ENDBRANCH  22  26
ENDBRANCH  20  21
ENDBRANCH  18  20
ENDBRANCH   4  18
BRANCH  12  29
ATOM     29  O   UNL     1     -36.043  21.503   1.467  0.00  0.00    -0.448 OA
BRANCH  29  31
ATOM     30  O   UNL     1     -34.796  19.970   2.661  0.00  0.00    -0.250 OA
ATOM     31  C   UNL     1     -34.951  20.723   1.710  0.00  0.00    +0.318 C 
ATOM     32  C   UNL     1     -33.942  20.920   0.620  0.00  0.00    +0.121 C 
ENDBRANCH  29  31
ENDBRANCH  12  29
TORSDOF 9
ENDMDL
MODEL 8
REMARK VINA RESULT:      -5.2      2.764      4.369
REMARK  Name = 5281453
REMARK  9 active torsions:
REMARK  status: ('A' for Active; 'I' for Inactive)
REMARK    1  A    between atoms: C_4  and  O_18
REMARK    2  A    between atoms: C_12  and  O_29
REMARK    3  A    between atoms: O_18  and  C_20
REMARK    4  A    between atoms: C_20  and  C_21
REMARK    5  A    between atoms: C_21  and  C_23
REMARK    6  A    between atoms: C_22  and  C_26
REMARK    7  A    between atoms: C_23  and  O_24
REMARK    8  A    between atoms: C_26  and  O_27
REMARK    9  A    between atoms: O_29  and  C_31
REMARK                            x       y       z     vdW  Elec       q    Type
REMARK                         _______ _______ _______ _____ _____    ______ ____
ROOT
ATOM      1  O   UNL     1     -33.624  24.282   1.594  0.00  0.00    -0.444 OA
ATOM      2  O   UNL     1     -33.619  26.515   2.130  0.00  0.00    -0.245 OA
ATOM      3  C   UNL     1     -35.861  24.039   0.761  0.00  0.00    +0.113 C 
ATOM      4  C   UNL     1     -36.931  23.527   1.764  0.00  0.00    +0.181 C 
ATOM      5  C   UNL     1     -34.477  23.370   0.867  0.00  0.00    +0.198 C 
ATOM      6  C   UNL     1     -37.684  22.251   1.307  0.00  0.00    +0.066 C 
ATOM      7  C   UNL     1     -35.493  25.462   1.039  0.00  0.00    +0.060 C 
ATOM      8  C   UNL     1     -33.850  23.109  -0.486  0.00  0.00    +0.012 C 
ATOM      9  C   UNL     1     -36.794  21.076   0.966  0.00  0.00    -0.044 C 
ATOM     10  C   UNL     1     -33.609  21.918  -1.077  0.00  0.00    -0.005 C 
ATOM     11  C   UNL     1     -34.157  25.533   1.652  0.00  0.00    +0.338 C 
ATOM     12  C   UNL     1     -33.895  20.565  -0.436  0.00  0.00    +0.191 C 
ATOM     13  C   UNL     1     -35.287  19.992  -0.771  0.00  0.00    +0.073 C 
ATOM     14  C   UNL     1     -36.383  20.905  -0.306  0.00  0.00    -0.030 C 
ATOM     15  C   UNL     1     -36.196  26.561   0.756  0.00  0.00    +0.002 C 
ATOM     16  C   UNL     1     -36.368  20.213   2.122  0.00  0.00    +0.026 C 
ATOM     17  C   UNL     1     -33.054  21.892  -2.480  0.00  0.00    +0.030 C 
ENDROOT
BRANCH   4  18
ATOM     18  O   UNL     1     -36.357  23.328   3.054  0.00  0.00    -0.449 OA
BRANCH  18  20
ATOM     19  O   UNL     1     -37.925  24.640   4.111  0.00  0.00    -0.245 OA
ATOM     20  C   UNL     1     -36.804  24.157   4.039  0.00  0.00    +0.339 C 
BRANCH  20  21
ATOM     21  C   UNL     1     -35.715  24.389   5.038  0.00  0.00    +0.081 C 
ATOM     22  C   UNL     1     -35.215  25.638   5.077  0.00  0.00    +0.010 C 
BRANCH  21  23
ATOM     23  C   UNL     1     -35.228  23.230   5.860  0.00  0.00    +0.170 C 
BRANCH  23  24
ATOM     24  O   UNL     1     -36.125  22.138   5.710  0.00  0.00    -0.377 OA
ATOM     25  H   UNL     1     -35.935  21.676   4.879  0.00  0.00    +0.211 HD
ENDBRANCH  23  24
ENDBRANCH  21  23
BRANCH  22  26
ATOM     26  C   UNL     1     -34.138  26.150   5.981  0.00  0.00    +0.163 C 
BRANCH  26  27
ATOM     27  O   UNL     1     -33.029  26.549   5.187  0.00  0.00    -0.377 OA
ATOM     28  H   UNL     1     -33.346  26.875   4.330  0.00  0.00    +0.211 HD
ENDBRANCH  26  27
ENDBRANCH  22  26
ENDBRANCH  20  21
ENDBRANCH  18  20
ENDBRANCH   4  18
BRANCH  12  29
ATOM     29  O   UNL     1     -32.895  19.614  -0.814  0.00  0.00    -0.448 OA
BRANCH  29  31
ATOM     30  O   UNL     1     -30.782  19.674   0.119  0.00  0.00    -0.250 OA
ATOM     31  C   UNL     1     -31.958  19.336   0.138  0.00  0.00    +0.318 C 
ATOM     32  C   UNL     1     -32.586  18.540   1.242  0.00  0.00    +0.121 C 
ENDBRANCH  29  31
ENDBRANCH  12  29
TORSDOF 9
ENDMDL
MODEL 9
REMARK VINA RESULT:      -5.0      5.017      8.726
REMARK  Name = 5281453
REMARK  9 active torsions:
REMARK  status: ('A' for Active; 'I' for Inactive)
REMARK    1  A    between atoms: C_4  and  O_18
REMARK    2  A    between atoms: C_12  and  O_29
REMARK    3  A    between atoms: O_18  and  C_20
REMARK    4  A    between atoms: C_20  and  C_21
REMARK    5  A    between atoms: C_21  and  C_23
REMARK    6  A    between atoms: C_22  and  C_26
REMARK    7  A    between atoms: C_23  and  O_24
REMARK    8  A    between atoms: C_26  and  O_27
REMARK    9  A    between atoms: O_29  and  C_31
REMARK                            x       y       z     vdW  Elec       q    Type
REMARK                         _______ _______ _______ _____ _____    ______ ____
ROOT
ATOM      1  O   UNL     1     -33.395  25.087   5.211  0.00  0.00    -0.444 OA
ATOM      2  O   UNL     1     -35.066  23.639   5.830  0.00  0.00    -0.245 OA
ATOM      3  C   UNL     1     -34.662  26.721   3.994  0.00  0.00    +0.113 C 
ATOM      4  C   UNL     1     -34.724  26.554   2.451  0.00  0.00    +0.181 C 
ATOM      5  C   UNL     1     -33.298  26.413   4.642  0.00  0.00    +0.198 C 
ATOM      6  C   UNL     1     -34.237  27.789   1.649  0.00  0.00    +0.066 C 
ATOM      7  C   UNL     1     -35.522  25.711   4.684  0.00  0.00    +0.060 C 
ATOM      8  C   UNL     1     -32.946  27.381   5.751  0.00  0.00    +0.012 C 
ATOM      9  C   UNL     1     -32.839  28.258   1.992  0.00  0.00    -0.044 C 
ATOM     10  C   UNL     1     -31.961  28.306   5.768  0.00  0.00    -0.005 C 
ATOM     11  C   UNL     1     -34.687  24.676   5.315  0.00  0.00    +0.338 C 
ATOM     12  C   UNL     1     -30.955  28.513   4.641  0.00  0.00    +0.191 C 
ATOM     13  C   UNL     1     -31.381  29.574   3.606  0.00  0.00    +0.073 C 
ATOM     14  C   UNL     1     -32.672  29.203   2.938  0.00  0.00    -0.030 C 
ATOM     15  C   UNL     1     -36.852  25.707   4.799  0.00  0.00    +0.002 C 
ATOM     16  C   UNL     1     -31.715  27.557   1.281  0.00  0.00    +0.026 C 
ATOM     17  C   UNL     1     -31.845  29.236   6.950  0.00  0.00    +0.030 C 
ENDROOT
BRANCH   4  18
ATOM     18  O   UNL     1     -34.013  25.387   2.042  0.00  0.00    -0.449 OA
BRANCH  18  20
ATOM     19  O   UNL     1     -34.187  24.889  -0.198  0.00  0.00    -0.245 OA
ATOM     20  C   UNL     1     -34.525  24.725   0.966  0.00  0.00    +0.339 C 
BRANCH  20  21
ATOM     21  C   UNL     1     -35.566  23.752   1.419  0.00  0.00    +0.081 C 
ATOM     22  C   UNL     1     -35.153  22.825   2.303  0.00  0.00    +0.010 C 
BRANCH  21  23
ATOM     23  C   UNL     1     -36.943  23.836   0.825  0.00  0.00    +0.170 C 
BRANCH  23  24
ATOM     24  O   UNL     1     -37.799  24.531   1.722  0.00  0.00    -0.377 OA
ATOM     25  H   UNL     1     -37.494  24.391   2.632  0.00  0.00    +0.211 HD
ENDBRANCH  23  24
ENDBRANCH  21  23
BRANCH  22  26
ATOM     26  C   UNL     1     -35.978  21.745   2.930  0.00  0.00    +0.163 C 
BRANCH  26  27
ATOM     27  O   UNL     1     -36.915  22.344   3.816  0.00  0.00    -0.377 OA
ATOM     28  H   UNL     1     -36.931  21.852   4.651  0.00  0.00    +0.211 HD
ENDBRANCH  26  27
ENDBRANCH  22  26
ENDBRANCH  20  21
ENDBRANCH  18  20
ENDBRANCH   4  18
BRANCH  12  29
ATOM     29  O   UNL     1     -29.676  28.868   5.175  0.00  0.00    -0.448 OA
BRANCH  29  31
ATOM     30  O   UNL     1     -28.467  27.031   4.470  0.00  0.00    -0.250 OA
ATOM     31  C   UNL     1     -28.797  27.837   5.329  0.00  0.00    +0.318 C 
ATOM     32  C   UNL     1     -28.276  27.828   6.734  0.00  0.00    +0.121 C 
ENDBRANCH  29  31
ENDBRANCH  12  29
TORSDOF 9
ENDMDL
