MODEL 1
REMARK VINA RESULT:      -7.0      0.000      0.000
REMARK  Name = 56681504
REMARK  7 active torsions:
REMARK  status: ('A' for Active; 'I' for Inactive)
REMARK    1  A    between atoms: C_3  and  C_27
REMARK    2  A    between atoms: C_5  and  O_36
REMARK    3  A    between atoms: C_10  and  O_38
REMARK    4  A    between atoms: C_18  and  O_40
REMARK    5  A    between atoms: C_23  and  C_33
REMARK    6  A    between atoms: C_24  and  N_29
REMARK    7  A    between atoms: C_33  and  O_34
REMARK                            x       y       z     vdW  Elec       q    Type
REMARK                         _______ _______ _______ _____ _____    ______ ____
ROOT
ATOM      1  O   UNL     1     -41.182  27.375   2.906  0.00  0.00    -0.286 OA
ATOM      2  O   UNL     1     -42.431  23.288  -0.200  0.00  0.00    -0.287 OA
ATOM      3  C   UNL     1     -38.261  24.455   2.446  0.00  0.00    +0.038 A 
ATOM      4  C   UNL     1     -38.547  23.288   1.729  0.00  0.00    +0.004 A 
ATOM      5  C   UNL     1     -39.228  25.435   2.634  0.00  0.00    +0.135 A 
ATOM      6  C   UNL     1     -39.837  23.092   1.162  0.00  0.00    +0.037 A 
ATOM      7  C   UNL     1     -40.500  25.276   2.085  0.00  0.00    +0.076 A 
ATOM      8  C   UNL     1     -40.812  24.132   1.331  0.00  0.00    +0.048 A 
ATOM      9  C   UNL     1     -37.541  22.318   1.588  0.00  0.00    -0.004 C 
ATOM     10  C   UNL     1     -40.038  21.856   0.489  0.00  0.00    +0.133 C 
ATOM     11  C   UNL     1     -41.498  26.338   2.337  0.00  0.00    +0.202 C 
ATOM     12  C   UNL     1     -42.165  24.075   0.699  0.00  0.00    +0.196 C 
ATOM     13  C   UNL     1     -37.777  21.130   0.905  0.00  0.00    -0.019 C 
ATOM     14  C   UNL     1     -42.890  26.125   1.911  0.00  0.00    +0.076 C 
ATOM     15  C   UNL     1     -43.214  25.023   1.125  0.00  0.00    +0.045 C 
ATOM     16  C   UNL     1     -39.028  20.897   0.360  0.00  0.00    +0.032 C 
ATOM     17  C   UNL     1     -36.698  20.110   0.773  0.00  0.00    +0.031 C 
ATOM     18  C   UNL     1     -43.884  27.036   2.289  0.00  0.00    +0.137 C 
ATOM     19  C   UNL     1     -44.538  24.830   0.712  0.00  0.00    +0.003 C 
ATOM     20  C   UNL     1     -45.202  26.837   1.880  0.00  0.00    +0.037 C 
ATOM     21  C   UNL     1     -45.529  25.735   1.093  0.00  0.00    +0.003 C 
ENDROOT
BRANCH   3  27
ATOM     22  O   UNL     1     -36.376  25.926   2.561  0.00  0.00    -0.354 OA
ATOM     23  C   UNL     1     -35.037  26.330   4.561  0.00  0.00    +0.037 C 
ATOM     24  C   UNL     1     -35.610  25.048   5.217  0.00  0.00    -0.054 C 
ATOM     25  C   UNL     1     -36.975  24.728   4.593  0.00  0.00    +0.013 C 
ATOM     26  C   UNL     1     -35.046  26.205   3.021  0.00  0.00    +0.116 C 
ATOM     27  C   UNL     1     -36.898  24.690   3.060  0.00  0.00    +0.138 C 
ATOM     28  C   UNL     1     -34.610  27.488   2.319  0.00  0.00    +0.032 C 
BRANCH  24  29
ATOM     29  N   UNL     1     -34.718  23.896   5.060  0.00  0.00    +0.384 N 
ATOM     30  C   UNL     1     -35.187  22.774   5.857  0.00  0.00    -0.106 C 
ATOM     31  H   UNL     1     -33.779  24.153   5.365  0.00  0.00    -0.085 HD
ATOM     32  H   UNL     1     -34.707  23.620   4.078  0.00  0.00    -0.085 HD
ENDBRANCH  24  29
BRANCH  23  33
ATOM     33  C   UNL     1     -33.660  26.699   5.122  0.00  0.00    +0.137 C 
BRANCH  33  34
ATOM     34  O   UNL     1     -33.687  26.517   6.524  0.00  0.00    -0.382 OA
ATOM     35  H   UNL     1     -34.608  26.509   6.831  0.00  0.00    +0.210 HD
ENDBRANCH  33  34
ENDBRANCH  23  33
ENDBRANCH   3  27
BRANCH   5  36
ATOM     36  O   UNL     1     -38.883  26.531   3.375  0.00  0.00    -0.506 OA
ATOM     37  H   UNL     1     -38.252  27.139   3.044  0.00  0.00    +0.292 HD
ENDBRANCH   5  36
BRANCH  10  38
ATOM     38  O   UNL     1     -41.249  21.409   0.043  0.00  0.00    -0.506 OA
ATOM     39  H   UNL     1     -41.688  20.715   0.494  0.00  0.00    +0.292 HD
ENDBRANCH  10  38
BRANCH  18  40
ATOM     40  O   UNL     1     -43.633  28.128   3.066  0.00  0.00    -0.505 OA
ATOM     41  H   UNL     1     -43.607  28.981   2.680  0.00  0.00    +0.292 HD
ENDBRANCH  18  40
TORSDOF 7
ENDMDL
MODEL 2
REMARK VINA RESULT:      -6.7      3.948      7.049
REMARK  Name = 56681504
REMARK  7 active torsions:
REMARK  status: ('A' for Active; 'I' for Inactive)
REMARK    1  A    between atoms: C_3  and  C_27
REMARK    2  A    between atoms: C_5  and  O_36
REMARK    3  A    between atoms: C_10  and  O_38
REMARK    4  A    between atoms: C_18  and  O_40
REMARK    5  A    between atoms: C_23  and  C_33
REMARK    6  A    between atoms: C_24  and  N_29
REMARK    7  A    between atoms: C_33  and  O_34
REMARK                            x       y       z     vdW  Elec       q    Type
REMARK                         _______ _______ _______ _____ _____    ______ ____
ROOT
ATOM      1  O   UNL     1     -43.020  29.744   5.625  0.00  0.00    -0.286 OA
ATOM      2  O   UNL     1     -47.665  27.228   5.708  0.00  0.00    -0.287 OA
ATOM      3  C   UNL     1     -43.521  26.715   2.823  0.00  0.00    +0.038 A 
ATOM      4  C   UNL     1     -44.677  25.928   2.846  0.00  0.00    +0.004 A 
ATOM      5  C   UNL     1     -43.319  27.718   3.764  0.00  0.00    +0.135 A 
ATOM      6  C   UNL     1     -45.680  26.152   3.829  0.00  0.00    +0.037 A 
ATOM      7  C   UNL     1     -44.287  27.968   4.736  0.00  0.00    +0.076 A 
ATOM      8  C   UNL     1     -45.475  27.220   4.769  0.00  0.00    +0.048 A 
ATOM      9  C   UNL     1     -44.821  24.911   1.886  0.00  0.00    -0.004 C 
ATOM     10  C   UNL     1     -46.795  25.272   3.792  0.00  0.00    +0.133 C 
ATOM     11  C   UNL     1     -44.010  29.031   5.728  0.00  0.00    +0.202 C 
ATOM     12  C   UNL     1     -46.503  27.606   5.782  0.00  0.00    +0.196 C 
ATOM     13  C   UNL     1     -45.939  24.084   1.877  0.00  0.00    -0.019 C 
ATOM     14  C   UNL     1     -44.933  29.209   6.859  0.00  0.00    +0.076 C 
ATOM     15  C   UNL     1     -46.137  28.511   6.889  0.00  0.00    +0.045 C 
ATOM     16  C   UNL     1     -46.923  24.262   2.833  0.00  0.00    +0.032 C 
ATOM     17  C   UNL     1     -46.069  23.007   0.855  0.00  0.00    +0.031 C 
ATOM     18  C   UNL     1     -44.603  30.088   7.898  0.00  0.00    +0.137 C 
ATOM     19  C   UNL     1     -47.018  28.692   7.962  0.00  0.00    +0.003 C 
ATOM     20  C   UNL     1     -45.481  30.262   8.968  0.00  0.00    +0.037 C 
ATOM     21  C   UNL     1     -46.687  29.564   9.000  0.00  0.00    +0.003 C 
ENDROOT
BRANCH   3  27
ATOM     22  O   UNL     1     -42.132  27.753   1.172  0.00  0.00    -0.354 OA
ATOM     23  C   UNL     1     -39.832  27.107   0.674  0.00  0.00    +0.037 C 
ATOM     24  C   UNL     1     -40.044  25.751   1.393  0.00  0.00    -0.054 C 
ATOM     25  C   UNL     1     -41.174  25.896   2.422  0.00  0.00    +0.013 C 
ATOM     26  C   UNL     1     -41.169  27.644   0.115  0.00  0.00    +0.116 C 
ATOM     27  C   UNL     1     -42.437  26.497   1.789  0.00  0.00    +0.138 C 
ATOM     28  C   UNL     1     -41.041  29.037  -0.494  0.00  0.00    +0.032 C 
BRANCH  24  29
ATOM     29  N   UNL     1     -40.370  24.670   0.458  0.00  0.00    +0.384 N 
ATOM     30  C   UNL     1     -40.048  23.377   1.040  0.00  0.00    -0.106 C 
ATOM     31  H   UNL     1     -39.835  24.795  -0.400  0.00  0.00    -0.085 HD
ATOM     32  H   UNL     1     -41.370  24.700   0.257  0.00  0.00    -0.085 HD
ENDBRANCH  24  29
BRANCH  23  33
ATOM     33  C   UNL     1     -38.729  27.031  -0.387  0.00  0.00    +0.137 C 
BRANCH  33  34
ATOM     34  O   UNL     1     -37.742  26.124   0.062  0.00  0.00    -0.382 OA
ATOM     35  H   UNL     1     -36.863  26.520  -0.051  0.00  0.00    +0.210 HD
ENDBRANCH  33  34
ENDBRANCH  23  33
ENDBRANCH   3  27
BRANCH   5  36
ATOM     36  O   UNL     1     -42.150  28.422   3.697  0.00  0.00    -0.506 OA
ATOM     37  H   UNL     1     -41.704  28.664   4.485  0.00  0.00    +0.292 HD
ENDBRANCH   5  36
BRANCH  10  38
ATOM     38  O   UNL     1     -47.762  25.211   4.754  0.00  0.00    -0.506 OA
ATOM     39  H   UNL     1     -47.526  25.052   5.647  0.00  0.00    +0.292 HD
ENDBRANCH  10  38
BRANCH  18  40
ATOM     40  O   UNL     1     -43.436  30.792   7.933  0.00  0.00    -0.505 OA
ATOM     41  H   UNL     1     -42.632  30.357   8.138  0.00  0.00    +0.292 HD
ENDBRANCH  18  40
TORSDOF 7
ENDMDL
MODEL 3
REMARK VINA RESULT:      -6.6      2.664      8.562
REMARK  Name = 56681504
REMARK  7 active torsions:
REMARK  status: ('A' for Active; 'I' for Inactive)
REMARK    1  A    between atoms: C_3  and  C_27
REMARK    2  A    between atoms: C_5  and  O_36
REMARK    3  A    between atoms: C_10  and  O_38
REMARK    4  A    between atoms: C_18  and  O_40
REMARK    5  A    between atoms: C_23  and  C_33
REMARK    6  A    between atoms: C_24  and  N_29
REMARK    7  A    between atoms: C_33  and  O_34
REMARK                            x       y       z     vdW  Elec       q    Type
REMARK                         _______ _______ _______ _____ _____    ______ ____
ROOT
ATOM      1  O   UNL     1     -33.313  25.834   5.499  0.00  0.00    -0.286 OA
ATOM      2  O   UNL     1     -33.577  29.983   2.239  0.00  0.00    -0.287 OA
ATOM      3  C   UNL     1     -36.324  25.734   2.636  0.00  0.00    +0.038 A 
ATOM      4  C   UNL     1     -36.532  26.839   1.804  0.00  0.00    +0.004 A 
ATOM      5  C   UNL     1     -35.339  25.751   3.617  0.00  0.00    +0.135 A 
ATOM      6  C   UNL     1     -35.724  28.001   1.937  0.00  0.00    +0.037 A 
ATOM      7  C   UNL     1     -34.525  26.874   3.768  0.00  0.00    +0.076 A 
ATOM      8  C   UNL     1     -34.684  27.988   2.928  0.00  0.00    +0.048 A 
ATOM      9  C   UNL     1     -37.557  26.778   0.843  0.00  0.00    -0.004 C 
ATOM     10  C   UNL     1     -36.043  29.083   1.072  0.00  0.00    +0.133 C 
ATOM     11  C   UNL     1     -33.510  26.849   4.844  0.00  0.00    +0.202 C 
ATOM     12  C   UNL     1     -33.716  29.115   3.091  0.00  0.00    +0.196 C 
ATOM     13  C   UNL     1     -37.823  27.855   0.006  0.00  0.00    -0.019 C 
ATOM     14  C   UNL     1     -32.748  28.073   5.134  0.00  0.00    +0.076 C 
ATOM     15  C   UNL     1     -32.855  29.174   4.289  0.00  0.00    +0.045 C 
ATOM     16  C   UNL     1     -37.068  29.010   0.124  0.00  0.00    +0.032 C 
ATOM     17  C   UNL     1     -38.919  27.772  -1.001  0.00  0.00    +0.031 C 
ATOM     18  C   UNL     1     -31.908  28.125   6.254  0.00  0.00    +0.137 C 
ATOM     19  C   UNL     1     -32.120  30.334   4.563  0.00  0.00    +0.003 C 
ATOM     20  C   UNL     1     -31.181  29.284   6.526  0.00  0.00    +0.037 C 
ATOM     21  C   UNL     1     -31.287  30.387   5.681  0.00  0.00    +0.003 C 
ENDROOT
BRANCH   3  27
ATOM     22  O   UNL     1     -38.510  24.866   2.188  0.00  0.00    -0.354 OA
ATOM     23  C   UNL     1     -38.970  22.770   1.026  0.00  0.00    +0.037 C 
ATOM     24  C   UNL     1     -37.512  22.303   1.265  0.00  0.00    -0.054 C 
ATOM     25  C   UNL     1     -36.612  23.533   1.448  0.00  0.00    +0.013 C 
ATOM     26  C   UNL     1     -39.416  23.755   2.130  0.00  0.00    +0.116 C 
ATOM     27  C   UNL     1     -37.170  24.484   2.517  0.00  0.00    +0.138 C 
ATOM     28  C   UNL     1     -40.801  24.344   1.876  0.00  0.00    +0.032 C 
BRANCH  24  29
ATOM     29  N   UNL     1     -37.391  21.430   2.435  0.00  0.00    +0.384 N 
ATOM     30  C   UNL     1     -36.313  20.473   2.250  0.00  0.00    -0.106 C 
ATOM     31  H   UNL     1     -38.267  20.926   2.571  0.00  0.00    -0.085 HD
ATOM     32  H   UNL     1     -37.185  22.004   3.254  0.00  0.00    -0.085 HD
ENDBRANCH  24  29
BRANCH  23  33
ATOM     33  C   UNL     1     -39.933  21.590   0.855  0.00  0.00    +0.137 C 
BRANCH  33  34
ATOM     34  O   UNL     1     -40.141  21.000   2.123  0.00  0.00    -0.382 OA
ATOM     35  H   UNL     1     -39.329  20.552   2.409  0.00  0.00    +0.210 HD
ENDBRANCH  33  34
ENDBRANCH  23  33
ENDBRANCH   3  27
BRANCH   5  36
ATOM     36  O   UNL     1     -35.219  24.647   4.413  0.00  0.00    -0.506 OA
ATOM     37  H   UNL     1     -35.946  24.362   4.930  0.00  0.00    +0.292 HD
ENDBRANCH   5  36
BRANCH  10  38
ATOM     38  O   UNL     1     -35.507  30.335   1.173  0.00  0.00    -0.506 OA
ATOM     39  H   UNL     1     -34.807  30.592   0.606  0.00  0.00    +0.292 HD
ENDBRANCH  10  38
BRANCH  18  40
ATOM     40  O   UNL     1     -31.768  27.085   7.125  0.00  0.00    -0.505 OA
ATOM     41  H   UNL     1     -32.525  26.691   7.509  0.00  0.00    +0.292 HD
ENDBRANCH  18  40
TORSDOF 7
ENDMDL
MODEL 4
REMARK VINA RESULT:      -6.6      4.731      8.002
REMARK  Name = 56681504
REMARK  7 active torsions:
REMARK  status: ('A' for Active; 'I' for Inactive)
REMARK    1  A    between atoms: C_3  and  C_27
REMARK    2  A    between atoms: C_5  and  O_36
REMARK    3  A    between atoms: C_10  and  O_38
REMARK    4  A    between atoms: C_18  and  O_40
REMARK    5  A    between atoms: C_23  and  C_33
REMARK    6  A    between atoms: C_24  and  N_29
REMARK    7  A    between atoms: C_33  and  O_34
REMARK                            x       y       z     vdW  Elec       q    Type
REMARK                         _______ _______ _______ _____ _____    ______ ____
ROOT
ATOM      1  O   UNL     1     -35.022  26.152  -1.213  0.00  0.00    -0.286 OA
ATOM      2  O   UNL     1     -34.811  28.073   3.704  0.00  0.00    -0.287 OA
ATOM      3  C   UNL     1     -35.389  23.380   1.862  0.00  0.00    +0.038 A 
ATOM      4  C   UNL     1     -35.237  23.788   3.191  0.00  0.00    +0.004 A 
ATOM      5  C   UNL     1     -35.248  24.283   0.814  0.00  0.00    +0.135 A 
ATOM      6  C   UNL     1     -34.949  25.147   3.497  0.00  0.00    +0.037 A 
ATOM      7  C   UNL     1     -34.972  25.624   1.082  0.00  0.00    +0.076 A 
ATOM      8  C   UNL     1     -34.846  26.076   2.406  0.00  0.00    +0.048 A 
ATOM      9  C   UNL     1     -35.368  22.830   4.211  0.00  0.00    -0.004 C 
ATOM     10  C   UNL     1     -34.772  25.451   4.874  0.00  0.00    +0.133 C 
ATOM     11  C   UNL     1     -34.806  26.537  -0.070  0.00  0.00    +0.202 C 
ATOM     12  C   UNL     1     -34.641  27.541   2.615  0.00  0.00    +0.196 C 
ATOM     13  C   UNL     1     -35.204  23.176   5.548  0.00  0.00    -0.019 C 
ATOM     14  C   UNL     1     -34.357  27.916   0.171  0.00  0.00    +0.076 C 
ATOM     15  C   UNL     1     -34.268  28.399   1.473  0.00  0.00    +0.045 C 
ATOM     16  C   UNL     1     -34.901  24.486   5.878  0.00  0.00    +0.032 C 
ATOM     17  C   UNL     1     -35.339  22.143   6.614  0.00  0.00    +0.031 C 
ATOM     18  C   UNL     1     -34.029  28.744  -0.911  0.00  0.00    +0.137 C 
ATOM     19  C   UNL     1     -33.851  29.717   1.698  0.00  0.00    +0.003 C 
ATOM     20  C   UNL     1     -33.608  30.054  -0.682  0.00  0.00    +0.037 C 
ATOM     21  C   UNL     1     -33.519  30.540   0.621  0.00  0.00    +0.003 C 
ENDROOT
BRANCH   3  27
ATOM     22  O   UNL     1     -37.002  21.879   0.925  0.00  0.00    -0.354 OA
ATOM     23  C   UNL     1     -36.467  19.906  -0.408  0.00  0.00    +0.037 C 
ATOM     24  C   UNL     1     -35.006  19.940   0.107  0.00  0.00    -0.054 C 
ATOM     25  C   UNL     1     -34.654  21.372   0.534  0.00  0.00    +0.013 C 
ATOM     26  C   UNL     1     -37.425  20.541   0.625  0.00  0.00    +0.116 C 
ATOM     27  C   UNL     1     -35.696  21.941   1.507  0.00  0.00    +0.138 C 
ATOM     28  C   UNL     1     -38.860  20.649   0.117  0.00  0.00    +0.032 C 
BRANCH  24  29
ATOM     29  N   UNL     1     -34.791  19.027   1.234  0.00  0.00    +0.384 N 
ATOM     30  C   UNL     1     -33.374  18.760   1.412  0.00  0.00    -0.106 C 
ATOM     31  H   UNL     1     -35.278  18.149   1.053  0.00  0.00    -0.085 HD
ATOM     32  H   UNL     1     -35.153  19.462   2.083  0.00  0.00    -0.085 HD
ENDBRANCH  24  29
BRANCH  23  33
ATOM     33  C   UNL     1     -36.897  18.498  -0.832  0.00  0.00    +0.137 C 
BRANCH  33  34
ATOM     34  O   UNL     1     -37.156  17.742   0.334  0.00  0.00    -0.382 OA
ATOM     35  H   UNL     1     -37.414  16.840   0.084  0.00  0.00    +0.210 HD
ENDBRANCH  33  34
ENDBRANCH  23  33
ENDBRANCH   3  27
BRANCH   5  36
ATOM     36  O   UNL     1     -35.377  23.802  -0.458  0.00  0.00    -0.506 OA
ATOM     37  H   UNL     1     -35.208  24.362  -1.190  0.00  0.00    +0.292 HD
ENDBRANCH   5  36
BRANCH  10  38
ATOM     38  O   UNL     1     -34.315  26.646   5.348  0.00  0.00    -0.506 OA
ATOM     39  H   UNL     1     -33.396  26.831   5.347  0.00  0.00    +0.292 HD
ENDBRANCH  10  38
BRANCH  18  40
ATOM     40  O   UNL     1     -34.085  28.327  -2.208  0.00  0.00    -0.505 OA
ATOM     41  H   UNL     1     -34.595  28.806  -2.831  0.00  0.00    +0.292 HD
ENDBRANCH  18  40
TORSDOF 7
ENDMDL
MODEL 5
REMARK VINA RESULT:      -6.6      3.940      7.589
REMARK  Name = 56681504
REMARK  7 active torsions:
REMARK  status: ('A' for Active; 'I' for Inactive)
REMARK    1  A    between atoms: C_3  and  C_27
REMARK    2  A    between atoms: C_5  and  O_36
REMARK    3  A    between atoms: C_10  and  O_38
REMARK    4  A    between atoms: C_18  and  O_40
REMARK    5  A    between atoms: C_23  and  C_33
REMARK    6  A    between atoms: C_24  and  N_29
REMARK    7  A    between atoms: C_33  and  O_34
REMARK                            x       y       z     vdW  Elec       q    Type
REMARK                         _______ _______ _______ _____ _____    ______ ____
ROOT
ATOM      1  O   UNL     1     -34.475  24.375   4.549  0.00  0.00    -0.286 OA
ATOM      2  O   UNL     1     -38.024  27.075   1.716  0.00  0.00    -0.287 OA
ATOM      3  C   UNL     1     -33.523  28.330   3.696  0.00  0.00    +0.038 A 
ATOM      4  C   UNL     1     -34.355  29.083   2.862  0.00  0.00    +0.004 A 
ATOM      5  C   UNL     1     -33.806  26.999   3.978  0.00  0.00    +0.135 A 
ATOM      6  C   UNL     1     -35.523  28.501   2.296  0.00  0.00    +0.037 A 
ATOM      7  C   UNL     1     -34.948  26.401   3.444  0.00  0.00    +0.076 A 
ATOM      8  C   UNL     1     -35.824  27.137   2.629  0.00  0.00    +0.048 A 
ATOM      9  C   UNL     1     -34.010  30.419   2.591  0.00  0.00    -0.004 C 
ATOM     10  C   UNL     1     -36.278  29.338   1.430  0.00  0.00    +0.133 C 
ATOM     11  C   UNL     1     -35.189  24.975   3.755  0.00  0.00    +0.202 C 
ATOM     12  C   UNL     1     -37.072  26.455   2.170  0.00  0.00    +0.196 C 
ATOM     13  C   UNL     1     -34.789  31.207   1.751  0.00  0.00    -0.019 C 
ATOM     14  C   UNL     1     -36.291  24.273   3.080  0.00  0.00    +0.076 C 
ATOM     15  C   UNL     1     -37.197  24.990   2.304  0.00  0.00    +0.045 C 
ATOM     16  C   UNL     1     -35.920  30.664   1.166  0.00  0.00    +0.032 C 
ATOM     17  C   UNL     1     -34.401  32.619   1.471  0.00  0.00    +0.031 C 
ATOM     18  C   UNL     1     -36.431  22.887   3.227  0.00  0.00    +0.137 C 
ATOM     19  C   UNL     1     -38.252  24.319   1.672  0.00  0.00    +0.003 C 
ATOM     20  C   UNL     1     -37.480  22.223   2.590  0.00  0.00    +0.037 C 
ATOM     21  C   UNL     1     -38.389  22.938   1.814  0.00  0.00    +0.003 C 
ENDROOT
BRANCH   3  27
ATOM     22  O   UNL     1     -32.403  28.891   5.737  0.00  0.00    -0.354 OA
ATOM     23  C   UNL     1     -29.993  28.755   6.092  0.00  0.00    +0.037 C 
ATOM     24  C   UNL     1     -29.758  28.704   4.562  0.00  0.00    -0.054 C 
ATOM     25  C   UNL     1     -31.018  28.157   3.875  0.00  0.00    +0.013 C 
ATOM     26  C   UNL     1     -31.302  29.508   6.420  0.00  0.00    +0.116 C 
ATOM     27  C   UNL     1     -32.274  28.924   4.312  0.00  0.00    +0.138 C 
ATOM     28  C   UNL     1     -31.648  29.480   7.905  0.00  0.00    +0.032 C 
BRANCH  24  29
ATOM     29  N   UNL     1     -29.430  30.019   4.004  0.00  0.00    +0.384 N 
ATOM     30  C   UNL     1     -28.986  29.893   2.626  0.00  0.00    -0.106 C 
ATOM     31  H   UNL     1     -28.686  30.443   4.559  0.00  0.00    -0.085 HD
ATOM     32  H   UNL     1     -30.265  30.604   4.029  0.00  0.00    -0.085 HD
ENDBRANCH  24  29
BRANCH  23  33
ATOM     33  C   UNL     1     -28.780  29.313   6.844  0.00  0.00    +0.137 C 
BRANCH  33  34
ATOM     34  O   UNL     1     -28.324  28.326   7.747  0.00  0.00    -0.382 OA
ATOM     35  H   UNL     1     -29.084  27.847   8.115  0.00  0.00    +0.210 HD
ENDBRANCH  33  34
ENDBRANCH  23  33
ENDBRANCH   3  27
BRANCH   5  36
ATOM     36  O   UNL     1     -32.928  26.319   4.774  0.00  0.00    -0.506 OA
ATOM     37  H   UNL     1     -32.063  26.135   4.465  0.00  0.00    +0.292 HD
ENDBRANCH   5  36
BRANCH  10  38
ATOM     38  O   UNL     1     -37.317  28.909   0.656  0.00  0.00    -0.506 OA
ATOM     39  H   UNL     1     -37.342  29.123  -0.256  0.00  0.00    +0.292 HD
ENDBRANCH  10  38
BRANCH  18  40
ATOM     40  O   UNL     1     -35.571  22.128   3.963  0.00  0.00    -0.505 OA
ATOM     41  H   UNL     1     -35.884  21.366   4.409  0.00  0.00    +0.292 HD
ENDBRANCH  18  40
TORSDOF 7
ENDMDL
MODEL 6
REMARK VINA RESULT:      -6.6      2.645      8.096
REMARK  Name = 56681504
REMARK  7 active torsions:
REMARK  status: ('A' for Active; 'I' for Inactive)
REMARK    1  A    between atoms: C_3  and  C_27
REMARK    2  A    between atoms: C_5  and  O_36
REMARK    3  A    between atoms: C_10  and  O_38
REMARK    4  A    between atoms: C_18  and  O_40
REMARK    5  A    between atoms: C_23  and  C_33
REMARK    6  A    between atoms: C_24  and  N_29
REMARK    7  A    between atoms: C_33  and  O_34
REMARK                            x       y       z     vdW  Elec       q    Type
REMARK                         _______ _______ _______ _____ _____    ______ ____
ROOT
ATOM      1  O   UNL     1     -36.581  29.707   0.605  0.00  0.00    -0.286 OA
ATOM      2  O   UNL     1     -32.990  28.503   4.289  0.00  0.00    -0.287 OA
ATOM      3  C   UNL     1     -37.215  26.178   2.708  0.00  0.00    +0.038 A 
ATOM      4  C   UNL     1     -36.257  25.730   3.624  0.00  0.00    +0.004 A 
ATOM      5  C   UNL     1     -37.015  27.342   1.975  0.00  0.00    +0.135 A 
ATOM      6  C   UNL     1     -35.062  26.472   3.835  0.00  0.00    +0.037 A 
ATOM      7  C   UNL     1     -35.857  28.096   2.165  0.00  0.00    +0.076 A 
ATOM      8  C   UNL     1     -34.890  27.694   3.100  0.00  0.00    +0.048 A 
ATOM      9  C   UNL     1     -36.498  24.534   4.322  0.00  0.00    -0.004 C 
ATOM     10  C   UNL     1     -34.136  25.911   4.756  0.00  0.00    +0.133 C 
ATOM     11  C   UNL     1     -35.684  29.313   1.341  0.00  0.00    +0.202 C 
ATOM     12  C   UNL     1     -33.721  28.601   3.312  0.00  0.00    +0.196 C 
ATOM     13  C   UNL     1     -35.570  24.031   5.227  0.00  0.00    -0.019 C 
ATOM     14  C   UNL     1     -34.406  30.038   1.399  0.00  0.00    +0.076 C 
ATOM     15  C   UNL     1     -33.452  29.686   2.349  0.00  0.00    +0.045 C 
ATOM     16  C   UNL     1     -34.387  24.717   5.440  0.00  0.00    +0.032 C 
ATOM     17  C   UNL     1     -35.841  22.757   5.952  0.00  0.00    +0.031 C 
ATOM     18  C   UNL     1     -34.157  31.088   0.506  0.00  0.00    +0.137 C 
ATOM     19  C   UNL     1     -32.241  30.387   2.408  0.00  0.00    +0.003 C 
ATOM     20  C   UNL     1     -32.947  31.779   0.565  0.00  0.00    +0.037 C 
ATOM     21  C   UNL     1     -31.990  31.429   1.515  0.00  0.00    +0.003 C 
ENDROOT
BRANCH   3  27
ATOM     22  O   UNL     1     -39.585  26.334   2.411  0.00  0.00    -0.354 OA
ATOM     23  C   UNL     1     -40.906  24.911   0.932  0.00  0.00    +0.037 C 
ATOM     24  C   UNL     1     -39.746  23.886   0.864  0.00  0.00    -0.054 C 
ATOM     25  C   UNL     1     -38.421  24.602   1.158  0.00  0.00    +0.013 C 
ATOM     26  C   UNL     1     -40.862  25.697   2.262  0.00  0.00    +0.116 C 
ATOM     27  C   UNL     1     -38.495  25.408   2.463  0.00  0.00    +0.138 C 
ATOM     28  C   UNL     1     -41.906  26.807   2.330  0.00  0.00    +0.032 C 
BRANCH  24  29
ATOM     29  N   UNL     1     -39.923  22.779   1.808  0.00  0.00    +0.384 N 
ATOM     30  C   UNL     1     -38.929  21.745   1.576  0.00  0.00    -0.106 C 
ATOM     31  H   UNL     1     -40.855  22.381   1.688  0.00  0.00    -0.085 HD
ATOM     32  H   UNL     1     -39.812  23.136   2.757  0.00  0.00    -0.085 HD
ENDBRANCH  24  29
BRANCH  23  33
ATOM     33  C   UNL     1     -42.267  24.260   0.669  0.00  0.00    +0.137 C 
BRANCH  33  34
ATOM     34  O   UNL     1     -42.058  23.080  -0.083  0.00  0.00    -0.382 OA
ATOM     35  H   UNL     1     -41.390  23.247  -0.766  0.00  0.00    +0.210 HD
ENDBRANCH  33  34
ENDBRANCH  23  33
ENDBRANCH   3  27
BRANCH   5  36
ATOM     36  O   UNL     1     -37.981  27.697   1.075  0.00  0.00    -0.506 OA
ATOM     37  H   UNL     1     -37.812  27.626   0.156  0.00  0.00    +0.292 HD
ENDBRANCH   5  36
BRANCH  10  38
ATOM     38  O   UNL     1     -32.867  26.374   4.953  0.00  0.00    -0.506 OA
ATOM     39  H   UNL     1     -32.627  27.227   4.648  0.00  0.00    +0.292 HD
ENDBRANCH  10  38
BRANCH  18  40
ATOM     40  O   UNL     1     -35.046  31.473  -0.454  0.00  0.00    -0.505 OA
ATOM     41  H   UNL     1     -35.963  31.488  -0.263  0.00  0.00    +0.292 HD
ENDBRANCH  18  40
TORSDOF 7
ENDMDL
MODEL 7
REMARK VINA RESULT:      -6.5      3.029      7.213
REMARK  Name = 56681504
REMARK  7 active torsions:
REMARK  status: ('A' for Active; 'I' for Inactive)
REMARK    1  A    between atoms: C_3  and  C_27
REMARK    2  A    between atoms: C_5  and  O_36
REMARK    3  A    between atoms: C_10  and  O_38
REMARK    4  A    between atoms: C_18  and  O_40
REMARK    5  A    between atoms: C_23  and  C_33
REMARK    6  A    between atoms: C_24  and  N_29
REMARK    7  A    between atoms: C_33  and  O_34
REMARK                            x       y       z     vdW  Elec       q    Type
REMARK                         _______ _______ _______ _____ _____    ______ ____
ROOT
ATOM      1  O   UNL     1     -34.367  19.172   1.288  0.00  0.00    -0.286 OA
ATOM      2  O   UNL     1     -39.135  18.617  -0.920  0.00  0.00    -0.287 OA
ATOM      3  C   UNL     1     -37.057  22.277   1.917  0.00  0.00    +0.038 A 
ATOM      4  C   UNL     1     -38.302  22.261   1.280  0.00  0.00    +0.004 A 
ATOM      5  C   UNL     1     -36.131  21.262   1.705  0.00  0.00    +0.135 A 
ATOM      6  C   UNL     1     -38.651  21.190   0.411  0.00  0.00    +0.037 A 
ATOM      7  C   UNL     1     -36.445  20.195   0.863  0.00  0.00    +0.076 A 
ATOM      8  C   UNL     1     -37.699  20.129   0.233  0.00  0.00    +0.048 A 
ATOM      9  C   UNL     1     -39.194  23.322   1.512  0.00  0.00    -0.004 C 
ATOM     10  C   UNL     1     -39.922  21.289  -0.219  0.00  0.00    +0.133 C 
ATOM     11  C   UNL     1     -35.414  19.156   0.652  0.00  0.00    +0.202 C 
ATOM     12  C   UNL     1     -37.996  18.912  -0.580  0.00  0.00    +0.196 C 
ATOM     13  C   UNL     1     -40.435  23.369   0.887  0.00  0.00    -0.019 C 
ATOM     14  C   UNL     1     -35.652  18.108  -0.351  0.00  0.00    +0.076 C 
ATOM     15  C   UNL     1     -36.901  17.995  -0.954  0.00  0.00    +0.045 C 
ATOM     16  C   UNL     1     -40.796  22.354   0.018  0.00  0.00    +0.032 C 
ATOM     17  C   UNL     1     -41.362  24.508   1.141  0.00  0.00    +0.031 C 
ATOM     18  C   UNL     1     -34.624  17.218  -0.689  0.00  0.00    +0.137 C 
ATOM     19  C   UNL     1     -37.126  16.989  -1.901  0.00  0.00    +0.003 C 
ATOM     20  C   UNL     1     -34.852  16.220  -1.636  0.00  0.00    +0.037 C 
ATOM     21  C   UNL     1     -36.102  16.105  -2.242  0.00  0.00    +0.003 C 
ENDROOT
BRANCH   3  27
ATOM     22  O   UNL     1     -36.118  22.840   4.046  0.00  0.00    -0.354 OA
ATOM     23  C   UNL     1     -34.696  24.775   4.479  0.00  0.00    +0.037 C 
ATOM     24  C   UNL     1     -35.166  25.431   3.156  0.00  0.00    -0.054 C 
ATOM     25  C   UNL     1     -35.633  24.335   2.188  0.00  0.00    +0.013 C 
ATOM     26  C   UNL     1     -35.782  23.825   5.033  0.00  0.00    +0.116 C 
ATOM     27  C   UNL     1     -36.660  23.403   2.847  0.00  0.00    +0.138 C 
ATOM     28  C   UNL     1     -35.324  23.056   6.269  0.00  0.00    +0.032 C 
BRANCH  24  29
ATOM     29  N   UNL     1     -36.250  26.394   3.365  0.00  0.00    +0.384 N 
ATOM     30  C   UNL     1     -36.618  27.030   2.111  0.00  0.00    -0.106 C 
ATOM     31  H   UNL     1     -35.943  27.108   4.026  0.00  0.00    -0.085 HD
ATOM     32  H   UNL     1     -37.063  25.899   3.733  0.00  0.00    -0.085 HD
ENDBRANCH  24  29
BRANCH  23  33
ATOM     33  C   UNL     1     -34.234  25.814   5.506  0.00  0.00    +0.137 C 
BRANCH  33  34
ATOM     34  O   UNL     1     -33.858  26.988   4.812  0.00  0.00    -0.382 OA
ATOM     35  H   UNL     1     -34.480  27.147   4.085  0.00  0.00    +0.210 HD
ENDBRANCH  33  34
ENDBRANCH  23  33
ENDBRANCH   3  27
BRANCH   5  36
ATOM     36  O   UNL     1     -34.923  21.366   2.336  0.00  0.00    -0.506 OA
ATOM     37  H   UNL     1     -34.659  22.183   2.709  0.00  0.00    +0.292 HD
ENDBRANCH   5  36
BRANCH  10  38
ATOM     38  O   UNL     1     -40.355  20.464  -1.216  0.00  0.00    -0.506 OA
ATOM     39  H   UNL     1     -40.556  20.815  -2.062  0.00  0.00    +0.292 HD
ENDBRANCH  10  38
BRANCH  18  40
ATOM     40  O   UNL     1     -33.377  17.282  -0.142  0.00  0.00    -0.505 OA
ATOM     41  H   UNL     1     -33.234  16.984   0.735  0.00  0.00    +0.292 HD
ENDBRANCH  18  40
TORSDOF 7
ENDMDL
MODEL 8
REMARK VINA RESULT:      -6.5      3.029      8.879
REMARK  Name = 56681504
REMARK  7 active torsions:
REMARK  status: ('A' for Active; 'I' for Inactive)
REMARK    1  A    between atoms: C_3  and  C_27
REMARK    2  A    between atoms: C_5  and  O_36
REMARK    3  A    between atoms: C_10  and  O_38
REMARK    4  A    between atoms: C_18  and  O_40
REMARK    5  A    between atoms: C_23  and  C_33
REMARK    6  A    between atoms: C_24  and  N_29
REMARK    7  A    between atoms: C_33  and  O_34
REMARK                            x       y       z     vdW  Elec       q    Type
REMARK                         _______ _______ _______ _____ _____    ______ ____
ROOT
ATOM      1  O   UNL     1     -33.282  26.102   4.987  0.00  0.00    -0.286 OA
ATOM      2  O   UNL     1     -33.335  30.758   2.491  0.00  0.00    -0.287 OA
ATOM      3  C   UNL     1     -36.232  26.610   2.103  0.00  0.00    +0.038 A 
ATOM      4  C   UNL     1     -36.385  27.849   1.472  0.00  0.00    +0.004 A 
ATOM      5  C   UNL     1     -35.269  26.421   3.087  0.00  0.00    +0.135 A 
ATOM      6  C   UNL     1     -35.540  28.940   1.817  0.00  0.00    +0.037 A 
ATOM      7  C   UNL     1     -34.420  27.470   3.443  0.00  0.00    +0.076 A 
ATOM      8  C   UNL     1     -34.523  28.718   2.807  0.00  0.00    +0.048 A 
ATOM      9  C   UNL     1     -37.389  27.993   0.499  0.00  0.00    -0.004 C 
ATOM     10  C   UNL     1     -35.804  30.166   1.148  0.00  0.00    +0.133 C 
ATOM     11  C   UNL     1     -33.431  27.222   4.514  0.00  0.00    +0.202 C 
ATOM     12  C   UNL     1     -33.522  29.763   3.178  0.00  0.00    +0.196 C 
ATOM     13  C   UNL     1     -37.601  29.207  -0.143  0.00  0.00    -0.019 C 
ATOM     14  C   UNL     1     -32.634  28.348   5.024  0.00  0.00    +0.076 C 
ATOM     15  C   UNL     1     -32.686  29.581   4.381  0.00  0.00    +0.045 C 
ATOM     16  C   UNL     1     -36.810  30.296   0.186  0.00  0.00    +0.032 C 
ATOM     17  C   UNL     1     -38.676  29.341  -1.166  0.00  0.00    +0.031 C 
ATOM     18  C   UNL     1     -31.818  28.174   6.149  0.00  0.00    +0.137 C 
ATOM     19  C   UNL     1     -31.917  30.648   4.863  0.00  0.00    +0.003 C 
ATOM     20  C   UNL     1     -31.058  29.241   6.629  0.00  0.00    +0.037 C 
ATOM     21  C   UNL     1     -31.108  30.477   5.987  0.00  0.00    +0.003 C 
ENDROOT
BRANCH   3  27
ATOM     22  O   UNL     1     -36.290  24.283   1.540  0.00  0.00    -0.354 OA
ATOM     23  C   UNL     1     -38.038  22.723   2.222  0.00  0.00    +0.037 C 
ATOM     24  C   UNL     1     -38.979  23.907   2.559  0.00  0.00    -0.054 C 
ATOM     25  C   UNL     1     -38.135  25.151   2.869  0.00  0.00    +0.013 C 
ATOM     26  C   UNL     1     -37.026  23.125   1.124  0.00  0.00    +0.116 C 
ATOM     27  C   UNL     1     -37.117  25.432   1.755  0.00  0.00    +0.138 C 
ATOM     28  C   UNL     1     -35.994  22.038   0.842  0.00  0.00    +0.032 C 
BRANCH  24  29
ATOM     29  N   UNL     1     -39.910  24.207   1.467  0.00  0.00    +0.384 N 
ATOM     30  C   UNL     1     -40.886  25.199   1.886  0.00  0.00    -0.106 C 
ATOM     31  H   UNL     1     -40.395  23.353   1.194  0.00  0.00    -0.085 HD
ATOM     32  H   UNL     1     -39.381  24.579   0.678  0.00  0.00    -0.085 HD
ENDBRANCH  24  29
BRANCH  23  33
ATOM     33  C   UNL     1     -38.814  21.448   1.878  0.00  0.00    +0.137 C 
BRANCH  33  34
ATOM     34  O   UNL     1     -40.125  21.573   2.394  0.00  0.00    -0.382 OA
ATOM     35  H   UNL     1     -40.086  21.648   3.361  0.00  0.00    +0.210 HD
ENDBRANCH  33  34
ENDBRANCH  23  33
ENDBRANCH   3  27
BRANCH   5  36
ATOM     36  O   UNL     1     -35.203  25.192   3.681  0.00  0.00    -0.506 OA
ATOM     37  H   UNL     1     -35.726  24.486   3.355  0.00  0.00    +0.292 HD
ENDBRANCH   5  36
BRANCH  10  38
ATOM     38  O   UNL     1     -35.228  31.361   1.473  0.00  0.00    -0.506 OA
ATOM     39  H   UNL     1     -34.424  31.379   1.953  0.00  0.00    +0.292 HD
ENDBRANCH  10  38
BRANCH  18  40
ATOM     40  O   UNL     1     -31.731  26.996   6.829  0.00  0.00    -0.505 OA
ATOM     41  H   UNL     1     -31.683  26.187   6.359  0.00  0.00    +0.292 HD
ENDBRANCH  18  40
TORSDOF 7
ENDMDL
MODEL 9
REMARK VINA RESULT:      -6.4      3.963      8.348
REMARK  Name = 56681504
REMARK  7 active torsions:
REMARK  status: ('A' for Active; 'I' for Inactive)
REMARK    1  A    between atoms: C_3  and  C_27
REMARK    2  A    between atoms: C_5  and  O_36
REMARK    3  A    between atoms: C_10  and  O_38
REMARK    4  A    between atoms: C_18  and  O_40
REMARK    5  A    between atoms: C_23  and  C_33
REMARK    6  A    between atoms: C_24  and  N_29
REMARK    7  A    between atoms: C_33  and  O_34
REMARK                            x       y       z     vdW  Elec       q    Type
REMARK                         _______ _______ _______ _____ _____    ______ ____
ROOT
ATOM      1  O   UNL     1     -39.462  23.653   2.660  0.00  0.00    -0.286 OA
ATOM      2  O   UNL     1     -35.390  20.290   2.820  0.00  0.00    -0.287 OA
ATOM      3  C   UNL     1     -39.472  20.617  -0.178  0.00  0.00    +0.038 A 
ATOM      4  C   UNL     1     -38.380  19.749  -0.275  0.00  0.00    +0.004 A 
ATOM      5  C   UNL     1     -39.483  21.655   0.747  0.00  0.00    +0.135 A 
ATOM      6  C   UNL     1     -37.259  19.904   0.588  0.00  0.00    +0.037 A 
ATOM      7  C   UNL     1     -38.402  21.829   1.612  0.00  0.00    +0.076 A 
ATOM      8  C   UNL     1     -37.303  20.956   1.565  0.00  0.00    +0.048 A 
ATOM      9  C   UNL     1     -38.410  18.730  -1.242  0.00  0.00    -0.004 C 
ATOM     10  C   UNL     1     -36.184  18.998   0.381  0.00  0.00    +0.133 C 
ATOM     11  C   UNL     1     -38.454  22.964   2.559  0.00  0.00    +0.202 C 
ATOM     12  C   UNL     1     -36.226  21.152   2.583  0.00  0.00    +0.196 C 
ATOM     13  C   UNL     1     -37.342  17.854  -1.398  0.00  0.00    -0.019 C 
ATOM     14  C   UNL     1     -37.266  23.273   3.369  0.00  0.00    +0.076 C 
ATOM     15  C   UNL     1     -36.183  22.398   3.373  0.00  0.00    +0.045 C 
ATOM     16  C   UNL     1     -36.227  17.991  -0.589  0.00  0.00    +0.032 C 
ATOM     17  C   UNL     1     -37.391  16.785  -2.436  0.00  0.00    +0.031 C 
ATOM     18  C   UNL     1     -37.231  24.440   4.143  0.00  0.00    +0.137 C 
ATOM     19  C   UNL     1     -35.058  22.690   4.155  0.00  0.00    +0.003 C 
ATOM     20  C   UNL     1     -36.106  24.729   4.916  0.00  0.00    +0.037 C 
ATOM     21  C   UNL     1     -35.021  23.854   4.922  0.00  0.00    +0.003 C 
ENDROOT
BRANCH   3  27
ATOM     22  O   UNL     1     -41.848  20.337  -0.271  0.00  0.00    -0.354 OA
ATOM     23  C   UNL     1     -43.306  21.321  -1.963  0.00  0.00    +0.037 C 
ATOM     24  C   UNL     1     -42.085  21.584  -2.879  0.00  0.00    -0.054 C 
ATOM     25  C   UNL     1     -40.819  21.684  -2.017  0.00  0.00    +0.013 C 
ATOM     26  C   UNL     1     -43.042  20.114  -1.034  0.00  0.00    +0.116 C 
ATOM     27  C   UNL     1     -40.677  20.475  -1.083  0.00  0.00    +0.138 C 
ATOM     28  C   UNL     1     -44.162  19.887  -0.023  0.00  0.00    +0.032 C 
BRANCH  24  29
ATOM     29  N   UNL     1     -41.908  20.534  -3.887  0.00  0.00    +0.384 N 
ATOM     30  C   UNL     1     -41.259  21.068  -5.073  0.00  0.00    -0.106 C 
ATOM     31  H   UNL     1     -42.821  20.159  -4.145  0.00  0.00    -0.085 HD
ATOM     32  H   UNL     1     -41.322  19.797  -3.494  0.00  0.00    -0.085 HD
ENDBRANCH  24  29
BRANCH  23  33
ATOM     33  C   UNL     1     -44.608  21.187  -2.759  0.00  0.00    +0.137 C 
BRANCH  33  34
ATOM     34  O   UNL     1     -44.531  22.041  -3.884  0.00  0.00    -0.382 OA
ATOM     35  H   UNL     1     -43.805  22.673  -3.760  0.00  0.00    +0.210 HD
ENDBRANCH  33  34
ENDBRANCH  23  33
ENDBRANCH   3  27
BRANCH   5  36
ATOM     36  O   UNL     1     -40.571  22.481   0.759  0.00  0.00    -0.506 OA
ATOM     37  H   UNL     1     -41.298  22.289   1.317  0.00  0.00    +0.292 HD
ENDBRANCH   5  36
BRANCH  10  38
ATOM     38  O   UNL     1     -34.961  19.102   0.978  0.00  0.00    -0.506 OA
ATOM     39  H   UNL     1     -34.315  18.437   0.843  0.00  0.00    +0.292 HD
ENDBRANCH  10  38
BRANCH  18  40
ATOM     40  O   UNL     1     -38.254  25.341   4.174  0.00  0.00    -0.505 OA
ATOM     41  H   UNL     1     -38.464  25.783   4.973  0.00  0.00    +0.292 HD
ENDBRANCH  18  40
TORSDOF 7
ENDMDL
