MODEL 1
REMARK VINA RESULT:      -6.5      0.000      0.000
REMARK  Name = 53245473
REMARK  5 active torsions:
REMARK  status: ('A' for Active; 'I' for Inactive)
REMARK    1  A    between atoms: N_1  and  C_4
REMARK    2  A    between atoms: N_1  and  S_16
REMARK    3  A    between atoms: C_5  and  C_10
REMARK    4  A    between atoms: C_10  and  N_12
REMARK    5  A    between atoms: S_16  and  C_20
REMARK                            x       y       z     vdW  Elec       q    Type
REMARK                         _______ _______ _______ _____ _____    ______ ____
ROOT
ATOM      1  N   UNL     1     -36.051  21.901   2.145  0.00  0.00    -0.183 NA
ATOM      2  H   UNL     1     -35.277  22.145   1.527  0.00  0.00    +0.149 HD
ENDROOT
BRANCH   1   4
ATOM      3  N   UNL     1     -36.252  18.767   0.575  0.00  0.00    +0.387 N 
ATOM      4  C   UNL     1     -36.057  20.424   2.258  0.00  0.00    +0.052 C 
ATOM      5  C   UNL     1     -34.878  19.267   0.512  0.00  0.00    -0.041 C 
ATOM      6  C   UNL     1     -34.684  19.859   1.902  0.00  0.00    -0.004 C 
ATOM      7  C   UNL     1     -37.017  19.828   1.231  0.00  0.00    -0.064 C 
ATOM      8  H   UNL     1     -36.294  17.907   1.121  0.00  0.00    -0.084 HD
ATOM      9  H   UNL     1     -36.621  18.548  -0.349  0.00  0.00    -0.084 HD
BRANCH   5  10
ATOM     10  C   UNL     1     -33.891  18.159   0.190  0.00  0.00    +0.068 C 
BRANCH  10  12
ATOM     11  O   UNL     1     -31.411  17.648   1.610  0.00  0.00    -0.275 OA
ATOM     12  N   UNL     1     -32.591  18.689  -0.107  0.00  0.00    -0.306 N 
ATOM     13  C   UNL     1     -31.452  18.387   0.631  0.00  0.00    +0.223 C 
ATOM     14  C   UNL     1     -30.218  19.057   0.089  0.00  0.00    +0.095 C 
ATOM     15  H   UNL     1     -32.502  19.297  -0.875  0.00  0.00    +0.149 HD
ENDBRANCH  10  12
ENDBRANCH   5  10
ENDBRANCH   1   4
BRANCH   1  16
ATOM     16  S   UNL     1     -35.887  22.856   3.541  0.00  0.00    +0.060 S 
ATOM     17  O   UNL     1     -35.214  22.090   4.572  0.00  0.00    -0.153 OA
ATOM     18  O   UNL     1     -37.158  23.497   3.821  0.00  0.00    -0.153 OA
BRANCH  16  20
ATOM     19  N   UNL     1     -33.110  27.186   5.357  0.00  0.00    -0.243 NA
ATOM     20  C   UNL     1     -34.781  24.119   2.991  0.00  0.00    +0.122 C 
ATOM     21  C   UNL     1     -34.233  25.134   3.792  0.00  0.00    +0.018 C 
ATOM     22  C   UNL     1     -34.469  24.042   1.632  0.00  0.00    +0.020 C 
ATOM     23  C   UNL     1     -33.363  26.076   3.209  0.00  0.00    +0.020 C 
ATOM     24  C   UNL     1     -34.527  25.237   5.157  0.00  0.00    -0.001 C 
ATOM     25  C   UNL     1     -33.609  24.975   1.058  0.00  0.00    +0.001 C 
ATOM     26  C   UNL     1     -33.056  25.989   1.841  0.00  0.00    +0.002 C 
ATOM     27  C   UNL     1     -32.838  27.070   4.037  0.00  0.00    +0.099 C 
ATOM     28  C   UNL     1     -33.947  26.267   5.882  0.00  0.00    +0.095 C 
ATOM     29  C   UNL     1     -35.421  24.337   5.943  0.00  0.00    +0.033 C 
ENDBRANCH  16  20
ENDBRANCH   1  16
TORSDOF 5
ENDMDL
MODEL 2
REMARK VINA RESULT:      -6.4      2.588      7.832
REMARK  Name = 53245473
REMARK  5 active torsions:
REMARK  status: ('A' for Active; 'I' for Inactive)
REMARK    1  A    between atoms: N_1  and  C_4
REMARK    2  A    between atoms: N_1  and  S_16
REMARK    3  A    between atoms: C_5  and  C_10
REMARK    4  A    between atoms: C_10  and  N_12
REMARK    5  A    between atoms: S_16  and  C_20
REMARK                            x       y       z     vdW  Elec       q    Type
REMARK                         _______ _______ _______ _____ _____    ______ ____
ROOT
ATOM      1  N   UNL     1     -36.238  23.219   3.880  0.00  0.00    -0.183 NA
ATOM      2  H   UNL     1     -36.014  22.951   4.839  0.00  0.00    +0.149 HD
ENDROOT
BRANCH   1   4
ATOM      3  N   UNL     1     -35.820  26.496   5.067  0.00  0.00    +0.387 N 
ATOM      4  C   UNL     1     -35.693  24.581   3.678  0.00  0.00    +0.052 C 
ATOM      5  C   UNL     1     -34.803  25.622   5.653  0.00  0.00    -0.041 C 
ATOM      6  C   UNL     1     -34.397  24.756   4.467  0.00  0.00    -0.004 C 
ATOM      7  C   UNL     1     -36.657  25.618   4.249  0.00  0.00    -0.064 C 
ATOM      8  H   UNL     1     -35.383  27.214   4.488  0.00  0.00    -0.084 HD
ATOM      9  H   UNL     1     -36.362  26.983   5.780  0.00  0.00    -0.084 HD
BRANCH   5  10
ATOM     10  C   UNL     1     -33.648  26.416   6.237  0.00  0.00    +0.068 C 
BRANCH  10  12
ATOM     11  O   UNL     1     -31.122  27.845   6.190  0.00  0.00    -0.275 OA
ATOM     12  N   UNL     1     -33.279  27.506   5.381  0.00  0.00    -0.306 N 
ATOM     13  C   UNL     1     -32.040  28.133   5.427  0.00  0.00    +0.223 C 
ATOM     14  C   UNL     1     -31.907  29.229   4.403  0.00  0.00    +0.095 C 
ATOM     15  H   UNL     1     -33.939  27.826   4.725  0.00  0.00    +0.149 HD
ENDBRANCH  10  12
ENDBRANCH   5  10
ENDBRANCH   1   4
BRANCH   1  16
ATOM     16  S   UNL     1     -35.726  21.944   2.880  0.00  0.00    +0.060 S 
ATOM     17  O   UNL     1     -35.409  20.788   3.698  0.00  0.00    -0.153 OA
ATOM     18  O   UNL     1     -34.755  22.454   1.932  0.00  0.00    -0.153 OA
BRANCH  16  20
ATOM     19  N   UNL     1     -37.636  18.609  -0.992  0.00  0.00    -0.243 NA
ATOM     20  C   UNL     1     -37.196  21.582   1.970  0.00  0.00    +0.122 C 
ATOM     21  C   UNL     1     -37.326  20.588   0.986  0.00  0.00    +0.018 C 
ATOM     22  C   UNL     1     -38.283  22.391   2.307  0.00  0.00    +0.020 C 
ATOM     23  C   UNL     1     -38.567  20.416   0.342  0.00  0.00    +0.020 C 
ATOM     24  C   UNL     1     -36.255  19.760   0.626  0.00  0.00    -0.001 C 
ATOM     25  C   UNL     1     -39.508  22.220   1.669  0.00  0.00    +0.001 C 
ATOM     26  C   UNL     1     -39.654  21.237   0.689  0.00  0.00    +0.002 C 
ATOM     27  C   UNL     1     -38.658  19.418  -0.630  0.00  0.00    +0.099 C 
ATOM     28  C   UNL     1     -36.463  18.802  -0.354  0.00  0.00    +0.095 C 
ATOM     29  C   UNL     1     -34.877  19.794   1.196  0.00  0.00    +0.033 C 
ENDBRANCH  16  20
ENDBRANCH   1  16
TORSDOF 5
ENDMDL
MODEL 3
REMARK VINA RESULT:      -6.3      3.244      7.277
REMARK  Name = 53245473
REMARK  5 active torsions:
REMARK  status: ('A' for Active; 'I' for Inactive)
REMARK    1  A    between atoms: N_1  and  C_4
REMARK    2  A    between atoms: N_1  and  S_16
REMARK    3  A    between atoms: C_5  and  C_10
REMARK    4  A    between atoms: C_10  and  N_12
REMARK    5  A    between atoms: S_16  and  C_20
REMARK                            x       y       z     vdW  Elec       q    Type
REMARK                         _______ _______ _______ _____ _____    ______ ____
ROOT
ATOM      1  N   UNL     1     -34.332  22.198  -0.428  0.00  0.00    -0.183 NA
ATOM      2  H   UNL     1     -34.625  21.413   0.153  0.00  0.00    +0.149 HD
ENDROOT
BRANCH   1   4
ATOM      3  N   UNL     1     -36.830  24.250   0.942  0.00  0.00    +0.387 N 
ATOM      4  C   UNL     1     -34.699  23.432   0.305  0.00  0.00    +0.052 C 
ATOM      5  C   UNL     1     -36.495  23.179   1.882  0.00  0.00    -0.041 C 
ATOM      6  C   UNL     1     -34.977  23.115   1.772  0.00  0.00    -0.004 C 
ATOM      7  C   UNL     1     -36.010  23.991  -0.242  0.00  0.00    -0.064 C 
ATOM      8  H   UNL     1     -36.602  25.160   1.342  0.00  0.00    -0.084 HD
ATOM      9  H   UNL     1     -37.824  24.265   0.720  0.00  0.00    -0.084 HD
BRANCH   5  10
ATOM     10  C   UNL     1     -36.980  23.493   3.286  0.00  0.00    +0.068 C 
BRANCH  10  12
ATOM     11  O   UNL     1     -35.411  24.150   5.638  0.00  0.00    -0.275 OA
ATOM     12  N   UNL     1     -36.424  22.583   4.245  0.00  0.00    -0.306 N 
ATOM     13  C   UNL     1     -35.682  22.988   5.349  0.00  0.00    +0.223 C 
ATOM     14  C   UNL     1     -35.240  21.832   6.206  0.00  0.00    +0.095 C 
ATOM     15  H   UNL     1     -36.578  21.619   4.115  0.00  0.00    +0.149 HD
ENDBRANCH  10  12
ENDBRANCH   5  10
ENDBRANCH   1   4
BRANCH   1  16
ATOM     16  S   UNL     1     -32.711  21.918  -0.854  0.00  0.00    +0.060 S 
ATOM     17  O   UNL     1     -31.874  22.951  -0.273  0.00  0.00    -0.153 OA
ATOM     18  O   UNL     1     -32.642  21.637  -2.275  0.00  0.00    -0.153 OA
BRANCH  16  20
ATOM     19  N   UNL     1     -28.671  18.374   0.092  0.00  0.00    -0.243 NA
ATOM     20  C   UNL     1     -32.370  20.403  -0.011  0.00  0.00    +0.122 C 
ATOM     21  C   UNL     1     -31.132  19.740   0.013  0.00  0.00    +0.018 C 
ATOM     22  C   UNL     1     -33.470  19.874   0.667  0.00  0.00    +0.020 C 
ATOM     23  C   UNL     1     -31.012  18.533   0.731  0.00  0.00    +0.020 C 
ATOM     24  C   UNL     1     -30.010  20.244  -0.656  0.00  0.00    -0.001 C 
ATOM     25  C   UNL     1     -33.349  18.682   1.374  0.00  0.00    +0.001 C 
ATOM     26  C   UNL     1     -32.126  18.011   1.409  0.00  0.00    +0.002 C 
ATOM     27  C   UNL     1     -29.766  17.904   0.732  0.00  0.00    +0.099 C 
ATOM     28  C   UNL     1     -28.823  19.532  -0.584  0.00  0.00    +0.095 C 
ATOM     29  C   UNL     1     -29.947  21.499  -1.461  0.00  0.00    +0.033 C 
ENDBRANCH  16  20
ENDBRANCH   1  16
TORSDOF 5
ENDMDL
MODEL 4
REMARK VINA RESULT:      -6.3      2.704      7.001
REMARK  Name = 53245473
REMARK  5 active torsions:
REMARK  status: ('A' for Active; 'I' for Inactive)
REMARK    1  A    between atoms: N_1  and  C_4
REMARK    2  A    between atoms: N_1  and  S_16
REMARK    3  A    between atoms: C_5  and  C_10
REMARK    4  A    between atoms: C_10  and  N_12
REMARK    5  A    between atoms: S_16  and  C_20
REMARK                            x       y       z     vdW  Elec       q    Type
REMARK                         _______ _______ _______ _____ _____    ______ ____
ROOT
ATOM      1  N   UNL     1     -35.530  22.055   0.814  0.00  0.00    -0.183 NA
ATOM      2  H   UNL     1     -35.425  21.194   1.350  0.00  0.00    +0.149 HD
ENDROOT
BRANCH   1   4
ATOM      3  N   UNL     1     -37.264  22.995   3.718  0.00  0.00    +0.387 N 
ATOM      4  C   UNL     1     -35.909  23.114   1.777  0.00  0.00    +0.052 C 
ATOM      5  C   UNL     1     -35.967  22.419   4.078  0.00  0.00    -0.041 C 
ATOM      6  C   UNL     1     -35.042  23.026   3.031  0.00  0.00    -0.004 C 
ATOM      7  C   UNL     1     -37.340  22.889   2.260  0.00  0.00    -0.064 C 
ATOM      8  H   UNL     1     -37.314  23.971   4.008  0.00  0.00    -0.084 HD
ATOM      9  H   UNL     1     -38.036  22.511   4.175  0.00  0.00    -0.084 HD
BRANCH   5  10
ATOM     10  C   UNL     1     -35.573  22.770   5.501  0.00  0.00    +0.068 C 
BRANCH  10  12
ATOM     11  O   UNL     1     -36.290  25.583   5.555  0.00  0.00    -0.275 OA
ATOM     12  N   UNL     1     -34.684  23.896   5.534  0.00  0.00    -0.306 N 
ATOM     13  C   UNL     1     -35.118  25.216   5.559  0.00  0.00    +0.223 C 
ATOM     14  C   UNL     1     -33.978  26.199   5.616  0.00  0.00    +0.095 C 
ATOM     15  H   UNL     1     -33.715  23.723   5.540  0.00  0.00    +0.149 HD
ENDBRANCH  10  12
ENDBRANCH   5  10
ENDBRANCH   1   4
BRANCH   1  16
ATOM     16  S   UNL     1     -34.122  22.228  -0.122  0.00  0.00    +0.060 S 
ATOM     17  O   UNL     1     -33.366  23.372   0.351  0.00  0.00    -0.153 OA
ATOM     18  O   UNL     1     -34.475  22.116  -1.524  0.00  0.00    -0.153 OA
BRANCH  16  20
ATOM     19  N   UNL     1     -29.266  19.846  -0.842  0.00  0.00    -0.243 NA
ATOM     20  C   UNL     1     -33.222  20.767   0.301  0.00  0.00    +0.122 C 
ATOM     21  C   UNL     1     -31.905  20.476  -0.088  0.00  0.00    +0.018 C 
ATOM     22  C   UNL     1     -33.943  19.869   1.091  0.00  0.00    +0.020 C 
ATOM     23  C   UNL     1     -31.317  19.265   0.328  0.00  0.00    +0.020 C 
ATOM     24  C   UNL     1     -31.156  21.356  -0.879  0.00  0.00    -0.001 C 
ATOM     25  C   UNL     1     -33.360  18.673   1.500  0.00  0.00    +0.001 C 
ATOM     26  C   UNL     1     -32.052  18.368   1.122  0.00  0.00    +0.002 C 
ATOM     27  C   UNL     1     -30.006  19.010  -0.079  0.00  0.00    +0.099 C 
ATOM     28  C   UNL     1     -29.861  20.997  -1.221  0.00  0.00    +0.095 C 
ATOM     29  C   UNL     1     -31.608  22.675  -1.409  0.00  0.00    +0.033 C 
ENDBRANCH  16  20
ENDBRANCH   1  16
TORSDOF 5
ENDMDL
MODEL 5
REMARK VINA RESULT:      -6.2      5.521      9.252
REMARK  Name = 53245473
REMARK  5 active torsions:
REMARK  status: ('A' for Active; 'I' for Inactive)
REMARK    1  A    between atoms: N_1  and  C_4
REMARK    2  A    between atoms: N_1  and  S_16
REMARK    3  A    between atoms: C_5  and  C_10
REMARK    4  A    between atoms: C_10  and  N_12
REMARK    5  A    between atoms: S_16  and  C_20
REMARK                            x       y       z     vdW  Elec       q    Type
REMARK                         _______ _______ _______ _____ _____    ______ ____
ROOT
ATOM      1  N   UNL     1     -32.237  27.591   4.813  0.00  0.00    -0.183 NA
ATOM      2  H   UNL     1     -31.578  26.880   4.494  0.00  0.00    +0.149 HD
ENDROOT
BRANCH   1   4
ATOM      3  N   UNL     1     -30.340  29.301   7.222  0.00  0.00    +0.387 N 
ATOM      4  C   UNL     1     -31.435  28.779   5.186  0.00  0.00    +0.052 C 
ATOM      5  C   UNL     1     -29.502  28.315   6.538  0.00  0.00    -0.041 C 
ATOM      6  C   UNL     1     -29.944  28.465   5.088  0.00  0.00    -0.004 C 
ATOM      7  C   UNL     1     -31.677  29.130   6.652  0.00  0.00    -0.064 C 
ATOM      8  H   UNL     1     -29.996  30.245   7.048  0.00  0.00    -0.084 HD
ATOM      9  H   UNL     1     -30.337  29.168   8.233  0.00  0.00    -0.084 HD
BRANCH   5  10
ATOM     10  C   UNL     1     -28.024  28.594   6.745  0.00  0.00    +0.068 C 
BRANCH  10  12
ATOM     11  O   UNL     1     -26.938  30.518   8.628  0.00  0.00    -0.275 OA
ATOM     12  N   UNL     1     -27.714  29.973   6.501  0.00  0.00    -0.306 N 
ATOM     13  C   UNL     1     -27.193  30.826   7.467  0.00  0.00    +0.223 C 
ATOM     14  C   UNL     1     -26.938  32.212   6.939  0.00  0.00    +0.095 C 
ATOM     15  H   UNL     1     -27.878  30.334   5.600  0.00  0.00    +0.149 HD
ENDBRANCH  10  12
ENDBRANCH   5  10
ENDBRANCH   1   4
BRANCH   1  16
ATOM     16  S   UNL     1     -33.438  27.722   3.618  0.00  0.00    +0.060 S 
ATOM     17  O   UNL     1     -32.871  27.381   2.327  0.00  0.00    -0.153 OA
ATOM     18  O   UNL     1     -34.142  28.977   3.797  0.00  0.00    -0.153 OA
BRANCH  16  20
ATOM     19  N   UNL     1     -38.296  25.609   2.314  0.00  0.00    -0.243 NA
ATOM     20  C   UNL     1     -34.554  26.432   4.080  0.00  0.00    +0.122 C 
ATOM     21  C   UNL     1     -35.797  26.172   3.481  0.00  0.00    +0.018 C 
ATOM     22  C   UNL     1     -34.097  25.644   5.139  0.00  0.00    +0.020 C 
ATOM     23  C   UNL     1     -36.581  25.104   3.962  0.00  0.00    +0.020 C 
ATOM     24  C   UNL     1     -36.282  26.943   2.419  0.00  0.00    -0.001 C 
ATOM     25  C   UNL     1     -34.874  24.590   5.612  0.00  0.00    +0.001 C 
ATOM     26  C   UNL     1     -36.112  24.318   5.028  0.00  0.00    +0.002 C 
ATOM     27  C   UNL     1     -37.811  24.876   3.342  0.00  0.00    +0.099 C 
ATOM     28  C   UNL     1     -37.518  26.623   1.880  0.00  0.00    +0.095 C 
ATOM     29  C   UNL     1     -35.596  28.105   1.781  0.00  0.00    +0.033 C 
ENDBRANCH  16  20
ENDBRANCH   1  16
TORSDOF 5
ENDMDL
MODEL 6
REMARK VINA RESULT:      -6.2      2.610      4.196
REMARK  Name = 53245473
REMARK  5 active torsions:
REMARK  status: ('A' for Active; 'I' for Inactive)
REMARK    1  A    between atoms: N_1  and  C_4
REMARK    2  A    between atoms: N_1  and  S_16
REMARK    3  A    between atoms: C_5  and  C_10
REMARK    4  A    between atoms: C_10  and  N_12
REMARK    5  A    between atoms: S_16  and  C_20
REMARK                            x       y       z     vdW  Elec       q    Type
REMARK                         _______ _______ _______ _____ _____    ______ ____
ROOT
ATOM      1  N   UNL     1     -34.994  20.406   1.927  0.00  0.00    -0.183 NA
ATOM      2  H   UNL     1     -35.871  19.894   2.028  0.00  0.00    +0.149 HD
ENDROOT
BRANCH   1   4
ATOM      3  N   UNL     1     -33.710  17.466   0.501  0.00  0.00    +0.387 N 
ATOM      4  C   UNL     1     -34.242  19.752   0.832  0.00  0.00    +0.052 C 
ATOM      5  C   UNL     1     -35.116  17.626   0.128  0.00  0.00    -0.041 C 
ATOM      6  C   UNL     1     -35.205  19.117  -0.169  0.00  0.00    -0.004 C 
ATOM      7  C   UNL     1     -33.417  18.593   1.388  0.00  0.00    -0.064 C 
ATOM      8  H   UNL     1     -33.115  17.499  -0.327  0.00  0.00    -0.084 HD
ATOM      9  H   UNL     1     -33.535  16.570   0.954  0.00  0.00    -0.084 HD
BRANCH   5  10
ATOM     10  C   UNL     1     -35.484  16.756  -1.061  0.00  0.00    +0.068 C 
BRANCH  10  12
ATOM     11  O   UNL     1     -37.680  15.517   0.379  0.00  0.00    -0.275 OA
ATOM     12  N   UNL     1     -36.884  16.847  -1.359  0.00  0.00    -0.306 N 
ATOM     13  C   UNL     1     -37.872  16.217  -0.611  0.00  0.00    +0.223 C 
ATOM     14  C   UNL     1     -39.258  16.499  -1.128  0.00  0.00    +0.095 C 
ATOM     15  H   UNL     1     -37.160  17.385  -2.136  0.00  0.00    +0.149 HD
ENDBRANCH  10  12
ENDBRANCH   5  10
ENDBRANCH   1   4
BRANCH   1  16
ATOM     16  S   UNL     1     -35.395  22.053   1.813  0.00  0.00    +0.060 S 
ATOM     17  O   UNL     1     -36.755  22.185   1.325  0.00  0.00    -0.153 OA
ATOM     18  O   UNL     1     -34.312  22.753   1.150  0.00  0.00    -0.153 OA
BRANCH  16  20
ATOM     19  N   UNL     1     -35.701  26.501   4.957  0.00  0.00    -0.243 NA
ATOM     20  C   UNL     1     -35.373  22.552   3.507  0.00  0.00    +0.122 C 
ATOM     21  C   UNL     1     -35.484  23.872   3.974  0.00  0.00    +0.018 C 
ATOM     22  C   UNL     1     -35.229  21.493   4.406  0.00  0.00    +0.020 C 
ATOM     23  C   UNL     1     -35.448  24.117   5.361  0.00  0.00    +0.020 C 
ATOM     24  C   UNL     1     -35.629  24.956   3.098  0.00  0.00    -0.001 C 
ATOM     25  C   UNL     1     -35.194  21.737   5.776  0.00  0.00    +0.001 C 
ATOM     26  C   UNL     1     -35.303  23.043   6.256  0.00  0.00    +0.002 C 
ATOM     27  C   UNL     1     -35.561  25.442   5.786  0.00  0.00    +0.099 C 
ATOM     28  C   UNL     1     -35.732  26.229   3.636  0.00  0.00    +0.095 C 
ATOM     29  C   UNL     1     -35.687  24.891   1.609  0.00  0.00    +0.033 C 
ENDBRANCH  16  20
ENDBRANCH   1  16
TORSDOF 5
ENDMDL
MODEL 7
REMARK VINA RESULT:      -6.1      3.867      6.770
REMARK  Name = 53245473
REMARK  5 active torsions:
REMARK  status: ('A' for Active; 'I' for Inactive)
REMARK    1  A    between atoms: N_1  and  C_4
REMARK    2  A    between atoms: N_1  and  S_16
REMARK    3  A    between atoms: C_5  and  C_10
REMARK    4  A    between atoms: C_10  and  N_12
REMARK    5  A    between atoms: S_16  and  C_20
REMARK                            x       y       z     vdW  Elec       q    Type
REMARK                         _______ _______ _______ _____ _____    ______ ____
ROOT
ATOM      1  N   UNL     1     -37.371  22.379   3.354  0.00  0.00    -0.183 NA
ATOM      2  H   UNL     1     -37.306  23.023   4.142  0.00  0.00    +0.149 HD
ENDROOT
BRANCH   1   4
ATOM      3  N   UNL     1     -40.369  23.740   2.137  0.00  0.00    +0.387 N 
ATOM      4  C   UNL     1     -38.094  23.094   2.277  0.00  0.00    +0.052 C 
ATOM      5  C   UNL     1     -39.718  24.696   3.035  0.00  0.00    -0.041 C 
ATOM      6  C   UNL     1     -38.254  24.570   2.635  0.00  0.00    -0.004 C 
ATOM      7  C   UNL     1     -39.516  22.552   2.156  0.00  0.00    -0.064 C 
ATOM      8  H   UNL     1     -40.429  24.122   1.193  0.00  0.00    -0.084 HD
ATOM      9  H   UNL     1     -41.322  23.530   2.431  0.00  0.00    -0.084 HD
BRANCH   5  10
ATOM     10  C   UNL     1     -40.269  26.099   2.857  0.00  0.00    +0.068 C 
BRANCH  10  12
ATOM     11  O   UNL     1     -41.677  28.105   4.413  0.00  0.00    -0.275 OA
ATOM     12  N   UNL     1     -41.673  26.150   3.149  0.00  0.00    -0.306 N 
ATOM     13  C   UNL     1     -42.265  27.154   3.906  0.00  0.00    +0.223 C 
ATOM     14  C   UNL     1     -43.754  26.979   4.037  0.00  0.00    +0.095 C 
ATOM     15  H   UNL     1     -42.247  25.434   2.792  0.00  0.00    +0.149 HD
ENDBRANCH  10  12
ENDBRANCH   5  10
ENDBRANCH   1   4
BRANCH   1  16
ATOM     16  S   UNL     1     -35.803  21.786   3.072  0.00  0.00    +0.060 S 
ATOM     17  O   UNL     1     -35.815  20.933   1.899  0.00  0.00    -0.153 OA
ATOM     18  O   UNL     1     -35.255  21.299   4.323  0.00  0.00    -0.153 OA
BRANCH  16  20
ATOM     19  N   UNL     1     -34.033  26.452   5.278  0.00  0.00    -0.243 NA
ATOM     20  C   UNL     1     -34.924  23.263   2.662  0.00  0.00    +0.122 C 
ATOM     21  C   UNL     1     -34.635  24.316   3.546  0.00  0.00    +0.018 C 
ATOM     22  C   UNL     1     -34.511  23.323   1.330  0.00  0.00    +0.020 C 
ATOM     23  C   UNL     1     -33.923  25.436   3.072  0.00  0.00    +0.020 C 
ATOM     24  C   UNL     1     -35.036  24.286   4.887  0.00  0.00    -0.001 C 
ATOM     25  C   UNL     1     -33.808  24.430   0.864  0.00  0.00    +0.001 C 
ATOM     26  C   UNL     1     -33.513  25.485   1.729  0.00  0.00    +0.002 C 
ATOM     27  C   UNL     1     -33.655  26.462   3.979  0.00  0.00    +0.099 C 
ATOM     28  C   UNL     1     -34.713  25.364   5.697  0.00  0.00    +0.095 C 
ATOM     29  C   UNL     1     -35.792  23.191   5.563  0.00  0.00    +0.033 C 
ENDBRANCH  16  20
ENDBRANCH   1  16
TORSDOF 5
ENDMDL
MODEL 8
REMARK VINA RESULT:      -6.1      4.558      8.392
REMARK  Name = 53245473
REMARK  5 active torsions:
REMARK  status: ('A' for Active; 'I' for Inactive)
REMARK    1  A    between atoms: N_1  and  C_4
REMARK    2  A    between atoms: N_1  and  S_16
REMARK    3  A    between atoms: C_5  and  C_10
REMARK    4  A    between atoms: C_10  and  N_12
REMARK    5  A    between atoms: S_16  and  C_20
REMARK                            x       y       z     vdW  Elec       q    Type
REMARK                         _______ _______ _______ _____ _____    ______ ____
ROOT
ATOM      1  N   UNL     1     -33.457  28.457   4.044  0.00  0.00    -0.183 NA
ATOM      2  H   UNL     1     -33.947  28.976   4.772  0.00  0.00    +0.149 HD
ENDROOT
BRANCH   1   4
ATOM      3  N   UNL     1     -31.057  30.707   5.270  0.00  0.00    +0.387 N 
ATOM      4  C   UNL     1     -32.068  28.970   4.014  0.00  0.00    +0.052 C 
ATOM      5  C   UNL     1     -31.154  29.549   6.161  0.00  0.00    -0.041 C 
ATOM      6  C   UNL     1     -31.264  28.392   5.177  0.00  0.00    -0.004 C 
ATOM      7  C   UNL     1     -32.066  30.480   4.235  0.00  0.00    -0.064 C 
ATOM      8  H   UNL     1     -30.126  30.761   4.856  0.00  0.00    -0.084 HD
ATOM      9  H   UNL     1     -31.210  31.583   5.766  0.00  0.00    -0.084 HD
BRANCH   5  10
ATOM     10  C   UNL     1     -29.949  29.443   7.078  0.00  0.00    +0.068 C 
BRANCH  10  12
ATOM     11  O   UNL     1     -27.380  28.670   8.187  0.00  0.00    -0.275 OA
ATOM     12  N   UNL     1     -29.251  28.206   6.880  0.00  0.00    -0.306 N 
ATOM     13  C   UNL     1     -28.018  27.919   7.455  0.00  0.00    +0.223 C 
ATOM     14  C   UNL     1     -27.522  26.541   7.104  0.00  0.00    +0.095 C 
ATOM     15  H   UNL     1     -29.669  27.522   6.308  0.00  0.00    +0.149 HD
ENDBRANCH  10  12
ENDBRANCH   5  10
ENDBRANCH   1   4
BRANCH   1  16
ATOM     16  S   UNL     1     -33.744  26.808   4.335  0.00  0.00    +0.060 S 
ATOM     17  O   UNL     1     -34.108  26.621   5.727  0.00  0.00    -0.153 OA
ATOM     18  O   UNL     1     -32.665  26.034   3.753  0.00  0.00    -0.153 OA
BRANCH  16  20
ATOM     19  N   UNL     1     -37.436  22.945   3.233  0.00  0.00    -0.243 NA
ATOM     20  C   UNL     1     -35.182  26.509   3.352  0.00  0.00    +0.122 C 
ATOM     21  C   UNL     1     -35.921  25.316   3.324  0.00  0.00    +0.018 C 
ATOM     22  C   UNL     1     -35.558  27.595   2.558  0.00  0.00    +0.020 C 
ATOM     23  C   UNL     1     -37.049  25.225   2.485  0.00  0.00    +0.020 C 
ATOM     24  C   UNL     1     -35.570  24.210   4.108  0.00  0.00    -0.001 C 
ATOM     25  C   UNL     1     -36.673  27.503   1.729  0.00  0.00    +0.001 C 
ATOM     26  C   UNL     1     -37.418  26.324   1.690  0.00  0.00    +0.002 C 
ATOM     27  C   UNL     1     -37.759  24.023   2.484  0.00  0.00    +0.099 C 
ATOM     28  C   UNL     1     -36.351  23.067   4.025  0.00  0.00    +0.095 C 
ATOM     29  C   UNL     1     -34.417  24.121   5.051  0.00  0.00    +0.033 C 
ENDBRANCH  16  20
ENDBRANCH   1  16
TORSDOF 5
ENDMDL
MODEL 9
REMARK VINA RESULT:      -6.1      5.600      8.030
REMARK  Name = 53245473
REMARK  5 active torsions:
REMARK  status: ('A' for Active; 'I' for Inactive)
REMARK    1  A    between atoms: N_1  and  C_4
REMARK    2  A    between atoms: N_1  and  S_16
REMARK    3  A    between atoms: C_5  and  C_10
REMARK    4  A    between atoms: C_10  and  N_12
REMARK    5  A    between atoms: S_16  and  C_20
REMARK                            x       y       z     vdW  Elec       q    Type
REMARK                         _______ _______ _______ _____ _____    ______ ____
ROOT
ATOM      1  N   UNL     1     -34.851  28.988   3.353  0.00  0.00    -0.183 NA
ATOM      2  H   UNL     1     -35.591  29.184   2.678  0.00  0.00    +0.149 HD
ENDROOT
BRANCH   1   4
ATOM      3  N   UNL     1     -34.409  25.787   4.726  0.00  0.00    +0.387 N 
ATOM      4  C   UNL     1     -34.467  27.570   3.166  0.00  0.00    +0.052 C 
ATOM      5  C   UNL     1     -35.815  25.985   4.370  0.00  0.00    -0.041 C 
ATOM      6  C   UNL     1     -35.711  26.696   3.027  0.00  0.00    -0.004 C 
ATOM      7  C   UNL     1     -33.751  27.056   4.413  0.00  0.00    -0.064 C 
ATOM      8  H   UNL     1     -34.004  25.030   4.176  0.00  0.00    -0.084 HD
ATOM      9  H   UNL     1     -34.296  25.532   5.706  0.00  0.00    -0.084 HD
BRANCH   5  10
ATOM     10  C   UNL     1     -36.566  24.668   4.293  0.00  0.00    +0.068 C 
BRANCH  10  12
ATOM     11  O   UNL     1     -35.660  21.949   3.830  0.00  0.00    -0.275 OA
ATOM     12  N   UNL     1     -36.079  23.733   5.266  0.00  0.00    -0.306 N 
ATOM     13  C   UNL     1     -35.664  22.444   4.953  0.00  0.00    +0.223 C 
ATOM     14  C   UNL     1     -35.177  21.684   6.158  0.00  0.00    +0.095 C 
ATOM     15  H   UNL     1     -36.037  24.021   6.207  0.00  0.00    +0.149 HD
ENDBRANCH  10  12
ENDBRANCH   5  10
ENDBRANCH   1   4
BRANCH   1  16
ATOM     16  S   UNL     1     -33.685  30.212   3.176  0.00  0.00    +0.060 S 
ATOM     17  O   UNL     1     -32.668  29.776   2.238  0.00  0.00    -0.153 OA
ATOM     18  O   UNL     1     -33.307  30.692   4.491  0.00  0.00    -0.153 OA
BRANCH  16  20
ATOM     19  N   UNL     1     -33.202  35.321   1.325  0.00  0.00    -0.243 NA
ATOM     20  C   UNL     1     -34.621  31.497   2.406  0.00  0.00    +0.122 C 
ATOM     21  C   UNL     1     -34.133  32.766   2.052  0.00  0.00    +0.018 C 
ATOM     22  C   UNL     1     -35.952  31.155   2.157  0.00  0.00    +0.020 C 
ATOM     23  C   UNL     1     -35.003  33.692   1.443  0.00  0.00    +0.020 C 
ATOM     24  C   UNL     1     -32.804  33.139   2.288  0.00  0.00    -0.001 C 
ATOM     25  C   UNL     1     -36.809  32.072   1.556  0.00  0.00    +0.001 C 
ATOM     26  C   UNL     1     -36.340  33.337   1.198  0.00  0.00    +0.002 C 
ATOM     27  C   UNL     1     -34.482  34.943   1.106  0.00  0.00    +0.099 C 
ATOM     28  C   UNL     1     -32.398  34.409   1.910  0.00  0.00    +0.095 C 
ATOM     29  C   UNL     1     -31.745  32.297   2.918  0.00  0.00    +0.033 C 
ENDBRANCH  16  20
ENDBRANCH   1  16
TORSDOF 5
ENDMDL
