MODEL 1
REMARK VINA RESULT:      -6.3      0.000      0.000
REMARK  Name = 53360339
REMARK  15 active torsions:
REMARK  status: ('A' for Active; 'I' for Inactive)
REMARK    1  A    between atoms: O_1  and  C_10
REMARK    2  A    between atoms: O_1  and  C_22
REMARK    3  A    between atoms: C_6  and  C_16
REMARK    4  A    between atoms: C_16  and  C_18
REMARK    5  A    between atoms: C_18  and  O_19
REMARK    6  A    between atoms: C_22  and  C_23
REMARK    7  A    between atoms: C_23  and  O_24
REMARK    8  A    between atoms: C_23  and  C_26
REMARK    9  A    between atoms: C_23  and  C_36
REMARK   10  A    between atoms: C_26  and  C_27
REMARK   11  A    between atoms: C_27  and  C_29
REMARK   12  A    between atoms: C_29  and  C_30
REMARK   13  A    between atoms: C_30  and  C_32
REMARK   14  A    between atoms: C_32  and  O_34
REMARK   15  A    between atoms: C_36  and  O_37
REMARK                            x       y       z     vdW  Elec       q    Type
REMARK                         _______ _______ _______ _____ _____    ______ ____
ROOT
ATOM      1  O   UNL     1     -34.150  24.711   4.884  0.00  0.00    -0.446 OA
ENDROOT
BRANCH   1  10
ATOM      2  O   UNL     1     -38.509  22.638   2.551  0.00  0.00    -0.344 OA
ATOM      3  O   UNL     1     -39.254  25.887   2.908  0.00  0.00    -0.288 OA
ATOM      4  C   UNL     1     -36.075  23.080   2.996  0.00  0.00    +0.047 C 
ATOM      5  C   UNL     1     -37.221  22.936   1.996  0.00  0.00    +0.155 C 
ATOM      6  C   UNL     1     -38.329  23.943   1.973  0.00  0.00    +0.190 C 
ATOM      7  C   UNL     1     -35.841  21.687   3.690  0.00  0.00    +0.006 C 
ATOM      8  C   UNL     1     -36.344  24.148   4.080  0.00  0.00    -0.000 C 
ATOM      9  C   UNL     1     -34.833  21.757   4.854  0.00  0.00    +0.004 C 
ATOM     10  C   UNL     1     -35.415  24.186   5.277  0.00  0.00    +0.187 C 
ATOM     11  C   UNL     1     -34.838  23.526   2.172  0.00  0.00    +0.007 C 
ATOM     12  C   UNL     1     -38.386  25.025   2.964  0.00  0.00    +0.203 C 
ATOM     13  C   UNL     1     -35.244  22.799   5.891  0.00  0.00    +0.048 C 
ATOM     14  C   UNL     1     -37.375  25.012   4.043  0.00  0.00    +0.035 C 
ATOM     15  C   UNL     1     -35.403  20.573   2.727  0.00  0.00    +0.000 C 
BRANCH   6  16
ATOM     16  C   UNL     1     -38.867  24.294   0.663  0.00  0.00    +0.018 C 
ATOM     17  C   UNL     1     -38.252  25.137  -0.183  0.00  0.00    -0.004 C 
BRANCH  16  18
ATOM     18  C   UNL     1     -40.183  23.665   0.285  0.00  0.00    +0.162 C 
BRANCH  18  19
ATOM     19  O   UNL     1     -41.087  23.770   1.376  0.00  0.00    -0.377 OA
ATOM     20  H   UNL     1     -40.596  23.708   2.211  0.00  0.00    +0.211 HD
ENDBRANCH  18  19
ENDBRANCH  16  18
ENDBRANCH   6  16
ENDBRANCH   1  10
BRANCH   1  22
ATOM     21  O   UNL     1     -34.131  26.512   6.321  0.00  0.00    -0.247 OA
ATOM     22  C   UNL     1     -33.922  26.015   5.221  0.00  0.00    +0.344 C 
BRANCH  22  23
ATOM     23  C   UNL     1     -33.359  26.781   4.027  0.00  0.00    +0.204 C 
BRANCH  23  24
ATOM     24  O   UNL     1     -32.497  25.896   3.315  0.00  0.00    -0.375 OA
ATOM     25  H   UNL     1     -32.161  25.216   3.919  0.00  0.00    +0.211 HD
ENDBRANCH  23  24
BRANCH  23  26
ATOM     26  C   UNL     1     -32.543  28.019   4.463  0.00  0.00    +0.040 C 
BRANCH  26  27
ATOM     27  C   UNL     1     -32.197  29.070   3.370  0.00  0.00    +0.003 C 
ATOM     28  C   UNL     1     -30.690  29.264   3.192  0.00  0.00    +0.000 C 
BRANCH  27  29
ATOM     29  C   UNL     1     -32.905  30.398   3.743  0.00  0.00    +0.002 C 
BRANCH  29  30
ATOM     30  C   UNL     1     -33.492  31.225   2.575  0.00  0.00    +0.027 C 
ATOM     31  C   UNL     1     -32.897  32.637   2.523  0.00  0.00    +0.002 C 
BRANCH  30  32
ATOM     32  C   UNL     1     -35.041  31.231   2.632  0.00  0.00    +0.111 C 
ATOM     33  C   UNL     1     -35.743  30.440   1.533  0.00  0.00    +0.032 C 
BRANCH  32  34
ATOM     34  O   UNL     1     -35.476  30.735   3.901  0.00  0.00    -0.384 OA
ATOM     35  H   UNL     1     -36.367  31.069   4.089  0.00  0.00    +0.210 HD
ENDBRANCH  32  34
ENDBRANCH  30  32
ENDBRANCH  29  30
ENDBRANCH  27  29
ENDBRANCH  26  27
ENDBRANCH  23  26
BRANCH  23  36
ATOM     36  C   UNL     1     -34.510  27.165   3.082  0.00  0.00    +0.175 C 
BRANCH  36  37
ATOM     37  O   UNL     1     -35.547  27.816   3.807  0.00  0.00    -0.379 OA
ATOM     38  H   UNL     1     -35.180  28.211   4.614  0.00  0.00    +0.211 HD
ENDBRANCH  36  37
ENDBRANCH  23  36
ENDBRANCH  22  23
ENDBRANCH   1  22
TORSDOF 15
ENDMDL
MODEL 2
REMARK VINA RESULT:      -6.0      1.607      2.641
REMARK  Name = 53360339
REMARK  15 active torsions:
REMARK  status: ('A' for Active; 'I' for Inactive)
REMARK    1  A    between atoms: O_1  and  C_10
REMARK    2  A    between atoms: O_1  and  C_22
REMARK    3  A    between atoms: C_6  and  C_16
REMARK    4  A    between atoms: C_16  and  C_18
REMARK    5  A    between atoms: C_18  and  O_19
REMARK    6  A    between atoms: C_22  and  C_23
REMARK    7  A    between atoms: C_23  and  O_24
REMARK    8  A    between atoms: C_23  and  C_26
REMARK    9  A    between atoms: C_23  and  C_36
REMARK   10  A    between atoms: C_26  and  C_27
REMARK   11  A    between atoms: C_27  and  C_29
REMARK   12  A    between atoms: C_29  and  C_30
REMARK   13  A    between atoms: C_30  and  C_32
REMARK   14  A    between atoms: C_32  and  O_34
REMARK   15  A    between atoms: C_36  and  O_37
REMARK                            x       y       z     vdW  Elec       q    Type
REMARK                         _______ _______ _______ _____ _____    ______ ____
ROOT
ATOM      1  O   UNL     1     -34.063  24.890   4.798  0.00  0.00    -0.446 OA
ENDROOT
BRANCH   1  10
ATOM      2  O   UNL     1     -38.628  22.958   2.758  0.00  0.00    -0.344 OA
ATOM      3  O   UNL     1     -39.180  26.256   2.984  0.00  0.00    -0.288 OA
ATOM      4  C   UNL     1     -36.156  23.282   3.077  0.00  0.00    +0.047 C 
ATOM      5  C   UNL     1     -37.352  23.156   2.135  0.00  0.00    +0.155 C 
ATOM      6  C   UNL     1     -38.404  24.221   2.109  0.00  0.00    +0.190 C 
ATOM      7  C   UNL     1     -35.967  21.913   3.829  0.00  0.00    +0.006 C 
ATOM      8  C   UNL     1     -36.319  24.414   4.116  0.00  0.00    -0.000 C 
ATOM      9  C   UNL     1     -34.906  21.982   4.944  0.00  0.00    +0.004 C 
ATOM     10  C   UNL     1     -35.335  24.457   5.270  0.00  0.00    +0.187 C 
ATOM     11  C   UNL     1     -34.935  23.619   2.180  0.00  0.00    +0.007 C 
ATOM     12  C   UNL     1     -38.358  25.351   3.045  0.00  0.00    +0.203 C 
ATOM     13  C   UNL     1     -35.212  23.093   5.944  0.00  0.00    +0.048 C 
ATOM     14  C   UNL     1     -37.301  25.333   4.080  0.00  0.00    +0.035 C 
ATOM     15  C   UNL     1     -35.633  20.731   2.906  0.00  0.00    +0.000 C 
BRANCH   6  16
ATOM     16  C   UNL     1     -38.981  24.539   0.807  0.00  0.00    +0.018 C 
ATOM     17  C   UNL     1     -38.383  25.348  -0.085  0.00  0.00    -0.004 C 
BRANCH  16  18
ATOM     18  C   UNL     1     -40.316  23.917   0.491  0.00  0.00    +0.162 C 
BRANCH  18  19
ATOM     19  O   UNL     1     -41.236  24.222   1.530  0.00  0.00    -0.377 OA
ATOM     20  H   UNL     1     -41.083  23.629   2.283  0.00  0.00    +0.211 HD
ENDBRANCH  18  19
ENDBRANCH  16  18
ENDBRANCH   6  16
ENDBRANCH   1  10
BRANCH   1  22
ATOM     21  O   UNL     1     -33.871  26.708   6.201  0.00  0.00    -0.247 OA
ATOM     22  C   UNL     1     -33.727  26.178   5.106  0.00  0.00    +0.344 C 
BRANCH  22  23
ATOM     23  C   UNL     1     -33.137  26.879   3.885  0.00  0.00    +0.204 C 
BRANCH  23  24
ATOM     24  O   UNL     1     -32.601  25.874   3.028  0.00  0.00    -0.375 OA
ATOM     25  H   UNL     1     -31.632  25.930   3.029  0.00  0.00    +0.211 HD
ENDBRANCH  23  24
BRANCH  23  26
ATOM     26  C   UNL     1     -32.003  27.857   4.267  0.00  0.00    +0.040 C 
BRANCH  26  27
ATOM     27  C   UNL     1     -32.264  29.375   4.051  0.00  0.00    +0.003 C 
ATOM     28  C   UNL     1     -31.574  29.921   2.800  0.00  0.00    +0.000 C 
BRANCH  27  29
ATOM     29  C   UNL     1     -31.809  30.125   5.329  0.00  0.00    +0.002 C 
BRANCH  29  30
ATOM     30  C   UNL     1     -31.192  29.266   6.457  0.00  0.00    +0.027 C 
ATOM     31  C   UNL     1     -31.791  29.611   7.827  0.00  0.00    +0.002 C 
BRANCH  30  32
ATOM     32  C   UNL     1     -29.646  29.366   6.439  0.00  0.00    +0.111 C 
ATOM     33  C   UNL     1     -29.074  30.570   5.697  0.00  0.00    +0.032 C 
BRANCH  32  34
ATOM     34  O   UNL     1     -29.149  29.379   7.780  0.00  0.00    -0.384 OA
ATOM     35  H   UNL     1     -29.681  28.781   8.326  0.00  0.00    +0.210 HD
ENDBRANCH  32  34
ENDBRANCH  30  32
ENDBRANCH  29  30
ENDBRANCH  27  29
ENDBRANCH  26  27
ENDBRANCH  23  26
BRANCH  23  36
ATOM     36  C   UNL     1     -34.262  27.590   3.114  0.00  0.00    +0.175 C 
BRANCH  36  37
ATOM     37  O   UNL     1     -35.376  27.822   3.970  0.00  0.00    -0.379 OA
ATOM     38  H   UNL     1     -35.154  28.517   4.609  0.00  0.00    +0.211 HD
ENDBRANCH  36  37
ENDBRANCH  23  36
ENDBRANCH  22  23
ENDBRANCH   1  22
TORSDOF 15
ENDMDL
MODEL 3
REMARK VINA RESULT:      -5.9      1.726      3.233
REMARK  Name = 53360339
REMARK  15 active torsions:
REMARK  status: ('A' for Active; 'I' for Inactive)
REMARK    1  A    between atoms: O_1  and  C_10
REMARK    2  A    between atoms: O_1  and  C_22
REMARK    3  A    between atoms: C_6  and  C_16
REMARK    4  A    between atoms: C_16  and  C_18
REMARK    5  A    between atoms: C_18  and  O_19
REMARK    6  A    between atoms: C_22  and  C_23
REMARK    7  A    between atoms: C_23  and  O_24
REMARK    8  A    between atoms: C_23  and  C_26
REMARK    9  A    between atoms: C_23  and  C_36
REMARK   10  A    between atoms: C_26  and  C_27
REMARK   11  A    between atoms: C_27  and  C_29
REMARK   12  A    between atoms: C_29  and  C_30
REMARK   13  A    between atoms: C_30  and  C_32
REMARK   14  A    between atoms: C_32  and  O_34
REMARK   15  A    between atoms: C_36  and  O_37
REMARK                            x       y       z     vdW  Elec       q    Type
REMARK                         _______ _______ _______ _____ _____    ______ ____
ROOT
ATOM      1  O   UNL     1     -34.133  24.897   4.861  0.00  0.00    -0.446 OA
ENDROOT
BRANCH   1  10
ATOM      2  O   UNL     1     -38.570  22.826   2.680  0.00  0.00    -0.344 OA
ATOM      3  O   UNL     1     -39.274  26.088   2.992  0.00  0.00    -0.288 OA
ATOM      4  C   UNL     1     -36.121  23.250   3.054  0.00  0.00    +0.047 C 
ATOM      5  C   UNL     1     -37.293  23.100   2.086  0.00  0.00    +0.155 C 
ATOM      6  C   UNL     1     -38.392  24.117   2.072  0.00  0.00    +0.190 C 
ATOM      7  C   UNL     1     -35.883  21.868   3.768  0.00  0.00    +0.006 C 
ATOM      8  C   UNL     1     -36.352  24.341   4.123  0.00  0.00    -0.000 C 
ATOM      9  C   UNL     1     -34.846  21.950   4.905  0.00  0.00    +0.004 C 
ATOM     10  C   UNL     1     -35.392  24.393   5.296  0.00  0.00    +0.187 C 
ATOM     11  C   UNL     1     -34.901  23.668   2.191  0.00  0.00    +0.007 C 
ATOM     12  C   UNL     1     -38.413  25.219   3.042  0.00  0.00    +0.203 C 
ATOM     13  C   UNL     1     -35.219  23.016   5.932  0.00  0.00    +0.048 C 
ATOM     14  C   UNL     1     -37.374  25.216   4.096  0.00  0.00    +0.035 C 
ATOM     15  C   UNL     1     -35.481  20.731   2.817  0.00  0.00    +0.000 C 
BRANCH   6  16
ATOM     16  C   UNL     1     -38.959  24.449   0.770  0.00  0.00    +0.018 C 
ATOM     17  C   UNL     1     -38.365  25.281  -0.102  0.00  0.00    -0.004 C 
BRANCH  16  18
ATOM     18  C   UNL     1     -40.282  23.813   0.429  0.00  0.00    +0.162 C 
BRANCH  18  19
ATOM     19  O   UNL     1     -41.188  24.000   1.509  0.00  0.00    -0.377 OA
ATOM     20  H   UNL     1     -41.276  24.948   1.696  0.00  0.00    +0.211 HD
ENDBRANCH  18  19
ENDBRANCH  16  18
ENDBRANCH   6  16
ENDBRANCH   1  10
BRANCH   1  22
ATOM     21  O   UNL     1     -34.003  26.635   6.367  0.00  0.00    -0.247 OA
ATOM     22  C   UNL     1     -33.846  26.177   5.242  0.00  0.00    +0.344 C 
BRANCH  22  23
ATOM     23  C   UNL     1     -33.291  26.971   4.062  0.00  0.00    +0.204 C 
BRANCH  23  24
ATOM     24  O   UNL     1     -32.346  26.141   3.392  0.00  0.00    -0.375 OA
ATOM     25  H   UNL     1     -31.591  25.971   3.977  0.00  0.00    +0.211 HD
ENDBRANCH  23  24
BRANCH  23  26
ATOM     26  C   UNL     1     -32.578  28.264   4.516  0.00  0.00    +0.040 C 
BRANCH  26  27
ATOM     27  C   UNL     1     -31.393  28.116   5.512  0.00  0.00    +0.003 C 
ATOM     28  C   UNL     1     -31.538  29.014   6.742  0.00  0.00    +0.000 C 
BRANCH  27  29
ATOM     29  C   UNL     1     -30.080  28.412   4.740  0.00  0.00    +0.002 C 
BRANCH  29  30
ATOM     30  C   UNL     1     -28.849  28.809   5.588  0.00  0.00    +0.027 C 
ATOM     31  C   UNL     1     -28.139  30.043   5.018  0.00  0.00    +0.002 C 
BRANCH  30  32
ATOM     32  C   UNL     1     -27.895  27.600   5.766  0.00  0.00    +0.111 C 
ATOM     33  C   UNL     1     -27.958  26.907   7.124  0.00  0.00    +0.032 C 
BRANCH  32  34
ATOM     34  O   UNL     1     -28.152  26.631   4.747  0.00  0.00    -0.384 OA
ATOM     35  H   UNL     1     -27.344  26.124   4.573  0.00  0.00    +0.210 HD
ENDBRANCH  32  34
ENDBRANCH  30  32
ENDBRANCH  29  30
ENDBRANCH  27  29
ENDBRANCH  26  27
ENDBRANCH  23  26
BRANCH  23  36
ATOM     36  C   UNL     1     -34.429  27.269   3.072  0.00  0.00    +0.175 C 
BRANCH  36  37
ATOM     37  O   UNL     1     -35.419  28.085   3.688  0.00  0.00    -0.379 OA
ATOM     38  H   UNL     1     -36.158  27.530   3.984  0.00  0.00    +0.211 HD
ENDBRANCH  36  37
ENDBRANCH  23  36
ENDBRANCH  22  23
ENDBRANCH   1  22
TORSDOF 15
ENDMDL
MODEL 4
REMARK VINA RESULT:      -5.9      2.321      3.859
REMARK  Name = 53360339
REMARK  15 active torsions:
REMARK  status: ('A' for Active; 'I' for Inactive)
REMARK    1  A    between atoms: O_1  and  C_10
REMARK    2  A    between atoms: O_1  and  C_22
REMARK    3  A    between atoms: C_6  and  C_16
REMARK    4  A    between atoms: C_16  and  C_18
REMARK    5  A    between atoms: C_18  and  O_19
REMARK    6  A    between atoms: C_22  and  C_23
REMARK    7  A    between atoms: C_23  and  O_24
REMARK    8  A    between atoms: C_23  and  C_26
REMARK    9  A    between atoms: C_23  and  C_36
REMARK   10  A    between atoms: C_26  and  C_27
REMARK   11  A    between atoms: C_27  and  C_29
REMARK   12  A    between atoms: C_29  and  C_30
REMARK   13  A    between atoms: C_30  and  C_32
REMARK   14  A    between atoms: C_32  and  O_34
REMARK   15  A    between atoms: C_36  and  O_37
REMARK                            x       y       z     vdW  Elec       q    Type
REMARK                         _______ _______ _______ _____ _____    ______ ____
ROOT
ATOM      1  O   UNL     1     -34.629  26.619   3.389  0.00  0.00    -0.446 OA
ENDROOT
BRANCH   1  10
ATOM      2  O   UNL     1     -38.430  22.844   3.212  0.00  0.00    -0.344 OA
ATOM      3  O   UNL     1     -39.428  25.098   0.941  0.00  0.00    -0.288 OA
ATOM      4  C   UNL     1     -36.128  23.849   3.296  0.00  0.00    +0.047 C 
ATOM      5  C   UNL     1     -37.093  22.829   2.693  0.00  0.00    +0.155 C 
ATOM      6  C   UNL     1     -38.247  23.289   1.857  0.00  0.00    +0.190 C 
ATOM      7  C   UNL     1     -35.916  23.498   4.815  0.00  0.00    +0.006 C 
ATOM      8  C   UNL     1     -36.631  25.305   3.176  0.00  0.00    -0.000 C 
ATOM      9  C   UNL     1     -35.109  24.570   5.572  0.00  0.00    +0.004 C 
ATOM     10  C   UNL     1     -35.903  26.369   3.975  0.00  0.00    +0.187 C 
ATOM     11  C   UNL     1     -34.810  23.723   2.488  0.00  0.00    +0.007 C 
ATOM     12  C   UNL     1     -38.526  24.719   1.677  0.00  0.00    +0.203 C 
ATOM     13  C   UNL     1     -35.741  25.953   5.435  0.00  0.00    +0.048 C 
ATOM     14  C   UNL     1     -37.696  25.675   2.441  0.00  0.00    +0.035 C 
ATOM     15  C   UNL     1     -35.264  22.129   5.058  0.00  0.00    +0.000 C 
BRANCH   6  16
ATOM     16  C   UNL     1     -38.595  22.457   0.710  0.00  0.00    +0.018 C 
ATOM     17  C   UNL     1     -37.788  22.289  -0.350  0.00  0.00    -0.004 C 
BRANCH  16  18
ATOM     18  C   UNL     1     -39.940  21.778   0.755  0.00  0.00    +0.162 C 
BRANCH  18  19
ATOM     19  O   UNL     1     -40.049  21.025   1.956  0.00  0.00    -0.377 OA
ATOM     20  H   UNL     1     -39.383  20.319   1.957  0.00  0.00    +0.211 HD
ENDBRANCH  18  19
ENDBRANCH  16  18
ENDBRANCH   6  16
ENDBRANCH   1  10
BRANCH   1  22
ATOM     21  O   UNL     1     -34.835  28.913   3.376  0.00  0.00    -0.247 OA
ATOM     22  C   UNL     1     -34.164  27.898   3.510  0.00  0.00    +0.344 C 
BRANCH  22  23
ATOM     23  C   UNL     1     -32.674  27.892   3.844  0.00  0.00    +0.204 C 
BRANCH  23  24
ATOM     24  O   UNL     1     -32.484  27.011   4.948  0.00  0.00    -0.375 OA
ATOM     25  H   UNL     1     -31.696  26.465   4.795  0.00  0.00    +0.211 HD
ENDBRANCH  23  24
BRANCH  23  26
ATOM     26  C   UNL     1     -32.162  29.296   4.239  0.00  0.00    +0.040 C 
BRANCH  26  27
ATOM     27  C   UNL     1     -31.424  29.430   5.601  0.00  0.00    +0.003 C 
ATOM     28  C   UNL     1     -31.836  30.683   6.376  0.00  0.00    +0.000 C 
BRANCH  27  29
ATOM     29  C   UNL     1     -29.898  29.407   5.322  0.00  0.00    +0.002 C 
BRANCH  29  30
ATOM     30  C   UNL     1     -28.966  29.390   6.556  0.00  0.00    +0.027 C 
ATOM     31  C   UNL     1     -27.940  30.529   6.509  0.00  0.00    +0.002 C 
BRANCH  30  32
ATOM     32  C   UNL     1     -28.306  27.998   6.725  0.00  0.00    +0.111 C 
ATOM     33  C   UNL     1     -27.199  27.918   7.772  0.00  0.00    +0.032 C 
BRANCH  32  34
ATOM     34  O   UNL     1     -29.307  27.027   7.044  0.00  0.00    -0.384 OA
ATOM     35  H   UNL     1     -28.955  26.405   7.699  0.00  0.00    +0.210 HD
ENDBRANCH  32  34
ENDBRANCH  30  32
ENDBRANCH  29  30
ENDBRANCH  27  29
ENDBRANCH  26  27
ENDBRANCH  23  26
BRANCH  23  36
ATOM     36  C   UNL     1     -31.890  27.318   2.653  0.00  0.00    +0.175 C 
BRANCH  36  37
ATOM     37  O   UNL     1     -31.788  25.902   2.765  0.00  0.00    -0.379 OA
ATOM     38  H   UNL     1     -32.232  25.610   3.576  0.00  0.00    +0.211 HD
ENDBRANCH  36  37
ENDBRANCH  23  36
ENDBRANCH  22  23
ENDBRANCH   1  22
TORSDOF 15
ENDMDL
MODEL 5
REMARK VINA RESULT:      -5.9      2.804      5.941
REMARK  Name = 53360339
REMARK  15 active torsions:
REMARK  status: ('A' for Active; 'I' for Inactive)
REMARK    1  A    between atoms: O_1  and  C_10
REMARK    2  A    between atoms: O_1  and  C_22
REMARK    3  A    between atoms: C_6  and  C_16
REMARK    4  A    between atoms: C_16  and  C_18
REMARK    5  A    between atoms: C_18  and  O_19
REMARK    6  A    between atoms: C_22  and  C_23
REMARK    7  A    between atoms: C_23  and  O_24
REMARK    8  A    between atoms: C_23  and  C_26
REMARK    9  A    between atoms: C_23  and  C_36
REMARK   10  A    between atoms: C_26  and  C_27
REMARK   11  A    between atoms: C_27  and  C_29
REMARK   12  A    between atoms: C_29  and  C_30
REMARK   13  A    between atoms: C_30  and  C_32
REMARK   14  A    between atoms: C_32  and  O_34
REMARK   15  A    between atoms: C_36  and  O_37
REMARK                            x       y       z     vdW  Elec       q    Type
REMARK                         _______ _______ _______ _____ _____    ______ ____
ROOT
ATOM      1  O   UNL     1     -38.076  22.487   2.026  0.00  0.00    -0.446 OA
ENDROOT
BRANCH   1  10
ATOM      2  O   UNL     1     -40.678  26.964   0.643  0.00  0.00    -0.344 OA
ATOM      3  O   UNL     1     -43.127  24.731   1.140  0.00  0.00    -0.288 OA
ATOM      4  C   UNL     1     -39.007  25.489   1.804  0.00  0.00    +0.047 C 
ATOM      5  C   UNL     1     -40.034  26.617   1.876  0.00  0.00    +0.155 C 
ATOM      6  C   UNL     1     -41.485  26.329   1.649  0.00  0.00    +0.190 C 
ATOM      7  C   UNL     1     -37.805  25.965   0.905  0.00  0.00    +0.006 C 
ATOM      8  C   UNL     1     -39.585  24.178   1.225  0.00  0.00    -0.000 C 
ATOM      9  C   UNL     1     -36.796  24.839   0.606  0.00  0.00    +0.004 C 
ATOM     10  C   UNL     1     -38.606  23.083   0.847  0.00  0.00    +0.187 C 
ATOM     11  C   UNL     1     -38.560  25.218   3.264  0.00  0.00    +0.007 C 
ATOM     12  C   UNL     1     -41.936  24.986   1.263  0.00  0.00    +0.203 C 
ATOM     13  C   UNL     1     -37.476  23.627  -0.024  0.00  0.00    +0.048 C 
ATOM     14  C   UNL     1     -40.895  23.969   1.001  0.00  0.00    +0.035 C 
ATOM     15  C   UNL     1     -37.042  27.173   1.468  0.00  0.00    +0.000 C 
BRANCH   6  16
ATOM     16  C   UNL     1     -42.436  27.073   2.469  0.00  0.00    +0.018 C 
ATOM     17  C   UNL     1     -42.728  26.745   3.738  0.00  0.00    -0.004 C 
BRANCH  16  18
ATOM     18  C   UNL     1     -43.107  28.253   1.816  0.00  0.00    +0.162 C 
BRANCH  18  19
ATOM     19  O   UNL     1     -42.237  29.377   1.864  0.00  0.00    -0.377 OA
ATOM     20  H   UNL     1     -42.724  30.174   1.600  0.00  0.00    +0.211 HD
ENDBRANCH  18  19
ENDBRANCH  16  18
ENDBRANCH   6  16
ENDBRANCH   1  10
BRANCH   1  22
ATOM     21  O   UNL     1     -37.590  20.424   1.122  0.00  0.00    -0.247 OA
ATOM     22  C   UNL     1     -37.299  21.380   1.831  0.00  0.00    +0.344 C 
BRANCH  22  23
ATOM     23  C   UNL     1     -36.000  21.496   2.623  0.00  0.00    +0.204 C 
BRANCH  23  24
ATOM     24  O   UNL     1     -35.804  20.264   3.312  0.00  0.00    -0.375 OA
ATOM     25  H   UNL     1     -34.857  20.057   3.344  0.00  0.00    +0.211 HD
ENDBRANCH  23  24
BRANCH  23  26
ATOM     26  C   UNL     1     -36.053  22.639   3.663  0.00  0.00    +0.040 C 
BRANCH  26  27
ATOM     27  C   UNL     1     -34.993  22.622   4.800  0.00  0.00    +0.003 C 
ATOM     28  C   UNL     1     -35.599  22.309   6.169  0.00  0.00    +0.000 C 
BRANCH  27  29
ATOM     29  C   UNL     1     -34.266  23.992   4.796  0.00  0.00    +0.002 C 
BRANCH  29  30
ATOM     30  C   UNL     1     -34.756  25.036   3.766  0.00  0.00    +0.027 C 
ATOM     31  C   UNL     1     -33.693  25.326   2.700  0.00  0.00    +0.002 C 
BRANCH  30  32
ATOM     32  C   UNL     1     -35.250  26.320   4.481  0.00  0.00    +0.111 C 
ATOM     33  C   UNL     1     -36.102  26.092   5.727  0.00  0.00    +0.032 C 
BRANCH  32  34
ATOM     34  O   UNL     1     -34.129  27.132   4.838  0.00  0.00    -0.384 OA
ATOM     35  H   UNL     1     -33.620  27.346   4.041  0.00  0.00    +0.210 HD
ENDBRANCH  32  34
ENDBRANCH  30  32
ENDBRANCH  29  30
ENDBRANCH  27  29
ENDBRANCH  26  27
ENDBRANCH  23  26
BRANCH  23  36
ATOM     36  C   UNL     1     -34.824  21.673   1.648  0.00  0.00    +0.175 C 
BRANCH  36  37
ATOM     37  O   UNL     1     -34.395  20.407   1.157  0.00  0.00    -0.379 OA
ATOM     38  H   UNL     1     -34.989  19.714   1.487  0.00  0.00    +0.211 HD
ENDBRANCH  36  37
ENDBRANCH  23  36
ENDBRANCH  22  23
ENDBRANCH   1  22
TORSDOF 15
ENDMDL
MODEL 6
REMARK VINA RESULT:      -5.7      2.854      8.329
REMARK  Name = 53360339
REMARK  15 active torsions:
REMARK  status: ('A' for Active; 'I' for Inactive)
REMARK    1  A    between atoms: O_1  and  C_10
REMARK    2  A    between atoms: O_1  and  C_22
REMARK    3  A    between atoms: C_6  and  C_16
REMARK    4  A    between atoms: C_16  and  C_18
REMARK    5  A    between atoms: C_18  and  O_19
REMARK    6  A    between atoms: C_22  and  C_23
REMARK    7  A    between atoms: C_23  and  O_24
REMARK    8  A    between atoms: C_23  and  C_26
REMARK    9  A    between atoms: C_23  and  C_36
REMARK   10  A    between atoms: C_26  and  C_27
REMARK   11  A    between atoms: C_27  and  C_29
REMARK   12  A    between atoms: C_29  and  C_30
REMARK   13  A    between atoms: C_30  and  C_32
REMARK   14  A    between atoms: C_32  and  O_34
REMARK   15  A    between atoms: C_36  and  O_37
REMARK                            x       y       z     vdW  Elec       q    Type
REMARK                         _______ _______ _______ _____ _____    ______ ____
ROOT
ATOM      1  O   UNL     1     -36.365  23.135   2.382  0.00  0.00    -0.446 OA
ENDROOT
BRANCH   1  10
ATOM      2  O   UNL     1     -35.036  28.149   3.734  0.00  0.00    -0.344 OA
ATOM      3  O   UNL     1     -33.087  26.245   5.686  0.00  0.00    -0.288 OA
ATOM      4  C   UNL     1     -35.593  26.188   2.264  0.00  0.00    +0.047 C 
ATOM      5  C   UNL     1     -34.701  27.391   2.563  0.00  0.00    +0.155 C 
ATOM      6  C   UNL     1     -33.816  27.389   3.771  0.00  0.00    +0.190 C 
ATOM      7  C   UNL     1     -37.042  26.709   1.938  0.00  0.00    +0.006 C 
ATOM      8  C   UNL     1     -35.667  25.181   3.434  0.00  0.00    -0.000 C 
ATOM      9  C   UNL     1     -38.074  25.572   1.805  0.00  0.00    +0.004 C 
ATOM     10  C   UNL     1     -36.728  24.099   3.366  0.00  0.00    +0.187 C 
ATOM     11  C   UNL     1     -34.954  25.470   1.046  0.00  0.00    +0.007 C 
ATOM     12  C   UNL     1     -33.855  26.281   4.734  0.00  0.00    +0.203 C 
ATOM     13  C   UNL     1     -38.100  24.687   3.048  0.00  0.00    +0.048 C 
ATOM     14  C   UNL     1     -34.877  25.233   4.522  0.00  0.00    +0.035 C 
ATOM     15  C   UNL     1     -37.123  27.595   0.687  0.00  0.00    +0.000 C 
BRANCH   6  16
ATOM     16  C   UNL     1     -32.506  28.014   3.622  0.00  0.00    +0.018 C 
ATOM     17  C   UNL     1     -31.554  27.541   2.800  0.00  0.00    -0.004 C 
BRANCH  16  18
ATOM     18  C   UNL     1     -32.247  29.242   4.456  0.00  0.00    +0.162 C 
BRANCH  18  19
ATOM     19  O   UNL     1     -33.264  30.204   4.209  0.00  0.00    -0.377 OA
ATOM     20  H   UNL     1     -34.121  29.848   4.492  0.00  0.00    +0.211 HD
ENDBRANCH  18  19
ENDBRANCH  16  18
ENDBRANCH   6  16
ENDBRANCH   1  10
BRANCH   1  22
ATOM     21  O   UNL     1     -35.515  21.638   3.913  0.00  0.00    -0.247 OA
ATOM     22  C   UNL     1     -36.083  21.885   2.856  0.00  0.00    +0.344 C 
BRANCH  22  23
ATOM     23  C   UNL     1     -36.580  20.822   1.880  0.00  0.00    +0.204 C 
BRANCH  23  24
ATOM     24  O   UNL     1     -36.794  19.623   2.622  0.00  0.00    -0.375 OA
ATOM     25  H   UNL     1     -37.499  19.767   3.273  0.00  0.00    +0.211 HD
ENDBRANCH  23  24
BRANCH  23  26
ATOM     26  C   UNL     1     -35.552  20.533   0.763  0.00  0.00    +0.040 C 
BRANCH  26  27
ATOM     27  C   UNL     1     -34.049  20.512   1.161  0.00  0.00    +0.003 C 
ATOM     28  C   UNL     1     -33.149  21.160   0.108  0.00  0.00    +0.000 C 
BRANCH  27  29
ATOM     29  C   UNL     1     -33.647  19.038   1.428  0.00  0.00    +0.002 C 
BRANCH  29  30
ATOM     30  C   UNL     1     -33.248  18.192   0.196  0.00  0.00    +0.027 C 
ATOM     31  C   UNL     1     -34.352  17.202  -0.196  0.00  0.00    +0.002 C 
BRANCH  30  32
ATOM     32  C   UNL     1     -31.880  17.500   0.426  0.00  0.00    +0.111 C 
ATOM     33  C   UNL     1     -30.745  17.972  -0.478  0.00  0.00    +0.032 C 
BRANCH  32  34
ATOM     34  O   UNL     1     -31.479  17.669   1.788  0.00  0.00    -0.384 OA
ATOM     35  H   UNL     1     -31.471  16.807   2.231  0.00  0.00    +0.210 HD
ENDBRANCH  32  34
ENDBRANCH  30  32
ENDBRANCH  29  30
ENDBRANCH  27  29
ENDBRANCH  26  27
ENDBRANCH  23  26
BRANCH  23  36
ATOM     36  C   UNL     1     -37.937  21.257   1.303  0.00  0.00    +0.175 C 
BRANCH  36  37
ATOM     37  O   UNL     1     -38.938  21.221   2.314  0.00  0.00    -0.379 OA
ATOM     38  H   UNL     1     -39.807  21.088   1.903  0.00  0.00    +0.211 HD
ENDBRANCH  36  37
ENDBRANCH  23  36
ENDBRANCH  22  23
ENDBRANCH   1  22
TORSDOF 15
ENDMDL
MODEL 7
REMARK VINA RESULT:      -5.7      2.575      8.384
REMARK  Name = 53360339
REMARK  15 active torsions:
REMARK  status: ('A' for Active; 'I' for Inactive)
REMARK    1  A    between atoms: O_1  and  C_10
REMARK    2  A    between atoms: O_1  and  C_22
REMARK    3  A    between atoms: C_6  and  C_16
REMARK    4  A    between atoms: C_16  and  C_18
REMARK    5  A    between atoms: C_18  and  O_19
REMARK    6  A    between atoms: C_22  and  C_23
REMARK    7  A    between atoms: C_23  and  O_24
REMARK    8  A    between atoms: C_23  and  C_26
REMARK    9  A    between atoms: C_23  and  C_36
REMARK   10  A    between atoms: C_26  and  C_27
REMARK   11  A    between atoms: C_27  and  C_29
REMARK   12  A    between atoms: C_29  and  C_30
REMARK   13  A    between atoms: C_30  and  C_32
REMARK   14  A    between atoms: C_32  and  O_34
REMARK   15  A    between atoms: C_36  and  O_37
REMARK                            x       y       z     vdW  Elec       q    Type
REMARK                         _______ _______ _______ _____ _____    ______ ____
ROOT
ATOM      1  O   UNL     1     -35.526  23.301   3.069  0.00  0.00    -0.446 OA
ENDROOT
BRANCH   1  10
ATOM      2  O   UNL     1     -34.705  28.555   3.742  0.00  0.00    -0.344 OA
ATOM      3  O   UNL     1     -32.481  27.122   5.800  0.00  0.00    -0.288 OA
ATOM      4  C   UNL     1     -35.101  26.379   2.548  0.00  0.00    +0.047 C 
ATOM      5  C   UNL     1     -34.336  27.697   2.654  0.00  0.00    +0.155 C 
ATOM      6  C   UNL     1     -33.408  27.937   3.804  0.00  0.00    +0.190 C 
ATOM      7  C   UNL     1     -36.610  26.701   2.240  0.00  0.00    +0.006 C 
ATOM      8  C   UNL     1     -35.016  25.523   3.831  0.00  0.00    -0.000 C 
ATOM      9  C   UNL     1     -37.515  25.455   2.298  0.00  0.00    +0.004 C 
ATOM     10  C   UNL     1     -35.953  24.336   3.949  0.00  0.00    +0.187 C 
ATOM     11  C   UNL     1     -34.436  25.587   1.392  0.00  0.00    +0.007 C 
ATOM     12  C   UNL     1     -33.286  26.959   4.892  0.00  0.00    +0.203 C 
ATOM     13  C   UNL     1     -37.394  24.734   3.637  0.00  0.00    +0.048 C 
ATOM     14  C   UNL     1     -34.194  25.792   4.861  0.00  0.00    +0.035 C 
ATOM     15  C   UNL     1     -36.838  27.413   0.898  0.00  0.00    +0.000 C 
BRANCH   6  16
ATOM     16  C   UNL     1     -32.181  28.672   3.512  0.00  0.00    +0.018 C 
ATOM     17  C   UNL     1     -31.109  28.112   2.927  0.00  0.00    -0.004 C 
BRANCH  16  18
ATOM     18  C   UNL     1     -32.155  30.124   3.912  0.00  0.00    +0.162 C 
BRANCH  18  19
ATOM     19  O   UNL     1     -32.536  30.246   5.276  0.00  0.00    -0.377 OA
ATOM     20  H   UNL     1     -32.569  29.365   5.683  0.00  0.00    +0.211 HD
ENDBRANCH  18  19
ENDBRANCH  16  18
ENDBRANCH   6  16
ENDBRANCH   1  10
BRANCH   1  22
ATOM     21  O   UNL     1     -35.506  21.654   4.680  0.00  0.00    -0.247 OA
ATOM     22  C   UNL     1     -35.700  22.026   3.529  0.00  0.00    +0.344 C 
BRANCH  22  23
ATOM     23  C   UNL     1     -36.176  21.114   2.401  0.00  0.00    +0.204 C 
BRANCH  23  24
ATOM     24  O   UNL     1     -36.546  19.867   2.983  0.00  0.00    -0.375 OA
ATOM     25  H   UNL     1     -37.396  19.578   2.616  0.00  0.00    +0.211 HD
ENDBRANCH  23  24
BRANCH  23  26
ATOM     26  C   UNL     1     -35.069  20.860   1.353  0.00  0.00    +0.040 C 
BRANCH  26  27
ATOM     27  C   UNL     1     -34.644  19.385   1.105  0.00  0.00    +0.003 C 
ATOM     28  C   UNL     1     -33.125  19.207   1.061  0.00  0.00    +0.000 C 
BRANCH  27  29
ATOM     29  C   UNL     1     -35.314  18.909  -0.210  0.00  0.00    +0.002 C 
BRANCH  29  30
ATOM     30  C   UNL     1     -36.745  18.334  -0.093  0.00  0.00    +0.027 C 
ATOM     31  C   UNL     1     -36.791  16.846  -0.462  0.00  0.00    +0.002 C 
BRANCH  30  32
ATOM     32  C   UNL     1     -37.745  19.184  -0.916  0.00  0.00    +0.111 C 
ATOM     33  C   UNL     1     -38.059  18.660  -2.314  0.00  0.00    +0.032 C 
BRANCH  32  34
ATOM     34  O   UNL     1     -38.972  19.317  -0.193  0.00  0.00    -0.384 OA
ATOM     35  H   UNL     1     -38.833  19.895   0.573  0.00  0.00    +0.210 HD
ENDBRANCH  32  34
ENDBRANCH  30  32
ENDBRANCH  29  30
ENDBRANCH  27  29
ENDBRANCH  26  27
ENDBRANCH  23  26
BRANCH  23  36
ATOM     36  C   UNL     1     -37.437  21.717   1.759  0.00  0.00    +0.175 C 
BRANCH  36  37
ATOM     37  O   UNL     1     -38.600  21.049   2.234  0.00  0.00    -0.379 OA
ATOM     38  H   UNL     1     -39.162  21.679   2.713  0.00  0.00    +0.211 HD
ENDBRANCH  36  37
ENDBRANCH  23  36
ENDBRANCH  22  23
ENDBRANCH   1  22
TORSDOF 15
ENDMDL
MODEL 8
REMARK VINA RESULT:      -5.7      2.911      9.039
REMARK  Name = 53360339
REMARK  15 active torsions:
REMARK  status: ('A' for Active; 'I' for Inactive)
REMARK    1  A    between atoms: O_1  and  C_10
REMARK    2  A    between atoms: O_1  and  C_22
REMARK    3  A    between atoms: C_6  and  C_16
REMARK    4  A    between atoms: C_16  and  C_18
REMARK    5  A    between atoms: C_18  and  O_19
REMARK    6  A    between atoms: C_22  and  C_23
REMARK    7  A    between atoms: C_23  and  O_24
REMARK    8  A    between atoms: C_23  and  C_26
REMARK    9  A    between atoms: C_23  and  C_36
REMARK   10  A    between atoms: C_26  and  C_27
REMARK   11  A    between atoms: C_27  and  C_29
REMARK   12  A    between atoms: C_29  and  C_30
REMARK   13  A    between atoms: C_30  and  C_32
REMARK   14  A    between atoms: C_32  and  O_34
REMARK   15  A    between atoms: C_36  and  O_37
REMARK                            x       y       z     vdW  Elec       q    Type
REMARK                         _______ _______ _______ _____ _____    ______ ____
ROOT
ATOM      1  O   UNL     1     -33.180  29.370   2.815  0.00  0.00    -0.446 OA
ENDROOT
BRANCH   1  10
ATOM      2  O   UNL     1     -28.798  30.777   5.564  0.00  0.00    -0.344 OA
ATOM      3  O   UNL     1     -30.817  29.456   7.890  0.00  0.00    -0.288 OA
ATOM      4  C   UNL     1     -30.190  29.807   3.709  0.00  0.00    +0.047 C 
ATOM      5  C   UNL     1     -29.011  29.674   4.671  0.00  0.00    +0.155 C 
ATOM      6  C   UNL     1     -29.252  29.541   6.143  0.00  0.00    +0.190 C 
ATOM      7  C   UNL     1     -29.899  31.000   2.725  0.00  0.00    +0.006 C 
ATOM      8  C   UNL     1     -31.535  30.057   4.427  0.00  0.00    -0.000 C 
ATOM      9  C   UNL     1     -31.105  31.348   1.830  0.00  0.00    +0.004 C 
ATOM     10  C   UNL     1     -32.718  30.480   3.579  0.00  0.00    +0.187 C 
ATOM     11  C   UNL     1     -30.287  28.453   2.957  0.00  0.00    +0.007 C 
ATOM     12  C   UNL     1     -30.610  29.628   6.695  0.00  0.00    +0.203 C 
ATOM     13  C   UNL     1     -32.354  31.641   2.657  0.00  0.00    +0.048 C 
ATOM     14  C   UNL     1     -31.704  29.963   5.759  0.00  0.00    +0.035 C 
ATOM     15  C   UNL     1     -28.668  30.791   1.831  0.00  0.00    +0.000 C 
BRANCH   6  16
ATOM     16  C   UNL     1     -28.359  28.650   6.874  0.00  0.00    +0.018 C 
ATOM     17  C   UNL     1     -28.471  27.311   6.848  0.00  0.00    -0.004 C 
BRANCH  16  18
ATOM     18  C   UNL     1     -27.276  29.304   7.693  0.00  0.00    +0.162 C 
BRANCH  18  19
ATOM     19  O   UNL     1     -27.867  30.194   8.631  0.00  0.00    -0.377 OA
ATOM     20  H   UNL     1     -27.264  30.321   9.380  0.00  0.00    +0.211 HD
ENDBRANCH  18  19
ENDBRANCH  16  18
ENDBRANCH   6  16
ENDBRANCH   1  10
BRANCH   1  22
ATOM     21  O   UNL     1     -35.414  29.861   3.091  0.00  0.00    -0.247 OA
ATOM     22  C   UNL     1     -34.500  29.054   2.970  0.00  0.00    +0.344 C 
BRANCH  22  23
ATOM     23  C   UNL     1     -34.687  27.539   2.971  0.00  0.00    +0.204 C 
BRANCH  23  24
ATOM     24  O   UNL     1     -35.984  27.266   3.497  0.00  0.00    -0.375 OA
ATOM     25  H   UNL     1     -36.452  28.101   3.655  0.00  0.00    +0.211 HD
ENDBRANCH  23  24
BRANCH  23  26
ATOM     26  C   UNL     1     -33.637  26.824   3.850  0.00  0.00    +0.040 C 
BRANCH  26  27
ATOM     27  C   UNL     1     -34.127  26.209   5.192  0.00  0.00    +0.003 C 
ATOM     28  C   UNL     1     -33.306  26.680   6.394  0.00  0.00    +0.000 C 
BRANCH  27  29
ATOM     29  C   UNL     1     -34.096  24.665   5.049  0.00  0.00    +0.002 C 
BRANCH  29  30
ATOM     30  C   UNL     1     -35.439  23.922   5.242  0.00  0.00    +0.027 C 
ATOM     31  C   UNL     1     -35.267  22.644   6.073  0.00  0.00    +0.002 C 
BRANCH  30  32
ATOM     32  C   UNL     1     -36.120  23.659   3.875  0.00  0.00    +0.111 C 
ATOM     33  C   UNL     1     -35.178  23.559   2.680  0.00  0.00    +0.032 C 
BRANCH  32  34
ATOM     34  O   UNL     1     -36.895  22.459   3.948  0.00  0.00    -0.384 OA
ATOM     35  H   UNL     1     -36.346  21.705   3.684  0.00  0.00    +0.210 HD
ENDBRANCH  32  34
ENDBRANCH  30  32
ENDBRANCH  29  30
ENDBRANCH  27  29
ENDBRANCH  26  27
ENDBRANCH  23  26
BRANCH  23  36
ATOM     36  C   UNL     1     -34.659  27.024   1.522  0.00  0.00    +0.175 C 
BRANCH  36  37
ATOM     37  O   UNL     1     -35.591  27.743   0.723  0.00  0.00    -0.379 OA
ATOM     38  H   UNL     1     -35.181  27.971  -0.126  0.00  0.00    +0.211 HD
ENDBRANCH  36  37
ENDBRANCH  23  36
ENDBRANCH  22  23
ENDBRANCH   1  22
TORSDOF 15
ENDMDL
MODEL 9
REMARK VINA RESULT:      -5.6      3.369      8.333
REMARK  Name = 53360339
REMARK  15 active torsions:
REMARK  status: ('A' for Active; 'I' for Inactive)
REMARK    1  A    between atoms: O_1  and  C_10
REMARK    2  A    between atoms: O_1  and  C_22
REMARK    3  A    between atoms: C_6  and  C_16
REMARK    4  A    between atoms: C_16  and  C_18
REMARK    5  A    between atoms: C_18  and  O_19
REMARK    6  A    between atoms: C_22  and  C_23
REMARK    7  A    between atoms: C_23  and  O_24
REMARK    8  A    between atoms: C_23  and  C_26
REMARK    9  A    between atoms: C_23  and  C_36
REMARK   10  A    between atoms: C_26  and  C_27
REMARK   11  A    between atoms: C_27  and  C_29
REMARK   12  A    between atoms: C_29  and  C_30
REMARK   13  A    between atoms: C_30  and  C_32
REMARK   14  A    between atoms: C_32  and  O_34
REMARK   15  A    between atoms: C_36  and  O_37
REMARK                            x       y       z     vdW  Elec       q    Type
REMARK                         _______ _______ _______ _____ _____    ______ ____
ROOT
ATOM      1  O   UNL     1     -38.049  21.136   0.369  0.00  0.00    -0.446 OA
ENDROOT
BRANCH   1  10
ATOM      2  O   UNL     1     -37.576  24.812   4.242  0.00  0.00    -0.344 OA
ATOM      3  O   UNL     1     -35.183  22.575   4.957  0.00  0.00    -0.288 OA
ATOM      4  C   UNL     1     -37.861  23.866   1.930  0.00  0.00    +0.047 C 
ATOM      5  C   UNL     1     -37.187  24.871   2.863  0.00  0.00    +0.155 C 
ATOM      6  C   UNL     1     -36.237  24.398   3.919  0.00  0.00    +0.190 C 
ATOM      7  C   UNL     1     -39.399  24.193   1.873  0.00  0.00    +0.006 C 
ATOM      8  C   UNL     1     -37.670  22.400   2.378  0.00  0.00    -0.000 C 
ATOM      9  C   UNL     1     -40.211  23.128   1.110  0.00  0.00    +0.004 C 
ATOM     10  C   UNL     1     -38.516  21.341   1.699  0.00  0.00    +0.187 C 
ATOM     11  C   UNL     1     -37.184  24.043   0.546  0.00  0.00    +0.007 C 
ATOM     12  C   UNL     1     -36.007  22.964   4.139  0.00  0.00    +0.203 C 
ATOM     13  C   UNL     1     -39.991  21.733   1.687  0.00  0.00    +0.048 C 
ATOM     14  C   UNL     1     -36.831  22.016   3.358  0.00  0.00    +0.035 C 
ATOM     15  C   UNL     1     -39.725  25.574   1.285  0.00  0.00    +0.000 C 
BRANCH   6  16
ATOM     16  C   UNL     1     -35.077  25.242   4.181  0.00  0.00    +0.018 C 
ATOM     17  C   UNL     1     -34.041  25.355   3.333  0.00  0.00    -0.004 C 
BRANCH  16  18
ATOM     18  C   UNL     1     -35.077  26.002   5.483  0.00  0.00    +0.162 C 
BRANCH  18  19
ATOM     19  O   UNL     1     -36.287  26.739   5.599  0.00  0.00    -0.377 OA
ATOM     20  H   UNL     1     -36.968  26.334   5.039  0.00  0.00    +0.211 HD
ENDBRANCH  18  19
ENDBRANCH  16  18
ENDBRANCH   6  16
ENDBRANCH   1  10
BRANCH   1  22
ATOM     21  O   UNL     1     -38.974  19.229  -0.533  0.00  0.00    -0.247 OA
ATOM     22  C   UNL     1     -38.025  19.837  -0.055  0.00  0.00    +0.344 C 
BRANCH  22  23
ATOM     23  C   UNL     1     -36.635  19.239   0.147  0.00  0.00    +0.204 C 
BRANCH  23  24
ATOM     24  O   UNL     1     -36.404  19.152   1.551  0.00  0.00    -0.375 OA
ATOM     25  H   UNL     1     -35.458  19.265   1.731  0.00  0.00    +0.211 HD
ENDBRANCH  23  24
BRANCH  23  26
ATOM     26  C   UNL     1     -35.528  20.114  -0.482  0.00  0.00    +0.040 C 
BRANCH  26  27
ATOM     27  C   UNL     1     -34.321  20.499   0.420  0.00  0.00    +0.003 C 
ATOM     28  C   UNL     1     -34.298  21.987   0.774  0.00  0.00    +0.000 C 
BRANCH  27  29
ATOM     29  C   UNL     1     -33.023  20.064  -0.309  0.00  0.00    +0.002 C 
BRANCH  29  30
ATOM     30  C   UNL     1     -32.458  18.670   0.049  0.00  0.00    +0.027 C 
ATOM     31  C   UNL     1     -32.837  18.252   1.475  0.00  0.00    +0.002 C 
BRANCH  30  32
ATOM     32  C   UNL     1     -30.929  18.618  -0.201  0.00  0.00    +0.111 C 
ATOM     33  C   UNL     1     -30.263  19.961  -0.484  0.00  0.00    +0.032 C 
BRANCH  32  34
ATOM     34  O   UNL     1     -30.279  18.013   0.920  0.00  0.00    -0.384 OA
ATOM     35  H   UNL     1     -29.644  17.351   0.606  0.00  0.00    +0.210 HD
ENDBRANCH  32  34
ENDBRANCH  30  32
ENDBRANCH  29  30
ENDBRANCH  27  29
ENDBRANCH  26  27
ENDBRANCH  23  26
BRANCH  23  36
ATOM     36  C   UNL     1     -36.613  17.807  -0.415  0.00  0.00    +0.175 C 
BRANCH  36  37
ATOM     37  O   UNL     1     -37.399  16.945   0.401  0.00  0.00    -0.379 OA
ATOM     38  H   UNL     1     -36.937  16.099   0.515  0.00  0.00    +0.211 HD
ENDBRANCH  36  37
ENDBRANCH  23  36
ENDBRANCH  22  23
ENDBRANCH   1  22
TORSDOF 15
ENDMDL
