MODEL 1
REMARK VINA RESULT:      -5.8      0.000      0.000
REMARK  Name = 51033720
REMARK  5 active torsions:
REMARK  status: ('A' for Active; 'I' for Inactive)
REMARK    1  A    between atoms: C_2  and  N_16
REMARK    2  A    between atoms: C_3  and  C_28
REMARK    3  A    between atoms: C_4  and  C_7
REMARK    4  A    between atoms: C_5  and  C_24
REMARK    5  A    between atoms: C_12  and  C_14
REMARK                            x       y       z     vdW  Elec       q    Type
REMARK                         _______ _______ _______ _____ _____    ______ ____
ROOT
ATOM      1  S   UNL     1     -38.308  22.841   2.615  0.00  0.00    -0.069 S 
ATOM      2  C   UNL     1     -38.588  24.325   1.807  0.00  0.00    +0.088 A 
ATOM      3  C   UNL     1     -37.631  25.268   2.112  0.00  0.00    +0.089 A 
ATOM      4  C   UNL     1     -36.655  24.765   3.020  0.00  0.00    +0.022 A 
ATOM      5  C   UNL     1     -36.904  23.457   3.375  0.00  0.00    +0.064 A 
ENDROOT
BRANCH   4   7
ATOM      6  F   UNL     1     -36.676  25.935   5.575  0.00  0.00    -0.204 F 
ATOM      7  C   UNL     1     -35.517  25.481   3.548  0.00  0.00    +0.029 C 
ATOM      8  C   UNL     1     -35.571  26.045   4.823  0.00  0.00    +0.141 C 
ATOM      9  C   UNL     1     -34.360  25.606   2.780  0.00  0.00    +0.003 C 
ATOM     10  C   UNL     1     -34.469  26.736   5.328  0.00  0.00    +0.040 C 
ATOM     11  C   UNL     1     -33.258  26.297   3.285  0.00  0.00    +0.010 C 
ATOM     12  C   UNL     1     -33.313  26.861   4.559  0.00  0.00    +0.071 C 
BRANCH  12  14
ATOM     13  N   UNL     1     -31.267  28.142   5.498  0.00  0.00    -0.191 NA
ATOM     14  C   UNL     1     -32.185  27.568   5.077  0.00  0.00    +0.100 C 
ENDBRANCH  12  14
ENDBRANCH   4   7
BRANCH   2  16
ATOM     15  O   UNL     1     -42.000  24.549  -0.640  0.00  0.00    -0.350 OA
ATOM     16  N   UNL     1     -39.687  24.476   0.956  0.00  0.00    -0.297 N 
ATOM     17  C   UNL     1     -40.997  24.766   1.557  0.00  0.00    +0.123 C 
ATOM     18  C   UNL     1     -39.732  23.749  -0.317  0.00  0.00    +0.123 C 
ATOM     19  C   UNL     1     -41.917  25.386   0.513  0.00  0.00    +0.164 C 
ATOM     20  C   UNL     1     -40.722  24.423  -1.262  0.00  0.00    +0.164 C 
ENDBRANCH   2  16
BRANCH   5  24
ATOM     21  N   UNL     1     -35.563  21.457   3.870  0.00  0.00    -0.218 N 
ATOM     22  N   UNL     1     -35.938  22.832   5.526  0.00  0.00    -0.206 NA
ATOM     23  N   UNL     1     -34.930  20.876   4.902  0.00  0.00    -0.157 NA
ATOM     24  C   UNL     1     -36.159  22.619   4.251  0.00  0.00    +0.155 C 
ATOM     25  C   UNL     1     -35.188  21.747   5.879  0.00  0.00    +0.218 C 
ATOM     26  H   UNL     1     -35.591  21.089   2.957  0.00  0.00    +0.176 HD
ENDBRANCH   5  24
BRANCH   3  28
ATOM     27  N   UNL     1     -37.641  27.666   1.125  0.00  0.00    -0.191 NA
ATOM     28  C   UNL     1     -37.637  26.593   1.567  0.00  0.00    +0.102 C 
ENDBRANCH   3  28
TORSDOF 5
ENDMDL
MODEL 2
REMARK VINA RESULT:      -5.8      3.793      6.242
REMARK  Name = 51033720
REMARK  5 active torsions:
REMARK  status: ('A' for Active; 'I' for Inactive)
REMARK    1  A    between atoms: C_2  and  N_16
REMARK    2  A    between atoms: C_3  and  C_28
REMARK    3  A    between atoms: C_4  and  C_7
REMARK    4  A    between atoms: C_5  and  C_24
REMARK    5  A    between atoms: C_12  and  C_14
REMARK                            x       y       z     vdW  Elec       q    Type
REMARK                         _______ _______ _______ _____ _____    ______ ____
ROOT
ATOM      1  S   UNL     1     -33.580  30.041   2.388  0.00  0.00    -0.069 S 
ATOM      2  C   UNL     1     -35.028  29.578   1.599  0.00  0.00    +0.088 A 
ATOM      3  C   UNL     1     -35.508  28.374   2.066  0.00  0.00    +0.089 A 
ATOM      4  C   UNL     1     -34.677  27.826   3.085  0.00  0.00    +0.022 A 
ATOM      5  C   UNL     1     -33.593  28.630   3.358  0.00  0.00    +0.064 A 
ENDROOT
BRANCH   4   7
ATOM      6  F   UNL     1     -33.462  25.425   2.275  0.00  0.00    -0.204 F 
ATOM      7  C   UNL     1     -34.884  26.582   3.791  0.00  0.00    +0.029 C 
ATOM      8  C   UNL     1     -34.259  25.414   3.354  0.00  0.00    +0.141 C 
ATOM      9  C   UNL     1     -35.709  26.551   4.915  0.00  0.00    +0.003 C 
ATOM     10  C   UNL     1     -34.461  24.215   4.039  0.00  0.00    +0.040 C 
ATOM     11  C   UNL     1     -35.912  25.353   5.600  0.00  0.00    +0.010 C 
ATOM     12  C   UNL     1     -35.287  24.185   5.162  0.00  0.00    +0.071 C 
BRANCH  12  14
ATOM     13  N   UNL     1     -35.664  21.961   6.433  0.00  0.00    -0.191 NA
ATOM     14  C   UNL     1     -35.495  22.958   5.863  0.00  0.00    +0.100 C 
ENDBRANCH  12  14
ENDBRANCH   4   7
BRANCH   2  16
ATOM     15  O   UNL     1     -36.510  32.197  -1.337  0.00  0.00    -0.350 OA
ATOM     16  N   UNL     1     -35.587  30.387   0.605  0.00  0.00    -0.297 N 
ATOM     17  C   UNL     1     -34.798  30.640  -0.609  0.00  0.00    +0.123 C 
ATOM     18  C   UNL     1     -36.528  31.450   0.971  0.00  0.00    +0.123 C 
ATOM     19  C   UNL     1     -35.721  31.077  -1.740  0.00  0.00    +0.164 C 
ATOM     20  C   UNL     1     -37.358  31.846  -0.245  0.00  0.00    +0.164 C 
ENDBRANCH   2  16
BRANCH   5  24
ATOM     21  N   UNL     1     -31.294  28.018   3.980  0.00  0.00    -0.218 N 
ATOM     22  N   UNL     1     -32.640  28.592   5.604  0.00  0.00    -0.206 NA
ATOM     23  N   UNL     1     -30.522  27.908   5.073  0.00  0.00    -0.157 NA
ATOM     24  C   UNL     1     -32.551  28.424   4.305  0.00  0.00    +0.155 C 
ATOM     25  C   UNL     1     -31.384  28.266   6.027  0.00  0.00    +0.218 C 
ATOM     26  H   UNL     1     -30.990  27.829   3.063  0.00  0.00    +0.176 HD
ENDBRANCH   5  24
BRANCH   3  28
ATOM     27  N   UNL     1     -37.676  27.271   1.167  0.00  0.00    -0.191 NA
ATOM     28  C   UNL     1     -36.706  27.765   1.570  0.00  0.00    +0.102 C 
ENDBRANCH   3  28
TORSDOF 5
ENDMDL
MODEL 3
REMARK VINA RESULT:      -5.7      5.353      7.029
REMARK  Name = 51033720
REMARK  5 active torsions:
REMARK  status: ('A' for Active; 'I' for Inactive)
REMARK    1  A    between atoms: C_2  and  N_16
REMARK    2  A    between atoms: C_3  and  C_28
REMARK    3  A    between atoms: C_4  and  C_7
REMARK    4  A    between atoms: C_5  and  C_24
REMARK    5  A    between atoms: C_12  and  C_14
REMARK                            x       y       z     vdW  Elec       q    Type
REMARK                         _______ _______ _______ _____ _____    ______ ____
ROOT
ATOM      1  S   UNL     1     -37.372  18.978  -0.366  0.00  0.00    -0.069 S 
ATOM      2  C   UNL     1     -35.716  18.575  -0.190  0.00  0.00    +0.088 A 
ATOM      3  C   UNL     1     -35.061  19.442   0.657  0.00  0.00    +0.089 A 
ATOM      4  C   UNL     1     -35.929  20.449   1.168  0.00  0.00    +0.022 A 
ATOM      5  C   UNL     1     -37.215  20.315   0.692  0.00  0.00    +0.064 A 
ENDROOT
BRANCH   4   7
ATOM      6  F   UNL     1     -35.041  22.957   0.263  0.00  0.00    -0.204 F 
ATOM      7  C   UNL     1     -35.574  21.513   2.078  0.00  0.00    +0.029 C 
ATOM      8  C   UNL     1     -35.139  22.744   1.584  0.00  0.00    +0.141 C 
ATOM      9  C   UNL     1     -35.669  21.310   3.454  0.00  0.00    +0.003 C 
ATOM     10  C   UNL     1     -34.797  23.769   2.467  0.00  0.00    +0.040 C 
ATOM     11  C   UNL     1     -35.328  22.335   4.337  0.00  0.00    +0.010 C 
ATOM     12  C   UNL     1     -34.892  23.564   3.843  0.00  0.00    +0.071 C 
BRANCH  12  14
ATOM     13  N   UNL     1     -34.257  25.467   5.480  0.00  0.00    -0.191 NA
ATOM     14  C   UNL     1     -34.542  24.614   4.746  0.00  0.00    +0.100 C 
ENDBRANCH  12  14
ENDBRANCH   4   7
BRANCH   2  16
ATOM     15  O   UNL     1     -34.341  15.230  -2.334  0.00  0.00    -0.350 OA
ATOM     16  N   UNL     1     -35.176  17.477  -0.866  0.00  0.00    -0.297 N 
ATOM     17  C   UNL     1     -35.103  17.532  -2.333  0.00  0.00    +0.123 C 
ATOM     18  C   UNL     1     -35.305  16.131  -0.299  0.00  0.00    +0.123 C 
ATOM     19  C   UNL     1     -34.064  16.537  -2.835  0.00  0.00    +0.164 C 
ATOM     20  C   UNL     1     -34.256  15.209  -0.910  0.00  0.00    +0.164 C 
ENDBRANCH   2  16
BRANCH   5  24
ATOM     21  N   UNL     1     -39.099  21.017   2.108  0.00  0.00    -0.218 N 
ATOM     22  N   UNL     1     -38.847  22.061   0.205  0.00  0.00    -0.206 NA
ATOM     23  N   UNL     1     -40.110  21.899   2.105  0.00  0.00    -0.157 NA
ATOM     24  C   UNL     1     -38.354  21.119   0.974  0.00  0.00    +0.155 C 
ATOM     25  C   UNL     1     -39.913  22.506   0.933  0.00  0.00    +0.218 C 
ATOM     26  H   UNL     1     -38.920  20.378   2.835  0.00  0.00    +0.176 HD
ENDBRANCH   5  24
BRANCH   3  28
ATOM     27  N   UNL     1     -32.541  19.226   1.227  0.00  0.00    -0.191 NA
ATOM     28  C   UNL     1     -33.668  19.323   0.972  0.00  0.00    +0.102 C 
ENDBRANCH   3  28
TORSDOF 5
ENDMDL
MODEL 4
REMARK VINA RESULT:      -5.6      3.721      6.720
REMARK  Name = 51033720
REMARK  5 active torsions:
REMARK  status: ('A' for Active; 'I' for Inactive)
REMARK    1  A    between atoms: C_2  and  N_16
REMARK    2  A    between atoms: C_3  and  C_28
REMARK    3  A    between atoms: C_4  and  C_7
REMARK    4  A    between atoms: C_5  and  C_24
REMARK    5  A    between atoms: C_12  and  C_14
REMARK                            x       y       z     vdW  Elec       q    Type
REMARK                         _______ _______ _______ _____ _____    ______ ____
ROOT
ATOM      1  S   UNL     1     -36.056  28.845   1.470  0.00  0.00    -0.069 S 
ATOM      2  C   UNL     1     -34.523  28.955   2.225  0.00  0.00    +0.088 A 
ATOM      3  C   UNL     1     -34.220  27.820   2.946  0.00  0.00    +0.089 A 
ATOM      4  C   UNL     1     -35.260  26.849   2.876  0.00  0.00    +0.022 A 
ATOM      5  C   UNL     1     -36.318  27.278   2.105  0.00  0.00    +0.064 A 
ENDROOT
BRANCH   4   7
ATOM      6  F   UNL     1     -36.000  26.503   5.564  0.00  0.00    -0.204 F 
ATOM      7  C   UNL     1     -35.272  25.550   3.509  0.00  0.00    +0.029 C 
ATOM      8  C   UNL     1     -35.648  25.425   4.848  0.00  0.00    +0.141 C 
ATOM      9  C   UNL     1     -34.909  24.419   2.780  0.00  0.00    +0.003 C 
ATOM     10  C   UNL     1     -35.658  24.170   5.455  0.00  0.00    +0.040 C 
ATOM     11  C   UNL     1     -34.919  23.163   3.387  0.00  0.00    +0.010 C 
ATOM     12  C   UNL     1     -35.294  23.039   4.724  0.00  0.00    +0.071 C 
BRANCH  12  14
ATOM     13  N   UNL     1     -35.315  20.709   5.854  0.00  0.00    -0.191 NA
ATOM     14  C   UNL     1     -35.305  21.753   5.347  0.00  0.00    +0.100 C 
ENDBRANCH  12  14
ENDBRANCH   4   7
BRANCH   2  16
ATOM     15  O   UNL     1     -32.389  32.541   1.716  0.00  0.00    -0.350 OA
ATOM     16  N   UNL     1     -33.736  30.101   2.077  0.00  0.00    -0.297 N 
ATOM     17  C   UNL     1     -33.935  31.207   3.024  0.00  0.00    +0.123 C 
ATOM     18  C   UNL     1     -33.264  30.497   0.746  0.00  0.00    +0.123 C 
ATOM     19  C   UNL     1     -32.702  32.102   3.037  0.00  0.00    +0.164 C 
ATOM     20  C   UNL     1     -32.066  31.431   0.880  0.00  0.00    +0.164 C 
ENDBRANCH   2  16
BRANCH   5  24
ATOM     21  N   UNL     1     -37.746  25.904   0.648  0.00  0.00    -0.218 N 
ATOM     22  N   UNL     1     -38.593  26.525   2.565  0.00  0.00    -0.206 NA
ATOM     23  N   UNL     1     -38.973  25.362   0.632  0.00  0.00    -0.157 NA
ATOM     24  C   UNL     1     -37.528  26.594   1.800  0.00  0.00    +0.155 C 
ATOM     25  C   UNL     1     -39.444  25.767   1.813  0.00  0.00    +0.218 C 
ATOM     26  H   UNL     1     -37.088  25.814  -0.079  0.00  0.00    +0.176 HD
ENDBRANCH   5  24
BRANCH   3  28
ATOM     27  N   UNL     1     -32.003  27.528   4.259  0.00  0.00    -0.191 NA
ATOM     28  C   UNL     1     -32.995  27.659   3.672  0.00  0.00    +0.102 C 
ENDBRANCH   3  28
TORSDOF 5
ENDMDL
MODEL 5
REMARK VINA RESULT:      -5.5      3.127      4.586
REMARK  Name = 51033720
REMARK  5 active torsions:
REMARK  status: ('A' for Active; 'I' for Inactive)
REMARK    1  A    between atoms: C_2  and  N_16
REMARK    2  A    between atoms: C_3  and  C_28
REMARK    3  A    between atoms: C_4  and  C_7
REMARK    4  A    between atoms: C_5  and  C_24
REMARK    5  A    between atoms: C_12  and  C_14
REMARK                            x       y       z     vdW  Elec       q    Type
REMARK                         _______ _______ _______ _____ _____    ______ ____
ROOT
ATOM      1  S   UNL     1     -38.258  24.478   2.944  0.00  0.00    -0.069 S 
ATOM      2  C   UNL     1     -38.648  24.136   1.312  0.00  0.00    +0.088 A 
ATOM      3  C   UNL     1     -37.741  23.275   0.734  0.00  0.00    +0.089 A 
ATOM      4  C   UNL     1     -36.714  22.891   1.642  0.00  0.00    +0.022 A 
ATOM      5  C   UNL     1     -36.873  23.473   2.880  0.00  0.00    +0.064 A 
ENDROOT
BRANCH   4   7
ATOM      6  F   UNL     1     -36.720  20.201   2.452  0.00  0.00    -0.204 F 
ATOM      7  C   UNL     1     -35.607  22.003   1.369  0.00  0.00    +0.029 C 
ATOM      8  C   UNL     1     -35.654  20.673   1.789  0.00  0.00    +0.141 C 
ATOM      9  C   UNL     1     -34.491  22.477   0.681  0.00  0.00    +0.003 C 
ATOM     10  C   UNL     1     -34.583  19.820   1.523  0.00  0.00    +0.040 C 
ATOM     11  C   UNL     1     -33.420  21.624   0.415  0.00  0.00    +0.010 C 
ATOM     12  C   UNL     1     -33.466  20.295   0.836  0.00  0.00    +0.071 C 
BRANCH  12  14
ATOM     13  N   UNL     1     -31.479  18.710   0.344  0.00  0.00    -0.191 NA
ATOM     14  C   UNL     1     -32.370  19.420   0.564  0.00  0.00    +0.100 C 
ENDBRANCH  12  14
ENDBRANCH   4   7
BRANCH   2  16
ATOM     15  O   UNL     1     -42.034  26.051  -0.283  0.00  0.00    -0.350 OA
ATOM     16  N   UNL     1     -39.775  24.710   0.715  0.00  0.00    -0.297 N 
ATOM     17  C   UNL     1     -39.647  26.058   0.144  0.00  0.00    +0.123 C 
ATOM     18  C   UNL     1     -41.116  24.360   1.194  0.00  0.00    +0.123 C 
ATOM     19  C   UNL     1     -40.758  26.295  -0.872  0.00  0.00    +0.164 C 
ATOM     20  C   UNL     1     -42.149  24.688   0.122  0.00  0.00    +0.164 C 
ENDBRANCH   2  16
BRANCH   5  24
ATOM     21  N   UNL     1     -36.299  22.438   5.036  0.00  0.00    -0.218 N 
ATOM     22  N   UNL     1     -34.979  24.024   4.316  0.00  0.00    -0.206 NA
ATOM     23  N   UNL     1     -35.370  22.526   6.000  0.00  0.00    -0.157 NA
ATOM     24  C   UNL     1     -36.059  23.332   4.039  0.00  0.00    +0.155 C 
ATOM     25  C   UNL     1     -34.596  23.499   5.517  0.00  0.00    +0.218 C 
ATOM     26  H   UNL     1     -37.055  21.808   5.048  0.00  0.00    +0.176 HD
ENDBRANCH   5  24
BRANCH   3  28
ATOM     27  N   UNL     1     -37.924  22.473  -1.725  0.00  0.00    -0.191 NA
ATOM     28  C   UNL     1     -37.842  22.832  -0.625  0.00  0.00    +0.102 C 
ENDBRANCH   3  28
TORSDOF 5
ENDMDL
MODEL 6
REMARK VINA RESULT:      -5.5      1.719      2.033
REMARK  Name = 51033720
REMARK  5 active torsions:
REMARK  status: ('A' for Active; 'I' for Inactive)
REMARK    1  A    between atoms: C_2  and  N_16
REMARK    2  A    between atoms: C_3  and  C_28
REMARK    3  A    between atoms: C_4  and  C_7
REMARK    4  A    between atoms: C_5  and  C_24
REMARK    5  A    between atoms: C_12  and  C_14
REMARK                            x       y       z     vdW  Elec       q    Type
REMARK                         _______ _______ _______ _____ _____    ______ ____
ROOT
ATOM      1  S   UNL     1     -38.880  24.301   3.312  0.00  0.00    -0.069 S 
ATOM      2  C   UNL     1     -38.937  25.757   2.412  0.00  0.00    +0.088 A 
ATOM      3  C   UNL     1     -37.678  26.250   2.147  0.00  0.00    +0.089 A 
ATOM      4  C   UNL     1     -36.654  25.422   2.691  0.00  0.00    +0.022 A 
ATOM      5  C   UNL     1     -37.169  24.328   3.350  0.00  0.00    +0.064 A 
ENDROOT
BRANCH   4   7
ATOM      6  F   UNL     1     -35.220  26.783   4.687  0.00  0.00    -0.204 F 
ATOM      7  C   UNL     1     -35.229  25.641   2.600  0.00  0.00    +0.029 C 
ATOM      8  C   UNL     1     -34.557  26.321   3.617  0.00  0.00    +0.141 C 
ATOM      9  C   UNL     1     -34.523  25.168   1.495  0.00  0.00    +0.003 C 
ATOM     10  C   UNL     1     -33.181  26.530   3.525  0.00  0.00    +0.040 C 
ATOM     11  C   UNL     1     -33.147  25.377   1.403  0.00  0.00    +0.010 C 
ATOM     12  C   UNL     1     -32.476  26.057   2.418  0.00  0.00    +0.071 C 
BRANCH  12  14
ATOM     13  N   UNL     1     -29.921  26.444   2.250  0.00  0.00    -0.191 NA
ATOM     14  C   UNL     1     -31.066  26.271   2.325  0.00  0.00    +0.100 C 
ENDBRANCH  12  14
ENDBRANCH   4   7
BRANCH   2  16
ATOM     15  O   UNL     1     -42.739  27.175   1.312  0.00  0.00    -0.350 OA
ATOM     16  N   UNL     1     -40.163  26.311   2.032  0.00  0.00    -0.297 N 
ATOM     17  C   UNL     1     -41.227  26.400   3.043  0.00  0.00    +0.123 C 
ATOM     18  C   UNL     1     -40.627  26.183   0.647  0.00  0.00    +0.123 C 
ATOM     19  C   UNL     1     -42.249  27.450   2.624  0.00  0.00    +0.164 C 
ATOM     20  C   UNL     1     -41.683  27.244   0.356  0.00  0.00    +0.164 C 
ENDBRANCH   2  16
BRANCH   5  24
ATOM     21  N   UNL     1     -36.181  22.077   3.450  0.00  0.00    -0.218 N 
ATOM     22  N   UNL     1     -36.003  23.318   5.240  0.00  0.00    -0.206 NA
ATOM     23  N   UNL     1     -35.514  21.288   4.306  0.00  0.00    -0.157 NA
ATOM     24  C   UNL     1     -36.469  23.282   4.014  0.00  0.00    +0.155 C 
ATOM     25  C   UNL     1     -35.432  22.085   5.373  0.00  0.00    +0.218 C 
ATOM     26  H   UNL     1     -36.430  21.819   2.534  0.00  0.00    +0.176 HD
ENDBRANCH   5  24
BRANCH   3  28
ATOM     27  N   UNL     1     -37.267  28.434   0.812  0.00  0.00    -0.191 NA
ATOM     28  C   UNL     1     -37.451  27.457   1.410  0.00  0.00    +0.102 C 
ENDBRANCH   3  28
TORSDOF 5
ENDMDL
MODEL 7
REMARK VINA RESULT:      -5.5      4.281      6.271
REMARK  Name = 51033720
REMARK  5 active torsions:
REMARK  status: ('A' for Active; 'I' for Inactive)
REMARK    1  A    between atoms: C_2  and  N_16
REMARK    2  A    between atoms: C_3  and  C_28
REMARK    3  A    between atoms: C_4  and  C_7
REMARK    4  A    between atoms: C_5  and  C_24
REMARK    5  A    between atoms: C_12  and  C_14
REMARK                            x       y       z     vdW  Elec       q    Type
REMARK                         _______ _______ _______ _____ _____    ______ ____
ROOT
ATOM      1  S   UNL     1     -34.908  20.527   2.111  0.00  0.00    -0.069 S 
ATOM      2  C   UNL     1     -35.743  20.308   0.631  0.00  0.00    +0.088 A 
ATOM      3  C   UNL     1     -36.766  21.218   0.476  0.00  0.00    +0.089 A 
ATOM      4  C   UNL     1     -36.864  22.107   1.585  0.00  0.00    +0.022 A 
ATOM      5  C   UNL     1     -35.914  21.842   2.547  0.00  0.00    +0.064 A 
ENDROOT
BRANCH   4   7
ATOM      6  F   UNL     1     -39.485  21.650   2.489  0.00  0.00    -0.204 F 
ATOM      7  C   UNL     1     -37.818  23.179   1.751  0.00  0.00    +0.029 C 
ATOM      8  C   UNL     1     -39.110  22.906   2.203  0.00  0.00    +0.141 C 
ATOM      9  C   UNL     1     -37.446  24.490   1.458  0.00  0.00    +0.003 C 
ATOM     10  C   UNL     1     -40.028  23.944   2.361  0.00  0.00    +0.040 C 
ATOM     11  C   UNL     1     -38.364  25.529   1.616  0.00  0.00    +0.010 C 
ATOM     12  C   UNL     1     -39.654  25.256   2.068  0.00  0.00    +0.071 C 
BRANCH  12  14
ATOM     13  N   UNL     1     -41.359  27.183   2.362  0.00  0.00    -0.191 NA
ATOM     14  C   UNL     1     -40.595  26.319   2.230  0.00  0.00    +0.100 C 
ENDBRANCH  12  14
ENDBRANCH   4   7
BRANCH   2  16
ATOM     15  O   UNL     1     -34.520  17.118  -1.819  0.00  0.00    -0.350 OA
ATOM     16  N   UNL     1     -35.365  19.296  -0.256  0.00  0.00    -0.297 N 
ATOM     17  C   UNL     1     -36.076  18.011  -0.187  0.00  0.00    +0.123 C 
ATOM     18  C   UNL     1     -33.980  19.218  -0.730  0.00  0.00    +0.123 C 
ATOM     19  C   UNL     1     -35.904  17.256  -1.499  0.00  0.00    +0.164 C 
ATOM     20  C   UNL     1     -33.919  18.398  -2.015  0.00  0.00    +0.164 C 
ENDBRANCH   2  16
BRANCH   5  24
ATOM     21  N   UNL     1     -36.282  22.151   4.959  0.00  0.00    -0.218 N 
ATOM     22  N   UNL     1     -34.910  23.542   3.979  0.00  0.00    -0.206 NA
ATOM     23  N   UNL     1     -35.891  22.954   5.960  0.00  0.00    -0.157 NA
ATOM     24  C   UNL     1     -35.694  22.508   3.785  0.00  0.00    +0.155 C 
ATOM     25  C   UNL     1     -35.062  23.778   5.316  0.00  0.00    +0.218 C 
ATOM     26  H   UNL     1     -36.912  21.402   5.060  0.00  0.00    +0.176 HD
ENDBRANCH   5  24
BRANCH   3  28
ATOM     27  N   UNL     1     -38.306  21.272  -1.609  0.00  0.00    -0.191 NA
ATOM     28  C   UNL     1     -37.617  21.249  -0.676  0.00  0.00    +0.102 C 
ENDBRANCH   3  28
TORSDOF 5
ENDMDL
MODEL 8
REMARK VINA RESULT:      -5.5      4.576      6.252
REMARK  Name = 51033720
REMARK  5 active torsions:
REMARK  status: ('A' for Active; 'I' for Inactive)
REMARK    1  A    between atoms: C_2  and  N_16
REMARK    2  A    between atoms: C_3  and  C_28
REMARK    3  A    between atoms: C_4  and  C_7
REMARK    4  A    between atoms: C_5  and  C_24
REMARK    5  A    between atoms: C_12  and  C_14
REMARK                            x       y       z     vdW  Elec       q    Type
REMARK                         _______ _______ _______ _____ _____    ______ ____
ROOT
ATOM      1  S   UNL     1     -38.380  20.211  -0.059  0.00  0.00    -0.069 S 
ATOM      2  C   UNL     1     -36.885  19.399   0.137  0.00  0.00    +0.088 A 
ATOM      3  C   UNL     1     -36.017  20.102   0.943  0.00  0.00    +0.089 A 
ATOM      4  C   UNL     1     -36.588  21.323   1.407  0.00  0.00    +0.022 A 
ATOM      5  C   UNL     1     -37.869  21.506   0.936  0.00  0.00    +0.064 A 
ENDROOT
BRANCH   4   7
ATOM      6  F   UNL     1     -35.139  23.503   0.387  0.00  0.00    -0.204 F 
ATOM      7  C   UNL     1     -35.959  22.298   2.267  0.00  0.00    +0.029 C 
ATOM      8  C   UNL     1     -35.249  23.367   1.716  0.00  0.00    +0.141 C 
ATOM      9  C   UNL     1     -36.062  22.171   3.651  0.00  0.00    +0.003 C 
ATOM     10  C   UNL     1     -34.643  24.306   2.551  0.00  0.00    +0.040 C 
ATOM     11  C   UNL     1     -35.456  23.110   4.486  0.00  0.00    +0.010 C 
ATOM     12  C   UNL     1     -34.747  24.178   3.936  0.00  0.00    +0.071 C 
BRANCH  12  14
ATOM     13  N   UNL     1     -33.622  25.921   5.485  0.00  0.00    -0.191 NA
ATOM     14  C   UNL     1     -34.126  25.140   4.790  0.00  0.00    +0.100 C 
ENDBRANCH  12  14
ENDBRANCH   4   7
BRANCH   2  16
ATOM     15  O   UNL     1     -36.400  15.763  -1.918  0.00  0.00    -0.350 OA
ATOM     16  N   UNL     1     -36.655  18.169  -0.487  0.00  0.00    -0.297 N 
ATOM     17  C   UNL     1     -36.149  18.175  -1.867  0.00  0.00    +0.123 C 
ATOM     18  C   UNL     1     -37.466  17.002  -0.125  0.00  0.00    +0.123 C 
ATOM     19  C   UNL     1     -35.495  16.835  -2.181  0.00  0.00    +0.164 C 
ATOM     20  C   UNL     1     -36.742  15.723  -0.533  0.00  0.00    +0.164 C 
ENDBRANCH   2  16
BRANCH   5  24
ATOM     21  N   UNL     1     -39.827  22.530   2.018  0.00  0.00    -0.218 N 
ATOM     22  N   UNL     1     -38.681  23.789   0.648  0.00  0.00    -0.206 NA
ATOM     23  N   UNL     1     -40.484  23.699   2.053  0.00  0.00    -0.157 NA
ATOM     24  C   UNL     1     -38.757  22.592   1.180  0.00  0.00    +0.155 C 
ATOM     25  C   UNL     1     -39.751  24.426   1.207  0.00  0.00    +0.218 C 
ATOM     26  H   UNL     1     -40.085  21.731   2.532  0.00  0.00    +0.176 HD
ENDBRANCH   5  24
BRANCH   3  28
ATOM     27  N   UNL     1     -33.633  19.265   1.526  0.00  0.00    -0.191 NA
ATOM     28  C   UNL     1     -34.700  19.640   1.265  0.00  0.00    +0.102 C 
ENDBRANCH   3  28
TORSDOF 5
ENDMDL
MODEL 9
REMARK VINA RESULT:      -5.4      3.246      6.396
REMARK  Name = 51033720
REMARK  5 active torsions:
REMARK  status: ('A' for Active; 'I' for Inactive)
REMARK    1  A    between atoms: C_2  and  N_16
REMARK    2  A    between atoms: C_3  and  C_28
REMARK    3  A    between atoms: C_4  and  C_7
REMARK    4  A    between atoms: C_5  and  C_24
REMARK    5  A    between atoms: C_12  and  C_14
REMARK                            x       y       z     vdW  Elec       q    Type
REMARK                         _______ _______ _______ _____ _____    ______ ____
ROOT
ATOM      1  S   UNL     1     -34.117  25.791   4.226  0.00  0.00    -0.069 S 
ATOM      2  C   UNL     1     -34.610  26.760   2.903  0.00  0.00    +0.088 A 
ATOM      3  C   UNL     1     -35.631  26.175   2.186  0.00  0.00    +0.089 A 
ATOM      4  C   UNL     1     -36.013  24.915   2.731  0.00  0.00    +0.022 A 
ATOM      5  C   UNL     1     -35.269  24.585   3.843  0.00  0.00    +0.064 A 
ENDROOT
BRANCH   4   7
ATOM      6  F   UNL     1     -38.639  24.975   3.729  0.00  0.00    -0.204 F 
ATOM      7  C   UNL     1     -37.045  24.036   2.232  0.00  0.00    +0.029 C 
ATOM      8  C   UNL     1     -38.337  24.101   2.757  0.00  0.00    +0.141 C 
ATOM      9  C   UNL     1     -36.749  23.122   1.222  0.00  0.00    +0.003 C 
ATOM     10  C   UNL     1     -39.330  23.250   2.272  0.00  0.00    +0.040 C 
ATOM     11  C   UNL     1     -37.742  22.271   0.737  0.00  0.00    +0.010 C 
ATOM     12  C   UNL     1     -39.033  22.336   1.262  0.00  0.00    +0.071 C 
BRANCH  12  14
ATOM     13  N   UNL     1     -40.877  20.755   0.364  0.00  0.00    -0.191 NA
ATOM     14  C   UNL     1     -40.051  21.464   0.766  0.00  0.00    +0.100 C 
ENDBRANCH  12  14
ENDBRANCH   4   7
BRANCH   2  16
ATOM     15  O   UNL     1     -32.703  30.476   2.418  0.00  0.00    -0.350 OA
ATOM     16  N   UNL     1     -33.992  27.989   2.651  0.00  0.00    -0.297 N 
ATOM     17  C   UNL     1     -32.549  28.105   2.907  0.00  0.00    +0.123 C 
ATOM     18  C   UNL     1     -34.753  29.234   2.794  0.00  0.00    +0.123 C 
ATOM     19  C   UNL     1     -31.980  29.282   2.122  0.00  0.00    +0.164 C 
ATOM     20  C   UNL     1     -34.067  30.351   2.016  0.00  0.00    +0.164 C 
ENDBRANCH   2  16
BRANCH   5  24
ATOM     21  N   UNL     1     -35.945  23.389   5.883  0.00  0.00    -0.218 N 
ATOM     22  N   UNL     1     -34.900  22.228   4.354  0.00  0.00    -0.206 NA
ATOM     23  N   UNL     1     -35.882  22.160   6.419  0.00  0.00    -0.157 NA
ATOM     24  C   UNL     1     -35.358  23.421   4.656  0.00  0.00    +0.155 C 
ATOM     25  C   UNL     1     -35.241  21.496   5.455  0.00  0.00    +0.218 C 
ATOM     26  H   UNL     1     -36.361  24.166   6.321  0.00  0.00    +0.176 HD
ENDBRANCH   5  24
BRANCH   3  28
ATOM     27  N   UNL     1     -36.703  27.274   0.097  0.00  0.00    -0.191 NA
ATOM     28  C   UNL     1     -36.223  26.782   1.031  0.00  0.00    +0.102 C 
ENDBRANCH   3  28
TORSDOF 5
ENDMDL
