MODEL 1
REMARK VINA RESULT:      -6.3      0.000      0.000
REMARK  Name = 5459167
REMARK  8 active torsions:
REMARK  status: ('A' for Active; 'I' for Inactive)
REMARK    1  A    between atoms: C_3  and  O_10
REMARK    2  A    between atoms: C_6  and  C_17
REMARK    3  A    between atoms: O_10  and  C_12
REMARK    4  A    between atoms: C_12  and  C_13
REMARK    5  A    between atoms: C_17  and  O_18
REMARK    6  A    between atoms: O_18  and  C_20
REMARK    7  A    between atoms: C_20  and  C_23
REMARK    8  A    between atoms: C_23  and  O_29
REMARK                            x       y       z     vdW  Elec       q    Type
REMARK                         _______ _______ _______ _____ _____    ______ ____
ROOT
ATOM      1  N   UNL     1     -35.806  21.679   4.233  0.00  0.00    +0.396 N 
ATOM      2  C   UNL     1     -36.292  23.085   4.082  0.00  0.00    +0.006 C 
ATOM      3  C   UNL     1     -35.765  23.849   5.302  0.00  0.00    +0.152 C 
ATOM      4  C   UNL     1     -35.435  22.746   6.297  0.00  0.00    +0.019 C 
ATOM      5  C   UNL     1     -34.915  21.635   5.399  0.00  0.00    -0.073 C 
ATOM      6  C   UNL     1     -35.865  23.529   2.720  0.00  0.00    -0.023 C 
ATOM      7  C   UNL     1     -35.129  21.328   2.968  0.00  0.00    -0.050 C 
ATOM      8  C   UNL     1     -35.212  22.541   2.101  0.00  0.00    -0.056 C 
ATOM      9  H   UNL     1     -36.550  21.002   4.398  0.00  0.00    -0.079 HD
ENDROOT
BRANCH   3  10
ATOM     10  O   UNL     1     -34.591  24.604   5.021  0.00  0.00    -0.451 OA
BRANCH  10  12
ATOM     11  O   UNL     1     -35.720  26.563   5.455  0.00  0.00    -0.245 OA
ATOM     12  C   UNL     1     -34.726  25.960   5.076  0.00  0.00    +0.337 C 
BRANCH  12  13
ATOM     13  C   UNL     1     -33.470  26.611   4.594  0.00  0.00    +0.049 C 
ATOM     14  C   UNL     1     -33.203  26.635   3.117  0.00  0.00    +0.037 C 
ATOM     15  C   UNL     1     -32.658  27.101   5.548  0.00  0.00    -0.024 C 
ATOM     16  C   UNL     1     -32.876  27.066   7.028  0.00  0.00    +0.031 C 
ENDBRANCH  12  13
ENDBRANCH  10  12
ENDBRANCH   3  10
BRANCH   6  17
ATOM     17  C   UNL     1     -36.195  24.870   2.175  0.00  0.00    +0.229 C 
BRANCH  17  18
ATOM     18  O   UNL     1     -37.520  25.234   2.534  0.00  0.00    -0.442 OA
BRANCH  18  20
ATOM     19  O   UNL     1     -38.394  24.921   0.420  0.00  0.00    -0.247 OA
ATOM     20  C   UNL     1     -38.496  24.893   1.638  0.00  0.00    +0.346 C 
BRANCH  20  23
ATOM     21  O   UNL     1     -40.955  23.089   0.927  0.00  0.00    -0.449 OA
ATOM     22  O   UNL     1     -42.304  24.660  -0.054  0.00  0.00    -0.250 OA
ATOM     23  C   UNL     1     -39.740  24.471   2.372  0.00  0.00    +0.224 C 
ATOM     24  C   UNL     1     -40.983  25.230   1.914  0.00  0.00    +0.137 C 
ATOM     25  C   UNL     1     -40.150  23.029   2.113  0.00  0.00    +0.204 C 
ATOM     26  C   UNL     1     -41.503  24.339   0.810  0.00  0.00    +0.319 C 
ATOM     27  C   UNL     1     -40.760  26.664   1.460  0.00  0.00    +0.015 C 
ATOM     28  C   UNL     1     -39.019  22.029   1.926  0.00  0.00    +0.051 C 
BRANCH  23  29
ATOM     29  O   UNL     1     -39.463  24.681   3.744  0.00  0.00    -0.373 OA
ATOM     30  H   UNL     1     -38.601  25.115   3.836  0.00  0.00    +0.211 HD
ENDBRANCH  23  29
ENDBRANCH  20  23
ENDBRANCH  18  20
ENDBRANCH  17  18
ENDBRANCH   6  17
TORSDOF 8
ENDMDL
MODEL 2
REMARK VINA RESULT:      -6.0      3.451      6.050
REMARK  Name = 5459167
REMARK  8 active torsions:
REMARK  status: ('A' for Active; 'I' for Inactive)
REMARK    1  A    between atoms: C_3  and  O_10
REMARK    2  A    between atoms: C_6  and  C_17
REMARK    3  A    between atoms: O_10  and  C_12
REMARK    4  A    between atoms: C_12  and  C_13
REMARK    5  A    between atoms: C_17  and  O_18
REMARK    6  A    between atoms: O_18  and  C_20
REMARK    7  A    between atoms: C_20  and  C_23
REMARK    8  A    between atoms: C_23  and  O_29
REMARK                            x       y       z     vdW  Elec       q    Type
REMARK                         _______ _______ _______ _____ _____    ______ ____
ROOT
ATOM      1  N   UNL     1     -34.582  30.545   1.790  0.00  0.00    +0.396 N 
ATOM      2  C   UNL     1     -33.627  29.394   1.792  0.00  0.00    +0.006 C 
ATOM      3  C   UNL     1     -32.669  29.641   2.963  0.00  0.00    +0.152 C 
ATOM      4  C   UNL     1     -32.827  31.127   3.245  0.00  0.00    +0.019 C 
ATOM      5  C   UNL     1     -34.306  31.359   2.979  0.00  0.00    -0.073 C 
ATOM      6  C   UNL     1     -34.466  28.157   1.803  0.00  0.00    -0.023 C 
ATOM      7  C   UNL     1     -35.941  29.966   1.782  0.00  0.00    -0.050 C 
ATOM      8  C   UNL     1     -35.762  28.483   1.798  0.00  0.00    -0.056 C 
ATOM      9  H   UNL     1     -34.487  31.155   0.979  0.00  0.00    -0.079 HD
ENDROOT
BRANCH   3  10
ATOM     10  O   UNL     1     -33.011  28.897   4.128  0.00  0.00    -0.451 OA
BRANCH  10  12
ATOM     11  O   UNL     1     -31.214  27.462   4.006  0.00  0.00    -0.245 OA
ATOM     12  C   UNL     1     -32.020  28.117   4.650  0.00  0.00    +0.337 C 
BRANCH  12  13
ATOM     13  C   UNL     1     -32.068  28.174   6.143  0.00  0.00    +0.049 C 
ATOM     14  C   UNL     1     -32.847  27.117   6.870  0.00  0.00    +0.037 C 
ATOM     15  C   UNL     1     -31.422  29.208   6.712  0.00  0.00    -0.024 C 
ATOM     16  C   UNL     1     -30.665  30.296   6.018  0.00  0.00    +0.031 C 
ENDBRANCH  12  13
ENDBRANCH  10  12
ENDBRANCH   3  10
BRANCH   6  17
ATOM     17  C   UNL     1     -33.881  26.792   1.770  0.00  0.00    +0.229 C 
BRANCH  17  18
ATOM     18  O   UNL     1     -34.900  25.817   1.939  0.00  0.00    -0.442 OA
BRANCH  18  20
ATOM     19  O   UNL     1     -33.716  24.759   3.616  0.00  0.00    -0.247 OA
ATOM     20  C   UNL     1     -34.757  24.987   3.017  0.00  0.00    +0.346 C 
BRANCH  20  23
ATOM     21  O   UNL     1     -35.865  23.440   5.505  0.00  0.00    -0.449 OA
ATOM     22  O   UNL     1     -35.266  21.307   4.920  0.00  0.00    -0.250 OA
ATOM     23  C   UNL     1     -36.087  24.378   3.374  0.00  0.00    +0.224 C 
ATOM     24  C   UNL     1     -36.098  22.857   3.232  0.00  0.00    +0.137 C 
ATOM     25  C   UNL     1     -36.474  24.552   4.834  0.00  0.00    +0.204 C 
ATOM     26  C   UNL     1     -35.684  22.413   4.615  0.00  0.00    +0.319 C 
ATOM     27  C   UNL     1     -35.213  22.283   2.138  0.00  0.00    +0.015 C 
ATOM     28  C   UNL     1     -36.050  25.855   5.494  0.00  0.00    +0.051 C 
BRANCH  23  29
ATOM     29  O   UNL     1     -37.031  24.998   2.521  0.00  0.00    -0.373 OA
ATOM     30  H   UNL     1     -37.319  24.366   1.843  0.00  0.00    +0.211 HD
ENDBRANCH  23  29
ENDBRANCH  20  23
ENDBRANCH  18  20
ENDBRANCH  17  18
ENDBRANCH   6  17
TORSDOF 8
ENDMDL
MODEL 3
REMARK VINA RESULT:      -6.0      3.860      6.288
REMARK  Name = 5459167
REMARK  8 active torsions:
REMARK  status: ('A' for Active; 'I' for Inactive)
REMARK    1  A    between atoms: C_3  and  O_10
REMARK    2  A    between atoms: C_6  and  C_17
REMARK    3  A    between atoms: O_10  and  C_12
REMARK    4  A    between atoms: C_12  and  C_13
REMARK    5  A    between atoms: C_17  and  O_18
REMARK    6  A    between atoms: O_18  and  C_20
REMARK    7  A    between atoms: C_20  and  C_23
REMARK    8  A    between atoms: C_23  and  O_29
REMARK                            x       y       z     vdW  Elec       q    Type
REMARK                         _______ _______ _______ _____ _____    ______ ____
ROOT
ATOM      1  N   UNL     1     -38.999  23.707   1.731  0.00  0.00    +0.396 N 
ATOM      2  C   UNL     1     -37.518  23.814   1.900  0.00  0.00    +0.006 C 
ATOM      3  C   UNL     1     -37.291  24.828   3.026  0.00  0.00    +0.152 C 
ATOM      4  C   UNL     1     -38.609  25.586   3.093  0.00  0.00    +0.019 C 
ATOM      5  C   UNL     1     -39.631  24.500   2.793  0.00  0.00    -0.073 C 
ATOM      6  C   UNL     1     -37.018  22.417   2.085  0.00  0.00    -0.023 C 
ATOM      7  C   UNL     1     -39.330  22.269   1.801  0.00  0.00    -0.050 C 
ATOM      8  C   UNL     1     -38.038  21.556   2.029  0.00  0.00    -0.056 C 
ATOM      9  H   UNL     1     -39.338  24.072   0.841  0.00  0.00    -0.079 HD
ENDROOT
BRANCH   3  10
ATOM     10  O   UNL     1     -37.032  24.215   4.285  0.00  0.00    -0.451 OA
BRANCH  10  12
ATOM     11  O   UNL     1     -36.370  25.787   5.831  0.00  0.00    -0.245 OA
ATOM     12  C   UNL     1     -36.127  24.851   5.084  0.00  0.00    +0.337 C 
BRANCH  12  13
ATOM     13  C   UNL     1     -34.777  24.235   4.905  0.00  0.00    +0.049 C 
ATOM     14  C   UNL     1     -33.768  24.963   4.065  0.00  0.00    +0.037 C 
ATOM     15  C   UNL     1     -34.591  23.042   5.500  0.00  0.00    -0.024 C 
ATOM     16  C   UNL     1     -35.583  22.274   6.315  0.00  0.00    +0.031 C 
ENDBRANCH  12  13
ENDBRANCH  10  12
ENDBRANCH   3  10
BRANCH   6  17
ATOM     17  C   UNL     1     -35.577  22.097   2.249  0.00  0.00    +0.229 C 
BRANCH  17  18
ATOM     18  O   UNL     1     -35.077  21.471   1.077  0.00  0.00    -0.442 OA
BRANCH  18  20
ATOM     19  O   UNL     1     -34.441  19.616   2.298  0.00  0.00    -0.247 OA
ATOM     20  C   UNL     1     -34.621  20.190   1.233  0.00  0.00    +0.346 C 
BRANCH  20  23
ATOM     21  O   UNL     1     -34.598  17.255   0.139  0.00  0.00    -0.449 OA
ATOM     22  O   UNL     1     -32.420  16.702   0.588  0.00  0.00    -0.250 OA
ATOM     23  C   UNL     1     -34.366  19.569  -0.114  0.00  0.00    +0.224 C 
ATOM     24  C   UNL     1     -32.982  18.933  -0.220  0.00  0.00    +0.137 C 
ATOM     25  C   UNL     1     -35.270  18.387  -0.431  0.00  0.00    +0.204 C 
ATOM     26  C   UNL     1     -33.256  17.515   0.223  0.00  0.00    +0.319 C 
ATOM     27  C   UNL     1     -31.878  19.601   0.585  0.00  0.00    +0.015 C 
ATOM     28  C   UNL     1     -36.695  18.468   0.094  0.00  0.00    +0.051 C 
BRANCH  23  29
ATOM     29  O   UNL     1     -34.546  20.612  -1.055  0.00  0.00    -0.373 OA
ATOM     30  H   UNL     1     -34.601  20.236  -1.947  0.00  0.00    +0.211 HD
ENDBRANCH  23  29
ENDBRANCH  20  23
ENDBRANCH  18  20
ENDBRANCH  17  18
ENDBRANCH   6  17
TORSDOF 8
ENDMDL
MODEL 4
REMARK VINA RESULT:      -6.0      3.603      5.562
REMARK  Name = 5459167
REMARK  8 active torsions:
REMARK  status: ('A' for Active; 'I' for Inactive)
REMARK    1  A    between atoms: C_3  and  O_10
REMARK    2  A    between atoms: C_6  and  C_17
REMARK    3  A    between atoms: O_10  and  C_12
REMARK    4  A    between atoms: C_12  and  C_13
REMARK    5  A    between atoms: C_17  and  O_18
REMARK    6  A    between atoms: O_18  and  C_20
REMARK    7  A    between atoms: C_20  and  C_23
REMARK    8  A    between atoms: C_23  and  O_29
REMARK                            x       y       z     vdW  Elec       q    Type
REMARK                         _______ _______ _______ _____ _____    ______ ____
ROOT
ATOM      1  N   UNL     1     -39.133  23.949   1.741  0.00  0.00    +0.396 N 
ATOM      2  C   UNL     1     -37.659  23.905   1.987  0.00  0.00    +0.006 C 
ATOM      3  C   UNL     1     -37.377  24.965   3.058  0.00  0.00    +0.152 C 
ATOM      4  C   UNL     1     -38.602  25.864   3.000  0.00  0.00    +0.019 C 
ATOM      5  C   UNL     1     -39.723  24.878   2.711  0.00  0.00    -0.073 C 
ATOM      6  C   UNL     1     -37.330  22.478   2.289  0.00  0.00    -0.023 C 
ATOM      7  C   UNL     1     -39.627  22.565   1.883  0.00  0.00    -0.050 C 
ATOM      8  C   UNL     1     -38.437  21.732   2.230  0.00  0.00    -0.056 C 
ATOM      9  H   UNL     1     -39.384  24.286   0.811  0.00  0.00    -0.079 HD
ENDROOT
BRANCH   3  10
ATOM     10  O   UNL     1     -37.251  24.416   4.365  0.00  0.00    -0.451 OA
BRANCH  10  12
ATOM     11  O   UNL     1     -36.327  26.073   5.671  0.00  0.00    -0.245 OA
ATOM     12  C   UNL     1     -36.282  24.966   5.153  0.00  0.00    +0.337 C 
BRANCH  12  13
ATOM     13  C   UNL     1     -35.141  24.011   5.288  0.00  0.00    +0.049 C 
ATOM     14  C   UNL     1     -35.332  22.790   6.139  0.00  0.00    +0.037 C 
ATOM     15  C   UNL     1     -34.008  24.354   4.647  0.00  0.00    -0.024 C 
ATOM     16  C   UNL     1     -33.772  25.577   3.819  0.00  0.00    +0.031 C 
ENDBRANCH  12  13
ENDBRANCH  10  12
ENDBRANCH   3  10
BRANCH   6  17
ATOM     17  C   UNL     1     -35.945  22.015   2.556  0.00  0.00    +0.229 C 
BRANCH  17  18
ATOM     18  O   UNL     1     -35.799  20.656   2.171  0.00  0.00    -0.442 OA
BRANCH  18  20
ATOM     19  O   UNL     1     -34.097  21.061   0.663  0.00  0.00    -0.247 OA
ATOM     20  C   UNL     1     -35.081  20.434   1.028  0.00  0.00    +0.346 C 
BRANCH  20  23
ATOM     21  O   UNL     1     -34.152  18.696  -1.408  0.00  0.00    -0.449 OA
ATOM     22  O   UNL     1     -34.941  19.997  -3.121  0.00  0.00    -0.250 OA
ATOM     23  C   UNL     1     -35.682  19.286   0.261  0.00  0.00    +0.224 C 
ATOM     24  C   UNL     1     -36.256  19.711  -1.088  0.00  0.00    +0.137 C 
ATOM     25  C   UNL     1     -34.673  18.226  -0.156  0.00  0.00    +0.204 C 
ATOM     26  C   UNL     1     -35.071  19.518  -2.005  0.00  0.00    +0.319 C 
ATOM     27  C   UNL     1     -36.831  21.117  -1.154  0.00  0.00    +0.015 C 
ATOM     28  C   UNL     1     -33.534  17.959   0.816  0.00  0.00    +0.051 C 
BRANCH  23  29
ATOM     29  O   UNL     1     -36.672  18.737   1.111  0.00  0.00    -0.373 OA
ATOM     30  H   UNL     1     -36.759  17.787   0.934  0.00  0.00    +0.211 HD
ENDBRANCH  23  29
ENDBRANCH  20  23
ENDBRANCH  18  20
ENDBRANCH  17  18
ENDBRANCH   6  17
TORSDOF 8
ENDMDL
MODEL 5
REMARK VINA RESULT:      -5.9      3.764      6.171
REMARK  Name = 5459167
REMARK  8 active torsions:
REMARK  status: ('A' for Active; 'I' for Inactive)
REMARK    1  A    between atoms: C_3  and  O_10
REMARK    2  A    between atoms: C_6  and  C_17
REMARK    3  A    between atoms: O_10  and  C_12
REMARK    4  A    between atoms: C_12  and  C_13
REMARK    5  A    between atoms: C_17  and  O_18
REMARK    6  A    between atoms: O_18  and  C_20
REMARK    7  A    between atoms: C_20  and  C_23
REMARK    8  A    between atoms: C_23  and  O_29
REMARK                            x       y       z     vdW  Elec       q    Type
REMARK                         _______ _______ _______ _____ _____    ______ ____
ROOT
ATOM      1  N   UNL     1     -39.199  23.973   1.739  0.00  0.00    +0.396 N 
ATOM      2  C   UNL     1     -37.719  23.953   1.947  0.00  0.00    +0.006 C 
ATOM      3  C   UNL     1     -37.431  24.981   3.046  0.00  0.00    +0.152 C 
ATOM      4  C   UNL     1     -38.677  25.854   3.052  0.00  0.00    +0.019 C 
ATOM      5  C   UNL     1     -39.784  24.853   2.757  0.00  0.00    -0.073 C 
ATOM      6  C   UNL     1     -37.351  22.524   2.189  0.00  0.00    -0.023 C 
ATOM      7  C   UNL     1     -39.659  22.573   1.845  0.00  0.00    -0.050 C 
ATOM      8  C   UNL     1     -38.443  21.756   2.132  0.00  0.00    -0.056 C 
ATOM      9  H   UNL     1     -39.481  24.336   0.829  0.00  0.00    -0.079 HD
ENDROOT
BRANCH   3  10
ATOM     10  O   UNL     1     -37.260  24.389   4.330  0.00  0.00    -0.451 OA
BRANCH  10  12
ATOM     11  O   UNL     1     -36.342  26.046   5.639  0.00  0.00    -0.245 OA
ATOM     12  C   UNL     1     -36.292  24.942   5.118  0.00  0.00    +0.337 C 
BRANCH  12  13
ATOM     13  C   UNL     1     -35.145  23.992   5.247  0.00  0.00    +0.049 C 
ATOM     14  C   UNL     1     -35.328  22.767   6.094  0.00  0.00    +0.037 C 
ATOM     15  C   UNL     1     -34.016  24.343   4.604  0.00  0.00    -0.024 C 
ATOM     16  C   UNL     1     -33.788  25.570   3.779  0.00  0.00    +0.031 C 
ENDBRANCH  12  13
ENDBRANCH  10  12
ENDBRANCH   3  10
BRANCH   6  17
ATOM     17  C   UNL     1     -35.950  22.083   2.404  0.00  0.00    +0.229 C 
BRANCH  17  18
ATOM     18  O   UNL     1     -35.406  21.568   1.198  0.00  0.00    -0.442 OA
BRANCH  18  20
ATOM     19  O   UNL     1     -34.581  19.717   2.307  0.00  0.00    -0.247 OA
ATOM     20  C   UNL     1     -34.857  20.317   1.277  0.00  0.00    +0.346 C 
BRANCH  20  23
ATOM     21  O   UNL     1     -34.845  17.441   0.037  0.00  0.00    -0.449 OA
ATOM     22  O   UNL     1     -32.652  16.883   0.400  0.00  0.00    -0.250 OA
ATOM     23  C   UNL     1     -34.634  19.766  -0.105  0.00  0.00    +0.224 C 
ATOM     24  C   UNL     1     -33.249  19.147  -0.280  0.00  0.00    +0.137 C 
ATOM     25  C   UNL     1     -35.539  18.595  -0.458  0.00  0.00    +0.204 C 
ATOM     26  C   UNL     1     -33.502  17.707   0.099  0.00  0.00    +0.319 C 
ATOM     27  C   UNL     1     -32.129  19.782   0.529  0.00  0.00    +0.015 C 
ATOM     28  C   UNL     1     -36.950  18.638   0.109  0.00  0.00    +0.051 C 
BRANCH  23  29
ATOM     29  O   UNL     1     -34.846  20.854  -0.987  0.00  0.00    -0.373 OA
ATOM     30  H   UNL     1     -35.424  21.506  -0.562  0.00  0.00    +0.211 HD
ENDBRANCH  23  29
ENDBRANCH  20  23
ENDBRANCH  18  20
ENDBRANCH  17  18
ENDBRANCH   6  17
TORSDOF 8
ENDMDL
MODEL 6
REMARK VINA RESULT:      -5.8      3.082      6.368
REMARK  Name = 5459167
REMARK  8 active torsions:
REMARK  status: ('A' for Active; 'I' for Inactive)
REMARK    1  A    between atoms: C_3  and  O_10
REMARK    2  A    between atoms: C_6  and  C_17
REMARK    3  A    between atoms: O_10  and  C_12
REMARK    4  A    between atoms: C_12  and  C_13
REMARK    5  A    between atoms: C_17  and  O_18
REMARK    6  A    between atoms: O_18  and  C_20
REMARK    7  A    between atoms: C_20  and  C_23
REMARK    8  A    between atoms: C_23  and  O_29
REMARK                            x       y       z     vdW  Elec       q    Type
REMARK                         _______ _______ _______ _____ _____    ______ ____
ROOT
ATOM      1  N   UNL     1     -38.252  20.210  -1.116  0.00  0.00    +0.396 N 
ATOM      2  C   UNL     1     -37.920  20.129   0.340  0.00  0.00    +0.006 C 
ATOM      3  C   UNL     1     -36.566  19.417   0.427  0.00  0.00    +0.152 C 
ATOM      4  C   UNL     1     -36.445  18.716  -0.918  0.00  0.00    +0.019 C 
ATOM      5  C   UNL     1     -37.096  19.709  -1.868  0.00  0.00    -0.073 C 
ATOM      6  C   UNL     1     -38.032  21.523   0.870  0.00  0.00    -0.023 C 
ATOM      7  C   UNL     1     -38.563  21.626  -1.400  0.00  0.00    -0.050 C 
ATOM      8  C   UNL     1     -38.391  22.357  -0.110  0.00  0.00    -0.056 C 
ATOM      9  H   UNL     1     -39.055  19.644  -1.386  0.00  0.00    -0.079 HD
ENDROOT
BRANCH   3  10
ATOM     10  O   UNL     1     -35.474  20.316   0.594  0.00  0.00    -0.451 OA
BRANCH  10  12
ATOM     11  O   UNL     1     -34.820  20.119   2.793  0.00  0.00    -0.245 OA
ATOM     12  C   UNL     1     -34.599  20.012   1.596  0.00  0.00    +0.337 C 
BRANCH  12  13
ATOM     13  C   UNL     1     -33.311  19.531   1.010  0.00  0.00    +0.049 C 
ATOM     14  C   UNL     1     -32.864  18.133   1.325  0.00  0.00    +0.037 C 
ATOM     15  C   UNL     1     -32.636  20.423   0.261  0.00  0.00    -0.024 C 
ATOM     16  C   UNL     1     -33.034  21.832  -0.047  0.00  0.00    +0.031 C 
ENDBRANCH  12  13
ENDBRANCH  10  12
ENDBRANCH   3  10
BRANCH   6  17
ATOM     17  C   UNL     1     -37.812  21.855   2.301  0.00  0.00    +0.229 C 
BRANCH  17  18
ATOM     18  O   UNL     1     -37.773  23.263   2.478  0.00  0.00    -0.442 OA
BRANCH  18  20
ATOM     19  O   UNL     1     -35.471  23.435   2.409  0.00  0.00    -0.247 OA
ATOM     20  C   UNL     1     -36.561  23.786   2.838  0.00  0.00    +0.346 C 
BRANCH  20  23
ATOM     21  O   UNL     1     -34.972  26.371   3.615  0.00  0.00    -0.449 OA
ATOM     22  O   UNL     1     -33.516  25.474   5.141  0.00  0.00    -0.250 OA
ATOM     23  C   UNL     1     -36.755  24.876   3.857  0.00  0.00    +0.224 C 
ATOM     24  C   UNL     1     -35.835  24.725   5.067  0.00  0.00    +0.137 C 
ATOM     25  C   UNL     1     -36.379  26.263   3.358  0.00  0.00    +0.204 C 
ATOM     26  C   UNL     1     -34.630  25.532   4.643  0.00  0.00    +0.319 C 
ATOM     27  C   UNL     1     -35.483  23.300   5.463  0.00  0.00    +0.015 C 
ATOM     28  C   UNL     1     -36.666  26.553   1.893  0.00  0.00    +0.051 C 
BRANCH  23  29
ATOM     29  O   UNL     1     -38.123  24.820   4.219  0.00  0.00    -0.373 OA
ATOM     30  H   UNL     1     -38.647  24.529   3.456  0.00  0.00    +0.211 HD
ENDBRANCH  23  29
ENDBRANCH  20  23
ENDBRANCH  18  20
ENDBRANCH  17  18
ENDBRANCH   6  17
TORSDOF 8
ENDMDL
MODEL 7
REMARK VINA RESULT:      -5.7      3.384      8.017
REMARK  Name = 5459167
REMARK  8 active torsions:
REMARK  status: ('A' for Active; 'I' for Inactive)
REMARK    1  A    between atoms: C_3  and  O_10
REMARK    2  A    between atoms: C_6  and  C_17
REMARK    3  A    between atoms: O_10  and  C_12
REMARK    4  A    between atoms: C_12  and  C_13
REMARK    5  A    between atoms: C_17  and  O_18
REMARK    6  A    between atoms: O_18  and  C_20
REMARK    7  A    between atoms: C_20  and  C_23
REMARK    8  A    between atoms: C_23  and  O_29
REMARK                            x       y       z     vdW  Elec       q    Type
REMARK                         _______ _______ _______ _____ _____    ______ ____
ROOT
ATOM      1  N   UNL     1     -33.888  25.409   0.524  0.00  0.00    +0.396 N 
ATOM      2  C   UNL     1     -34.525  25.843   1.805  0.00  0.00    +0.006 C 
ATOM      3  C   UNL     1     -35.562  24.768   2.148  0.00  0.00    +0.152 C 
ATOM      4  C   UNL     1     -35.791  24.060   0.821  0.00  0.00    +0.019 C 
ATOM      5  C   UNL     1     -34.407  24.078   0.192  0.00  0.00    -0.073 C 
ATOM      6  C   UNL     1     -33.405  26.089   2.765  0.00  0.00    -0.023 C 
ATOM      7  C   UNL     1     -32.428  25.427   0.751  0.00  0.00    -0.050 C 
ATOM      8  C   UNL     1     -32.232  25.853   2.169  0.00  0.00    -0.056 C 
ATOM      9  H   UNL     1     -34.098  26.019  -0.266  0.00  0.00    -0.079 HD
ENDROOT
BRANCH   3  10
ATOM     10  O   UNL     1     -35.094  23.831   3.113  0.00  0.00    -0.451 OA
BRANCH  10  12
ATOM     11  O   UNL     1     -37.180  23.413   3.994  0.00  0.00    -0.245 OA
ATOM     12  C   UNL     1     -36.049  23.053   3.701  0.00  0.00    +0.337 C 
BRANCH  12  13
ATOM     13  C   UNL     1     -35.503  21.684   3.945  0.00  0.00    +0.049 C 
ATOM     14  C   UNL     1     -35.407  20.739   2.783  0.00  0.00    +0.037 C 
ATOM     15  C   UNL     1     -35.167  21.403   5.218  0.00  0.00    -0.024 C 
ATOM     16  C   UNL     1     -35.279  22.308   6.404  0.00  0.00    +0.031 C 
ENDBRANCH  12  13
ENDBRANCH  10  12
ENDBRANCH   3  10
BRANCH   6  17
ATOM     17  C   UNL     1     -33.629  26.574   4.150  0.00  0.00    +0.229 C 
BRANCH  17  18
ATOM     18  O   UNL     1     -32.452  27.189   4.652  0.00  0.00    -0.442 OA
BRANCH  18  20
ATOM     19  O   UNL     1     -33.322  29.298   4.294  0.00  0.00    -0.247 OA
ATOM     20  C   UNL     1     -32.380  28.547   4.506  0.00  0.00    +0.346 C 
BRANCH  20  23
ATOM     21  O   UNL     1     -31.006  31.252   5.288  0.00  0.00    -0.449 OA
ATOM     22  O   UNL     1     -30.914  32.238   3.222  0.00  0.00    -0.250 OA
ATOM     23  C   UNL     1     -30.952  29.003   4.645  0.00  0.00    +0.224 C 
ATOM     24  C   UNL     1     -30.484  29.850   3.465  0.00  0.00    +0.137 C 
ATOM     25  C   UNL     1     -30.716  29.949   5.813  0.00  0.00    +0.204 C 
ATOM     26  C   UNL     1     -30.825  31.247   3.930  0.00  0.00    +0.319 C 
ATOM     27  C   UNL     1     -31.097  29.511   2.115  0.00  0.00    +0.015 C 
ATOM     28  C   UNL     1     -31.543  29.694   7.065  0.00  0.00    +0.051 C 
BRANCH  23  29
ATOM     29  O   UNL     1     -30.187  27.820   4.788  0.00  0.00    -0.373 OA
ATOM     30  H   UNL     1     -29.677  27.666   3.977  0.00  0.00    +0.211 HD
ENDBRANCH  23  29
ENDBRANCH  20  23
ENDBRANCH  18  20
ENDBRANCH  17  18
ENDBRANCH   6  17
TORSDOF 8
ENDMDL
MODEL 8
REMARK VINA RESULT:      -5.7      3.727      6.701
REMARK  Name = 5459167
REMARK  8 active torsions:
REMARK  status: ('A' for Active; 'I' for Inactive)
REMARK    1  A    between atoms: C_3  and  O_10
REMARK    2  A    between atoms: C_6  and  C_17
REMARK    3  A    between atoms: O_10  and  C_12
REMARK    4  A    between atoms: C_12  and  C_13
REMARK    5  A    between atoms: C_17  and  O_18
REMARK    6  A    between atoms: O_18  and  C_20
REMARK    7  A    between atoms: C_20  and  C_23
REMARK    8  A    between atoms: C_23  and  O_29
REMARK                            x       y       z     vdW  Elec       q    Type
REMARK                         _______ _______ _______ _____ _____    ______ ____
ROOT
ATOM      1  N   UNL     1     -38.207  19.613   0.134  0.00  0.00    +0.396 N 
ATOM      2  C   UNL     1     -36.851  19.872   0.709  0.00  0.00    +0.006 C 
ATOM      3  C   UNL     1     -35.930  18.796   0.122  0.00  0.00    +0.152 C 
ATOM      4  C   UNL     1     -36.896  17.721  -0.353  0.00  0.00    +0.019 C 
ATOM      5  C   UNL     1     -38.078  18.536  -0.854  0.00  0.00    -0.073 C 
ATOM      6  C   UNL     1     -36.545  21.308   0.425  0.00  0.00    -0.023 C 
ATOM      7  C   UNL     1     -38.668  20.889  -0.451  0.00  0.00    -0.050 C 
ATOM      8  C   UNL     1     -37.567  21.872  -0.226  0.00  0.00    -0.056 C 
ATOM      9  H   UNL     1     -38.894  19.308   0.823  0.00  0.00    -0.079 HD
ENDROOT
BRANCH   3  10
ATOM     10  O   UNL     1     -35.159  19.264  -0.980  0.00  0.00    -0.451 OA
BRANCH  10  12
ATOM     11  O   UNL     1     -33.635  17.634  -1.547  0.00  0.00    -0.245 OA
ATOM     12  C   UNL     1     -33.906  18.738  -1.098  0.00  0.00    +0.337 C 
BRANCH  12  13
ATOM     13  C   UNL     1     -32.899  19.716  -0.585  0.00  0.00    +0.049 C 
ATOM     14  C   UNL     1     -32.574  20.912  -1.433  0.00  0.00    +0.037 C 
ATOM     15  C   UNL     1     -32.338  19.417   0.601  0.00  0.00    -0.024 C 
ATOM     16  C   UNL     1     -32.613  18.220   1.455  0.00  0.00    +0.031 C 
ENDBRANCH  12  13
ENDBRANCH  10  12
ENDBRANCH   3  10
BRANCH   6  17
ATOM     17  C   UNL     1     -35.291  21.964   0.874  0.00  0.00    +0.229 C 
BRANCH  17  18
ATOM     18  O   UNL     1     -35.305  22.136   2.284  0.00  0.00    -0.442 OA
BRANCH  18  20
ATOM     19  O   UNL     1     -34.476  24.287   2.429  0.00  0.00    -0.247 OA
ATOM     20  C   UNL     1     -35.298  23.431   2.726  0.00  0.00    +0.346 C 
BRANCH  20  23
ATOM     21  O   UNL     1     -36.761  25.979   3.811  0.00  0.00    -0.449 OA
ATOM     22  O   UNL     1     -35.471  26.397   5.658  0.00  0.00    -0.250 OA
ATOM     23  C   UNL     1     -36.465  23.665   3.647  0.00  0.00    +0.224 C 
ATOM     24  C   UNL     1     -36.036  24.105   5.045  0.00  0.00    +0.137 C 
ATOM     25  C   UNL     1     -37.364  24.817   3.226  0.00  0.00    +0.204 C 
ATOM     26  C   UNL     1     -36.027  25.610   4.907  0.00  0.00    +0.319 C 
ATOM     27  C   UNL     1     -34.710  23.550   5.542  0.00  0.00    +0.015 C 
ATOM     28  C   UNL     1     -37.545  25.019   1.730  0.00  0.00    +0.051 C 
BRANCH  23  29
ATOM     29  O   UNL     1     -37.181  22.444   3.671  0.00  0.00    -0.373 OA
ATOM     30  H   UNL     1     -36.832  21.878   4.378  0.00  0.00    +0.211 HD
ENDBRANCH  23  29
ENDBRANCH  20  23
ENDBRANCH  18  20
ENDBRANCH  17  18
ENDBRANCH   6  17
TORSDOF 8
ENDMDL
MODEL 9
REMARK VINA RESULT:      -5.6      3.396      5.627
REMARK  Name = 5459167
REMARK  8 active torsions:
REMARK  status: ('A' for Active; 'I' for Inactive)
REMARK    1  A    between atoms: C_3  and  O_10
REMARK    2  A    between atoms: C_6  and  C_17
REMARK    3  A    between atoms: O_10  and  C_12
REMARK    4  A    between atoms: C_12  and  C_13
REMARK    5  A    between atoms: C_17  and  O_18
REMARK    6  A    between atoms: O_18  and  C_20
REMARK    7  A    between atoms: C_20  and  C_23
REMARK    8  A    between atoms: C_23  and  O_29
REMARK                            x       y       z     vdW  Elec       q    Type
REMARK                         _______ _______ _______ _____ _____    ______ ____
ROOT
ATOM      1  N   UNL     1     -33.909  31.250   1.879  0.00  0.00    +0.396 N 
ATOM      2  C   UNL     1     -33.369  29.856   1.890  0.00  0.00    +0.006 C 
ATOM      3  C   UNL     1     -32.255  29.842   2.943  0.00  0.00    +0.152 C 
ATOM      4  C   UNL     1     -31.906  31.313   3.112  0.00  0.00    +0.019 C 
ATOM      5  C   UNL     1     -33.259  31.993   2.965  0.00  0.00    -0.073 C 
ATOM      6  C   UNL     1     -34.547  28.955   2.082  0.00  0.00    -0.023 C 
ATOM      7  C   UNL     1     -35.373  31.138   2.044  0.00  0.00    -0.050 C 
ATOM      8  C   UNL     1     -35.667  29.679   2.169  0.00  0.00    -0.056 C 
ATOM      9  H   UNL     1     -33.721  31.756   1.014  0.00  0.00    -0.079 HD
ENDROOT
BRANCH   3  10
ATOM     10  O   UNL     1     -32.678  29.306   4.193  0.00  0.00    -0.451 OA
BRANCH  10  12
ATOM     11  O   UNL     1     -31.331  27.444   4.048  0.00  0.00    -0.245 OA
ATOM     12  C   UNL     1     -31.909  28.301   4.702  0.00  0.00    +0.337 C 
BRANCH  12  13
ATOM     13  C   UNL     1     -31.881  28.394   6.193  0.00  0.00    +0.049 C 
ATOM     14  C   UNL     1     -30.991  29.425   6.825  0.00  0.00    +0.037 C 
ATOM     15  C   UNL     1     -32.648  27.506   6.853  0.00  0.00    -0.024 C 
ATOM     16  C   UNL     1     -33.519  26.445   6.258  0.00  0.00    +0.031 C 
ENDBRANCH  12  13
ENDBRANCH  10  12
ENDBRANCH   3  10
BRANCH   6  17
ATOM     17  C   UNL     1     -34.427  27.475   2.111  0.00  0.00    +0.229 C 
BRANCH  17  18
ATOM     18  O   UNL     1     -35.293  26.931   3.096  0.00  0.00    -0.442 OA
BRANCH  18  20
ATOM     19  O   UNL     1     -35.286  24.891   2.013  0.00  0.00    -0.247 OA
ATOM     20  C   UNL     1     -35.696  25.640   2.888  0.00  0.00    +0.346 C 
BRANCH  20  23
ATOM     21  O   UNL     1     -37.186  22.981   3.611  0.00  0.00    -0.449 OA
ATOM     22  O   UNL     1     -38.948  23.129   2.154  0.00  0.00    -0.250 OA
ATOM     23  C   UNL     1     -36.736  25.258   3.906  0.00  0.00    +0.224 C 
ATOM     24  C   UNL     1     -38.132  25.119   3.302  0.00  0.00    +0.137 C 
ATOM     25  C   UNL     1     -36.528  23.880   4.515  0.00  0.00    +0.204 C 
ATOM     26  C   UNL     1     -38.165  23.655   2.929  0.00  0.00    +0.319 C 
ATOM     27  C   UNL     1     -38.445  26.035   2.129  0.00  0.00    +0.015 C 
ATOM     28  C   UNL     1     -35.086  23.446   4.725  0.00  0.00    +0.051 C 
BRANCH  23  29
ATOM     29  O   UNL     1     -36.685  26.265   4.900  0.00  0.00    -0.373 OA
ATOM     30  H   UNL     1     -36.694  25.853   5.778  0.00  0.00    +0.211 HD
ENDBRANCH  23  29
ENDBRANCH  20  23
ENDBRANCH  18  20
ENDBRANCH  17  18
ENDBRANCH   6  17
TORSDOF 8
ENDMDL
