MODEL 1
REMARK VINA RESULT:      -5.1      0.000      0.000
REMARK  Name = 19065601
REMARK  3 active torsions:
REMARK  status: ('A' for Active; 'I' for Inactive)
REMARK    1  A    between atoms: C_1  and  S_7
REMARK    2  A    between atoms: C_2  and  N_13
REMARK    3  A    between atoms: C_3  and  N_16
REMARK                            x       y       z     vdW  Elec       q    Type
REMARK                         _______ _______ _______ _____ _____    ______ ____
ROOT
ATOM      1  C   UNL     1     -35.727  23.937   4.417  0.00  0.00    +0.136 C 
ATOM      2  C   UNL     1     -35.750  22.951   3.431  0.00  0.00    +0.183 C 
ATOM      3  C   UNL     1     -35.468  21.626   3.762  0.00  0.00    +0.166 C 
ATOM      4  C   UNL     1     -35.423  23.598   5.735  0.00  0.00    +0.021 C 
ATOM      5  C   UNL     1     -35.163  21.287   5.082  0.00  0.00    +0.026 C 
ATOM      6  C   UNL     1     -35.141  22.274   6.067  0.00  0.00    +0.003 C 
ENDROOT
BRANCH   1   7
ATOM      7  S   UNL     1     -36.075  25.616   4.053  0.00  0.00    +0.044 S 
ATOM      8  O   UNL     1     -35.887  26.404   5.472  0.00  0.00    -0.065 OA
ATOM      9  O   UNL     1     -35.038  26.099   3.156  0.00  0.00    -0.065 OA
ATOM     10  O   UNL     1     -37.477  25.681   3.678  0.00  0.00    -0.065 OA
ENDBRANCH   1   7
BRANCH   2  13
ATOM     11  O   UNL     1     -35.127  23.611   1.311  0.00  0.00    -0.126 OA
ATOM     12  O   UNL     1     -37.258  23.277   1.717  0.00  0.00    -0.126 OA
ATOM     13  N   UNL     1     -36.062  23.298   2.082  0.00  0.00    +0.061 N 
ENDBRANCH   2  13
BRANCH   3  16
ATOM     14  O   UNL     1     -34.408  20.277   2.223  0.00  0.00    -0.126 OA
ATOM     15  O   UNL     1     -36.571  20.035   2.509  0.00  0.00    -0.126 OA
ATOM     16  N   UNL     1     -35.483  20.594   2.782  0.00  0.00    +0.059 N 
ENDBRANCH   3  16
TORSDOF 3
ENDMDL
MODEL 2
REMARK VINA RESULT:      -5.0      1.922      4.253
REMARK  Name = 19065601
REMARK  3 active torsions:
REMARK  status: ('A' for Active; 'I' for Inactive)
REMARK    1  A    between atoms: C_1  and  S_7
REMARK    2  A    between atoms: C_2  and  N_13
REMARK    3  A    between atoms: C_3  and  N_16
REMARK                            x       y       z     vdW  Elec       q    Type
REMARK                         _______ _______ _______ _____ _____    ______ ____
ROOT
ATOM      1  C   UNL     1     -35.489  22.346   3.645  0.00  0.00    +0.136 C 
ATOM      2  C   UNL     1     -35.191  23.704   3.761  0.00  0.00    +0.183 C 
ATOM      3  C   UNL     1     -34.952  24.260   5.018  0.00  0.00    +0.166 C 
ATOM      4  C   UNL     1     -35.547  21.545   4.785  0.00  0.00    +0.021 C 
ATOM      5  C   UNL     1     -35.011  23.458   6.158  0.00  0.00    +0.026 C 
ATOM      6  C   UNL     1     -35.308  22.100   6.041  0.00  0.00    +0.003 C 
ENDROOT
BRANCH   1   7
ATOM      7  S   UNL     1     -35.796  21.597   2.090  0.00  0.00    +0.044 S 
ATOM      8  O   UNL     1     -36.149  20.040   2.433  0.00  0.00    -0.065 OA
ATOM      9  O   UNL     1     -37.000  22.197   1.539  0.00  0.00    -0.065 OA
ATOM     10  O   UNL     1     -34.543  21.630   1.355  0.00  0.00    -0.065 OA
ENDBRANCH   1   7
BRANCH   2  13
ATOM     11  O   UNL     1     -36.174  25.099   2.211  0.00  0.00    -0.126 OA
ATOM     12  O   UNL     1     -34.038  24.639   1.997  0.00  0.00    -0.126 OA
ATOM     13  N   UNL     1     -35.131  24.524   2.595  0.00  0.00    +0.061 N 
ENDBRANCH   2  13
BRANCH   3  16
ATOM     14  O   UNL     1     -33.443  25.997   5.177  0.00  0.00    -0.126 OA
ATOM     15  O   UNL     1     -35.586  26.459   5.302  0.00  0.00    -0.126 OA
ATOM     16  N   UNL     1     -34.645  25.641   5.173  0.00  0.00    +0.059 N 
ENDBRANCH   3  16
TORSDOF 3
ENDMDL
MODEL 3
REMARK VINA RESULT:      -5.0      1.459      1.795
REMARK  Name = 19065601
REMARK  3 active torsions:
REMARK  status: ('A' for Active; 'I' for Inactive)
REMARK    1  A    between atoms: C_1  and  S_7
REMARK    2  A    between atoms: C_2  and  N_13
REMARK    3  A    between atoms: C_3  and  N_16
REMARK                            x       y       z     vdW  Elec       q    Type
REMARK                         _______ _______ _______ _____ _____    ______ ____
ROOT
ATOM      1  C   UNL     1     -34.710  24.506   4.761  0.00  0.00    +0.136 C 
ATOM      2  C   UNL     1     -35.066  23.843   3.587  0.00  0.00    +0.183 C 
ATOM      3  C   UNL     1     -35.483  22.513   3.637  0.00  0.00    +0.166 C 
ATOM      4  C   UNL     1     -34.771  23.840   5.985  0.00  0.00    +0.021 C 
ATOM      5  C   UNL     1     -35.543  21.845   4.861  0.00  0.00    +0.026 C 
ATOM      6  C   UNL     1     -35.187  22.510   6.035  0.00  0.00    +0.003 C 
ENDROOT
BRANCH   1   7
ATOM      7  S   UNL     1     -34.180  26.177   4.754  0.00  0.00    +0.044 S 
ATOM      8  O   UNL     1     -33.830  26.516   6.313  0.00  0.00    -0.065 OA
ATOM      9  O   UNL     1     -32.933  26.244   4.012  0.00  0.00    -0.065 OA
ATOM     10  O   UNL     1     -35.327  26.977   4.360  0.00  0.00    -0.065 OA
ENDBRANCH   1   7
BRANCH   2  13
ATOM     11  O   UNL     1     -33.944  24.467   1.672  0.00  0.00    -0.126 OA
ATOM     12  O   UNL     1     -36.011  25.156   1.945  0.00  0.00    -0.126 OA
ATOM     13  N   UNL     1     -35.004  24.525   2.336  0.00  0.00    +0.061 N 
ENDBRANCH   2  13
BRANCH   3  16
ATOM     14  O   UNL     1     -37.054  21.816   2.101  0.00  0.00    -0.126 OA
ATOM     15  O   UNL     1     -34.968  21.193   1.817  0.00  0.00    -0.126 OA
ATOM     16  N   UNL     1     -35.854  21.805   2.459  0.00  0.00    +0.059 N 
ENDBRANCH   3  16
TORSDOF 3
ENDMDL
MODEL 4
REMARK VINA RESULT:      -4.7      2.690      4.902
REMARK  Name = 19065601
REMARK  3 active torsions:
REMARK  status: ('A' for Active; 'I' for Inactive)
REMARK    1  A    between atoms: C_1  and  S_7
REMARK    2  A    between atoms: C_2  and  N_13
REMARK    3  A    between atoms: C_3  and  N_16
REMARK                            x       y       z     vdW  Elec       q    Type
REMARK                         _______ _______ _______ _____ _____    ______ ____
ROOT
ATOM      1  C   UNL     1     -35.092  23.083   2.376  0.00  0.00    +0.136 C 
ATOM      2  C   UNL     1     -35.014  23.975   3.445  0.00  0.00    +0.183 C 
ATOM      3  C   UNL     1     -34.287  25.159   3.314  0.00  0.00    +0.166 C 
ATOM      4  C   UNL     1     -34.444  23.373   1.176  0.00  0.00    +0.021 C 
ATOM      5  C   UNL     1     -33.638  25.449   2.113  0.00  0.00    +0.026 C 
ATOM      6  C   UNL     1     -33.717  24.556   1.044  0.00  0.00    +0.003 C 
ENDROOT
BRANCH   1   7
ATOM      7  S   UNL     1     -35.992  21.583   2.489  0.00  0.00    +0.044 S 
ATOM      8  O   UNL     1     -35.750  20.836   1.057  0.00  0.00    -0.065 OA
ATOM      9  O   UNL     1     -35.362  20.763   3.510  0.00  0.00    -0.065 OA
ATOM     10  O   UNL     1     -37.396  21.944   2.583  0.00  0.00    -0.065 OA
ENDBRANCH   1   7
BRANCH   2  13
ATOM     11  O   UNL     1     -35.047  23.060   5.562  0.00  0.00    -0.126 OA
ATOM     12  O   UNL     1     -36.864  24.045   4.819  0.00  0.00    -0.126 OA
ATOM     13  N   UNL     1     -35.677  23.678   4.673  0.00  0.00    +0.061 N 
ENDBRANCH   2  13
BRANCH   3  16
ATOM     14  O   UNL     1     -33.241  25.978   5.198  0.00  0.00    -0.126 OA
ATOM     15  O   UNL     1     -35.046  26.999   4.477  0.00  0.00    -0.126 OA
ATOM     16  N   UNL     1     -34.186  26.092   4.383  0.00  0.00    +0.059 N 
ENDBRANCH   3  16
TORSDOF 3
ENDMDL
MODEL 5
REMARK VINA RESULT:      -4.6      2.275      3.255
REMARK  Name = 19065601
REMARK  3 active torsions:
REMARK  status: ('A' for Active; 'I' for Inactive)
REMARK    1  A    between atoms: C_1  and  S_7
REMARK    2  A    between atoms: C_2  and  N_13
REMARK    3  A    between atoms: C_3  and  N_16
REMARK                            x       y       z     vdW  Elec       q    Type
REMARK                         _______ _______ _______ _____ _____    ______ ____
ROOT
ATOM      1  C   UNL     1     -34.334  25.040   3.098  0.00  0.00    +0.136 C 
ATOM      2  C   UNL     1     -35.072  23.902   3.423  0.00  0.00    +0.183 C 
ATOM      3  C   UNL     1     -35.217  22.875   2.490  0.00  0.00    +0.166 C 
ATOM      4  C   UNL     1     -33.741  25.151   1.841  0.00  0.00    +0.021 C 
ATOM      5  C   UNL     1     -34.624  22.986   1.232  0.00  0.00    +0.026 C 
ATOM      6  C   UNL     1     -33.886  24.124   0.908  0.00  0.00    +0.003 C 
ENDROOT
BRANCH   1   7
ATOM      7  S   UNL     1     -34.121  26.358   4.233  0.00  0.00    +0.044 S 
ATOM      8  O   UNL     1     -33.281  27.492   3.411  0.00  0.00    -0.065 OA
ATOM      9  O   UNL     1     -35.433  26.918   4.514  0.00  0.00    -0.065 OA
ATOM     10  O   UNL     1     -33.279  25.855   5.305  0.00  0.00    -0.065 OA
ENDBRANCH   1   7
BRANCH   2  13
ATOM     11  O   UNL     1     -36.848  24.209   4.861  0.00  0.00    -0.126 OA
ATOM     12  O   UNL     1     -35.022  23.272   5.640  0.00  0.00    -0.126 OA
ATOM     13  N   UNL     1     -35.679  23.788   4.709  0.00  0.00    +0.061 N 
ENDBRANCH   2  13
BRANCH   3  16
ATOM     14  O   UNL     1     -35.371  20.722   3.303  0.00  0.00    -0.126 OA
ATOM     15  O   UNL     1     -37.188  21.678   2.525  0.00  0.00    -0.126 OA
ATOM     16  N   UNL     1     -35.963  21.699   2.788  0.00  0.00    +0.059 N 
ENDBRANCH   3  16
TORSDOF 3
ENDMDL
MODEL 6
REMARK VINA RESULT:      -4.5      2.865      4.503
REMARK  Name = 19065601
REMARK  3 active torsions:
REMARK  status: ('A' for Active; 'I' for Inactive)
REMARK    1  A    between atoms: C_1  and  S_7
REMARK    2  A    between atoms: C_2  and  N_13
REMARK    3  A    between atoms: C_3  and  N_16
REMARK                            x       y       z     vdW  Elec       q    Type
REMARK                         _______ _______ _______ _____ _____    ______ ____
ROOT
ATOM      1  C   UNL     1     -37.845  21.955   1.892  0.00  0.00    +0.136 C 
ATOM      2  C   UNL     1     -37.395  22.996   2.704  0.00  0.00    +0.183 C 
ATOM      3  C   UNL     1     -36.219  22.849   3.439  0.00  0.00    +0.166 C 
ATOM      4  C   UNL     1     -37.118  20.767   1.813  0.00  0.00    +0.021 C 
ATOM      5  C   UNL     1     -35.492  21.660   3.362  0.00  0.00    +0.026 C 
ATOM      6  C   UNL     1     -35.942  20.620   2.548  0.00  0.00    +0.003 C 
ENDROOT
BRANCH   1   7
ATOM      7  S   UNL     1     -39.315  22.089   0.947  0.00  0.00    +0.044 S 
ATOM      8  O   UNL     1     -39.577  20.589   0.357  0.00  0.00    -0.065 OA
ATOM      9  O   UNL     1     -40.405  22.385   1.863  0.00  0.00    -0.065 OA
ATOM     10  O   UNL     1     -39.017  22.973  -0.168  0.00  0.00    -0.065 OA
ENDBRANCH   1   7
BRANCH   2  13
ATOM     11  O   UNL     1     -37.925  25.104   1.933  0.00  0.00    -0.126 OA
ATOM     12  O   UNL     1     -38.979  24.342   3.701  0.00  0.00    -0.126 OA
ATOM     13  N   UNL     1     -38.139  24.211   2.784  0.00  0.00    +0.061 N 
ENDBRANCH   2  13
BRANCH   3  16
ATOM     14  O   UNL     1     -34.960  24.748   3.790  0.00  0.00    -0.126 OA
ATOM     15  O   UNL     1     -36.087  23.914   5.480  0.00  0.00    -0.126 OA
ATOM     16  N   UNL     1     -35.731  23.889   4.278  0.00  0.00    +0.059 N 
ENDBRANCH   3  16
TORSDOF 3
ENDMDL
MODEL 7
REMARK VINA RESULT:      -4.5      2.541      3.228
REMARK  Name = 19065601
REMARK  3 active torsions:
REMARK  status: ('A' for Active; 'I' for Inactive)
REMARK    1  A    between atoms: C_1  and  S_7
REMARK    2  A    between atoms: C_2  and  N_13
REMARK    3  A    between atoms: C_3  and  N_16
REMARK                            x       y       z     vdW  Elec       q    Type
REMARK                         _______ _______ _______ _____ _____    ______ ____
ROOT
ATOM      1  C   UNL     1     -36.335  23.020   3.219  0.00  0.00    +0.136 C 
ATOM      2  C   UNL     1     -37.589  22.937   2.614  0.00  0.00    +0.183 C 
ATOM      3  C   UNL     1     -37.980  21.758   1.978  0.00  0.00    +0.166 C 
ATOM      4  C   UNL     1     -35.473  21.924   3.190  0.00  0.00    +0.021 C 
ATOM      5  C   UNL     1     -37.116  20.662   1.949  0.00  0.00    +0.026 C 
ATOM      6  C   UNL     1     -35.863  20.746   2.555  0.00  0.00    +0.003 C 
ENDROOT
BRANCH   1   7
ATOM      7  S   UNL     1     -35.795  24.477   4.030  0.00  0.00    +0.044 S 
ATOM      8  O   UNL     1     -34.295  24.128   4.573  0.00  0.00    -0.065 OA
ATOM      9  O   UNL     1     -35.655  25.518   3.025  0.00  0.00    -0.065 OA
ATOM     10  O   UNL     1     -36.664  24.662   5.180  0.00  0.00    -0.065 OA
ENDBRANCH   1   7
BRANCH   2  13
ATOM     11  O   UNL     1     -39.275  24.165   3.597  0.00  0.00    -0.126 OA
ATOM     12  O   UNL     1     -38.410  24.895   1.715  0.00  0.00    -0.126 OA
ATOM     13  N   UNL     1     -38.471  24.058   2.643  0.00  0.00    +0.061 N 
ENDBRANCH   2  13
BRANCH   3  16
ATOM     14  O   UNL     1     -39.364  21.963   0.146  0.00  0.00    -0.126 OA
ATOM     15  O   UNL     1     -40.220  21.212   2.023  0.00  0.00    -0.126 OA
ATOM     16  N   UNL     1     -39.252  21.638   1.350  0.00  0.00    +0.059 N 
ENDBRANCH   3  16
TORSDOF 3
ENDMDL
MODEL 8
REMARK VINA RESULT:      -4.5      9.720     11.354
REMARK  Name = 19065601
REMARK  3 active torsions:
REMARK  status: ('A' for Active; 'I' for Inactive)
REMARK    1  A    between atoms: C_1  and  S_7
REMARK    2  A    between atoms: C_2  and  N_13
REMARK    3  A    between atoms: C_3  and  N_16
REMARK                            x       y       z     vdW  Elec       q    Type
REMARK                         _______ _______ _______ _____ _____    ______ ____
ROOT
ATOM      1  C   UNL     1     -44.991  27.493   5.153  0.00  0.00    +0.136 C 
ATOM      2  C   UNL     1     -44.506  28.679   5.704  0.00  0.00    +0.183 C 
ATOM      3  C   UNL     1     -44.901  29.066   6.984  0.00  0.00    +0.166 C 
ATOM      4  C   UNL     1     -45.872  26.694   5.882  0.00  0.00    +0.021 C 
ATOM      5  C   UNL     1     -45.782  28.267   7.714  0.00  0.00    +0.026 C 
ATOM      6  C   UNL     1     -46.267  27.081   7.162  0.00  0.00    +0.003 C 
ENDROOT
BRANCH   1   7
ATOM      7  S   UNL     1     -44.526  26.961   3.549  0.00  0.00    +0.044 S 
ATOM      8  O   UNL     1     -45.338  25.564   3.315  0.00  0.00    -0.065 OA
ATOM      9  O   UNL     1     -45.048  27.924   2.593  0.00  0.00    -0.065 OA
ATOM     10  O   UNL     1     -43.106  26.659   3.604  0.00  0.00    -0.065 OA
ENDBRANCH   1   7
BRANCH   2  13
ATOM     11  O   UNL     1     -44.076  30.392   4.220  0.00  0.00    -0.126 OA
ATOM     12  O   UNL     1     -42.376  29.290   5.066  0.00  0.00    -0.126 OA
ATOM     13  N   UNL     1     -43.605  29.496   4.957  0.00  0.00    +0.061 N 
ENDBRANCH   2  13
BRANCH   3  16
ATOM     14  O   UNL     1     -45.048  31.335   7.366  0.00  0.00    -0.126 OA
ATOM     15  O   UNL     1     -43.397  30.225   8.293  0.00  0.00    -0.126 OA
ATOM     16  N   UNL     1     -44.425  30.269   7.578  0.00  0.00    +0.059 N 
ENDBRANCH   3  16
TORSDOF 3
ENDMDL
MODEL 9
REMARK VINA RESULT:      -4.5      3.385      4.769
REMARK  Name = 19065601
REMARK  3 active torsions:
REMARK  status: ('A' for Active; 'I' for Inactive)
REMARK    1  A    between atoms: C_1  and  S_7
REMARK    2  A    between atoms: C_2  and  N_13
REMARK    3  A    between atoms: C_3  and  N_16
REMARK                            x       y       z     vdW  Elec       q    Type
REMARK                         _______ _______ _______ _____ _____    ______ ____
ROOT
ATOM      1  C   UNL     1     -36.283  25.571   3.860  0.00  0.00    +0.136 C 
ATOM      2  C   UNL     1     -35.228  26.423   3.535  0.00  0.00    +0.183 C 
ATOM      3  C   UNL     1     -34.160  26.579   4.419  0.00  0.00    +0.166 C 
ATOM      4  C   UNL     1     -36.270  24.873   5.068  0.00  0.00    +0.021 C 
ATOM      5  C   UNL     1     -34.148  25.882   5.628  0.00  0.00    +0.026 C 
ATOM      6  C   UNL     1     -35.203  25.029   5.951  0.00  0.00    +0.003 C 
ENDROOT
BRANCH   1   7
ATOM      7  S   UNL     1     -37.648  25.339   2.785  0.00  0.00    +0.044 S 
ATOM      8  O   UNL     1     -38.677  24.375   3.609  0.00  0.00    -0.065 OA
ATOM      9  O   UNL     1     -38.306  26.625   2.621  0.00  0.00    -0.065 OA
ATOM     10  O   UNL     1     -37.154  24.601   1.635  0.00  0.00    -0.065 OA
ENDBRANCH   1   7
BRANCH   2  13
ATOM     11  O   UNL     1     -34.754  26.589   1.284  0.00  0.00    -0.126 OA
ATOM     12  O   UNL     1     -35.739  28.284   2.273  0.00  0.00    -0.126 OA
ATOM     13  N   UNL     1     -35.241  27.136   2.299  0.00  0.00    +0.061 N 
ENDBRANCH   2  13
BRANCH   3  16
ATOM     14  O   UNL     1     -33.132  28.642   4.467  0.00  0.00    -0.126 OA
ATOM     15  O   UNL     1     -32.073  26.969   3.519  0.00  0.00    -0.126 OA
ATOM     16  N   UNL     1     -33.067  27.440   4.120  0.00  0.00    +0.059 N 
ENDBRANCH   3  16
TORSDOF 3
ENDMDL
