MODEL 1
REMARK VINA RESULT:      -7.0      0.000      0.000
REMARK  Name = 5467200
REMARK  9 active torsions:
REMARK  status: ('A' for Active; 'I' for Inactive)
REMARK    1  A    between atoms: C_3  and  C_28
REMARK    2  A    between atoms: C_4  and  C_38
REMARK    3  A    between atoms: C_8  and  C_13
REMARK    4  A    between atoms: C_14  and  O_22
REMARK    5  A    between atoms: C_18  and  O_24
REMARK    6  A    between atoms: C_20  and  O_26
REMARK    7  A    between atoms: C_31  and  O_34
REMARK    8  A    between atoms: C_33  and  O_36
REMARK    9  A    between atoms: C_38  and  O_39
REMARK                            x       y       z     vdW  Elec       q    Type
REMARK                         _______ _______ _______ _____ _____    ______ ____
ROOT
ATOM      1  O   UNL     1     -42.607  27.902   4.474  0.00  0.00    -0.468 OA
ATOM      2  O   UNL     1     -43.325  28.850   1.853  0.00  0.00    -0.469 OA
ATOM      3  C   UNL     1     -43.280  29.155   4.263  0.00  0.00    +0.230 C 
ATOM      4  C   UNL     1     -44.158  29.074   3.004  0.00  0.00    +0.239 C 
ATOM      5  C   UNL     1     -42.063  27.393   3.326  0.00  0.00    +0.173 C 
ATOM      6  C   UNL     1     -42.402  27.861   2.056  0.00  0.00    +0.172 C 
ATOM      7  C   UNL     1     -41.137  26.359   3.466  0.00  0.00    +0.043 C 
ATOM      8  C   UNL     1     -40.529  25.814   2.335  0.00  0.00    +0.041 C 
ATOM      9  C   UNL     1     -41.784  27.324   0.926  0.00  0.00    +0.040 C 
ATOM     10  C   UNL     1     -40.849  26.300   1.067  0.00  0.00    +0.006 C 
ENDROOT
BRANCH   8  13
ATOM     11  O   UNL     1     -38.387  25.128   3.127  0.00  0.00    -0.450 OA
ATOM     12  O   UNL     1     -38.856  21.310   1.783  0.00  0.00    -0.283 OA
ATOM     13  C   UNL     1     -39.545  24.726   2.480  0.00  0.00    +0.182 A 
ATOM     14  C   UNL     1     -39.763  23.486   2.006  0.00  0.00    +0.208 A 
ATOM     15  C   UNL     1     -37.493  22.884   2.890  0.00  0.00    +0.110 A 
ATOM     16  C   UNL     1     -37.393  24.204   3.322  0.00  0.00    +0.155 A 
ATOM     17  C   UNL     1     -38.713  22.455   2.191  0.00  0.00    +0.238 A 
ATOM     18  C   UNL     1     -36.447  21.987   3.117  0.00  0.00    +0.143 C 
ATOM     19  C   UNL     1     -36.244  24.637   3.986  0.00  0.00    +0.074 C 
ATOM     20  C   UNL     1     -35.197  23.744   4.215  0.00  0.00    +0.140 C 
ATOM     21  C   UNL     1     -35.299  22.421   3.780  0.00  0.00    +0.073 C 
BRANCH  14  22
ATOM     22  O   UNL     1     -40.914  23.127   1.338  0.00  0.00    -0.501 OA
ATOM     23  H   UNL     1     -41.668  22.851   1.819  0.00  0.00    +0.292 HD
ENDBRANCH  14  22
BRANCH  18  24
ATOM     24  O   UNL     1     -36.494  20.686   2.714  0.00  0.00    -0.505 OA
ATOM     25  H   UNL     1     -37.289  20.332   2.369  0.00  0.00    +0.292 HD
ENDBRANCH  18  24
BRANCH  20  26
ATOM     26  O   UNL     1     -34.076  24.162   4.862  0.00  0.00    -0.505 OA
ATOM     27  H   UNL     1     -33.364  24.531   4.374  0.00  0.00    +0.292 HD
ENDBRANCH  20  26
ENDBRANCH   8  13
BRANCH   3  28
ATOM     28  C   UNL     1     -44.054  29.455   5.528  0.00  0.00    +0.024 C 
ATOM     29  C   UNL     1     -45.059  28.587   5.954  0.00  0.00    +0.039 C 
ATOM     30  C   UNL     1     -43.763  30.601   6.268  0.00  0.00    +0.003 C 
ATOM     31  C   UNL     1     -45.773  28.863   7.120  0.00  0.00    +0.172 C 
ATOM     32  C   UNL     1     -44.477  30.879   7.434  0.00  0.00    +0.040 C 
ATOM     33  C   UNL     1     -45.482  30.009   7.859  0.00  0.00    +0.168 C 
BRANCH  31  34
ATOM     34  O   UNL     1     -46.751  28.007   7.525  0.00  0.00    -0.468 OA
ATOM     35  C   UNL     1     -46.335  26.733   8.015  0.00  0.00    +0.253 C 
ENDBRANCH  31  34
BRANCH  33  36
ATOM     36  O   UNL     1     -46.171  30.290   9.000  0.00  0.00    -0.503 OA
ATOM     37  H   UNL     1     -46.034  29.772   9.770  0.00  0.00    +0.292 HD
ENDBRANCH  33  36
ENDBRANCH   3  28
BRANCH   4  38
ATOM     38  C   UNL     1     -44.931  30.360   2.730  0.00  0.00    +0.185 C 
BRANCH  38  39
ATOM     39  O   UNL     1     -44.007  31.428   2.623  0.00  0.00    -0.378 OA
ATOM     40  H   UNL     1     -43.227  31.131   2.129  0.00  0.00    +0.211 HD
ENDBRANCH  38  39
ENDBRANCH   4  38
TORSDOF 9
ENDMDL
MODEL 2
REMARK VINA RESULT:      -6.9      6.884      9.942
REMARK  Name = 5467200
REMARK  9 active torsions:
REMARK  status: ('A' for Active; 'I' for Inactive)
REMARK    1  A    between atoms: C_3  and  C_28
REMARK    2  A    between atoms: C_4  and  C_38
REMARK    3  A    between atoms: C_8  and  C_13
REMARK    4  A    between atoms: C_14  and  O_22
REMARK    5  A    between atoms: C_18  and  O_24
REMARK    6  A    between atoms: C_20  and  O_26
REMARK    7  A    between atoms: C_31  and  O_34
REMARK    8  A    between atoms: C_33  and  O_36
REMARK    9  A    between atoms: C_38  and  O_39
REMARK                            x       y       z     vdW  Elec       q    Type
REMARK                         _______ _______ _______ _____ _____    ______ ____
ROOT
ATOM      1  O   UNL     1     -33.441  27.677   3.235  0.00  0.00    -0.468 OA
ATOM      2  O   UNL     1     -32.999  27.398   6.065  0.00  0.00    -0.469 OA
ATOM      3  C   UNL     1     -33.025  28.776   4.065  0.00  0.00    +0.230 C 
ATOM      4  C   UNL     1     -32.188  28.256   5.244  0.00  0.00    +0.239 C 
ATOM      5  C   UNL     1     -33.914  26.617   3.959  0.00  0.00    +0.173 C 
ATOM      6  C   UNL     1     -33.709  26.488   5.333  0.00  0.00    +0.172 C 
ATOM      7  C   UNL     1     -34.621  25.637   3.262  0.00  0.00    +0.043 C 
ATOM      8  C   UNL     1     -35.149  24.542   3.948  0.00  0.00    +0.041 C 
ATOM      9  C   UNL     1     -34.249  25.399   6.020  0.00  0.00    +0.040 C 
ATOM     10  C   UNL     1     -34.967  24.427   5.326  0.00  0.00    +0.006 C 
ENDROOT
BRANCH   8  13
ATOM     11  O   UNL     1     -35.086  22.557   2.627  0.00  0.00    -0.450 OA
ATOM     12  O   UNL     1     -39.140  22.409   2.242  0.00  0.00    -0.283 OA
ATOM     13  C   UNL     1     -35.904  23.509   3.215  0.00  0.00    +0.182 A 
ATOM     14  C   UNL     1     -37.246  23.524   3.122  0.00  0.00    +0.208 A 
ATOM     15  C   UNL     1     -37.050  21.434   1.749  0.00  0.00    +0.110 A 
ATOM     16  C   UNL     1     -35.671  21.542   1.915  0.00  0.00    +0.155 A 
ATOM     17  C   UNL     1     -37.922  22.449   2.358  0.00  0.00    +0.238 A 
ATOM     18  C   UNL     1     -37.590  20.377   1.012  0.00  0.00    +0.143 C 
ATOM     19  C   UNL     1     -34.822  20.593   1.344  0.00  0.00    +0.074 C 
ATOM     20  C   UNL     1     -35.358  19.537   0.608  0.00  0.00    +0.140 C 
ATOM     21  C   UNL     1     -36.739  19.430   0.442  0.00  0.00    +0.073 C 
BRANCH  14  22
ATOM     22  O   UNL     1     -38.028  24.506   3.692  0.00  0.00    -0.501 OA
ATOM     23  H   UNL     1     -38.916  24.319   3.927  0.00  0.00    +0.292 HD
ENDBRANCH  14  22
BRANCH  18  24
ATOM     24  O   UNL     1     -38.930  20.225   0.818  0.00  0.00    -0.505 OA
ATOM     25  H   UNL     1     -39.536  20.731   1.323  0.00  0.00    +0.292 HD
ENDBRANCH  18  24
BRANCH  20  26
ATOM     26  O   UNL     1     -34.532  18.610   0.050  0.00  0.00    -0.505 OA
ATOM     27  H   UNL     1     -34.463  17.755   0.431  0.00  0.00    +0.292 HD
ENDBRANCH  20  26
ENDBRANCH   8  13
BRANCH   3  28
ATOM     28  C   UNL     1     -32.284  29.744   3.169  0.00  0.00    +0.024 C 
ATOM     29  C   UNL     1     -32.665  31.085   3.123  0.00  0.00    +0.039 C 
ATOM     30  C   UNL     1     -31.217  29.296   2.389  0.00  0.00    +0.003 C 
ATOM     31  C   UNL     1     -31.982  31.977   2.298  0.00  0.00    +0.172 C 
ATOM     32  C   UNL     1     -30.534  30.188   1.563  0.00  0.00    +0.040 C 
ATOM     33  C   UNL     1     -30.917  31.529   1.518  0.00  0.00    +0.168 C 
BRANCH  31  34
ATOM     34  O   UNL     1     -32.364  33.284   2.263  0.00  0.00    -0.468 OA
ATOM     35  C   UNL     1     -33.696  33.558   1.830  0.00  0.00    +0.253 C 
ENDBRANCH  31  34
BRANCH  33  36
ATOM     36  O   UNL     1     -30.241  32.391   0.708  0.00  0.00    -0.503 OA
ATOM     37  H   UNL     1     -30.047  32.148  -0.177  0.00  0.00    +0.292 HD
ENDBRANCH  33  36
ENDBRANCH   3  28
BRANCH   4  38
ATOM     38  C   UNL     1     -31.683  29.371   6.155  0.00  0.00    +0.185 C 
BRANCH  38  39
ATOM     39  O   UNL     1     -31.813  28.948   7.500  0.00  0.00    -0.378 OA
ATOM     40  H   UNL     1     -31.069  29.289   8.020  0.00  0.00    +0.211 HD
ENDBRANCH  38  39
ENDBRANCH   4  38
TORSDOF 9
ENDMDL
MODEL 3
REMARK VINA RESULT:      -6.8      6.624     10.499
REMARK  Name = 5467200
REMARK  9 active torsions:
REMARK  status: ('A' for Active; 'I' for Inactive)
REMARK    1  A    between atoms: C_3  and  C_28
REMARK    2  A    between atoms: C_4  and  C_38
REMARK    3  A    between atoms: C_8  and  C_13
REMARK    4  A    between atoms: C_14  and  O_22
REMARK    5  A    between atoms: C_18  and  O_24
REMARK    6  A    between atoms: C_20  and  O_26
REMARK    7  A    between atoms: C_31  and  O_34
REMARK    8  A    between atoms: C_33  and  O_36
REMARK    9  A    between atoms: C_38  and  O_39
REMARK                            x       y       z     vdW  Elec       q    Type
REMARK                         _______ _______ _______ _____ _____    ______ ____
ROOT
ATOM      1  O   UNL     1     -33.085  27.999   3.396  0.00  0.00    -0.468 OA
ATOM      2  O   UNL     1     -32.670  27.814   6.238  0.00  0.00    -0.469 OA
ATOM      3  C   UNL     1     -32.593  29.101   4.179  0.00  0.00    +0.230 C 
ATOM      4  C   UNL     1     -31.797  28.574   5.384  0.00  0.00    +0.239 C 
ATOM      5  C   UNL     1     -33.634  27.008   4.164  0.00  0.00    +0.173 C 
ATOM      6  C   UNL     1     -33.442  26.925   5.542  0.00  0.00    +0.172 C 
ATOM      7  C   UNL     1     -34.409  26.051   3.507  0.00  0.00    +0.043 C 
ATOM      8  C   UNL     1     -35.015  25.029   4.236  0.00  0.00    +0.041 C 
ATOM      9  C   UNL     1     -34.060  25.910   6.273  0.00  0.00    +0.040 C 
ATOM     10  C   UNL     1     -34.845  24.961   5.619  0.00  0.00    +0.006 C 
ENDROOT
BRANCH   8  13
ATOM     11  O   UNL     1     -35.100  22.954   3.064  0.00  0.00    -0.450 OA
ATOM     12  O   UNL     1     -39.131  23.168   2.510  0.00  0.00    -0.283 OA
ATOM     13  C   UNL     1     -35.841  24.021   3.545  0.00  0.00    +0.182 A 
ATOM     14  C   UNL     1     -37.170  24.159   3.393  0.00  0.00    +0.208 A 
ATOM     15  C   UNL     1     -37.132  21.962   2.180  0.00  0.00    +0.110 A 
ATOM     16  C   UNL     1     -35.757  21.950   2.400  0.00  0.00    +0.155 A 
ATOM     17  C   UNL     1     -37.921  23.099   2.677  0.00  0.00    +0.238 A 
ATOM     18  C   UNL     1     -37.746  20.911   1.497  0.00  0.00    +0.143 C 
ATOM     19  C   UNL     1     -34.985  20.883   1.936  0.00  0.00    +0.074 C 
ATOM     20  C   UNL     1     -35.595  19.831   1.253  0.00  0.00    +0.140 C 
ATOM     21  C   UNL     1     -36.973  19.845   1.034  0.00  0.00    +0.073 C 
BRANCH  14  22
ATOM     22  O   UNL     1     -37.873  25.251   3.856  0.00  0.00    -0.501 OA
ATOM     23  H   UNL     1     -38.318  25.206   4.679  0.00  0.00    +0.292 HD
ENDBRANCH  14  22
BRANCH  18  24
ATOM     24  O   UNL     1     -39.086  20.874   1.255  0.00  0.00    -0.505 OA
ATOM     25  H   UNL     1     -39.494  20.071   1.000  0.00  0.00    +0.292 HD
ENDBRANCH  18  24
BRANCH  20  26
ATOM     26  O   UNL     1     -34.845  18.790   0.800  0.00  0.00    -0.505 OA
ATOM     27  H   UNL     1     -34.210  18.390   1.363  0.00  0.00    +0.292 HD
ENDBRANCH  20  26
ENDBRANCH   8  13
BRANCH   3  28
ATOM     28  C   UNL     1     -31.782  29.973   3.246  0.00  0.00    +0.024 C 
ATOM     29  C   UNL     1     -30.681  29.442   2.575  0.00  0.00    +0.039 C 
ATOM     30  C   UNL     1     -32.135  31.309   3.057  0.00  0.00    +0.003 C 
ATOM     31  C   UNL     1     -29.933  30.246   1.715  0.00  0.00    +0.172 C 
ATOM     32  C   UNL     1     -31.387  32.114   2.199  0.00  0.00    +0.040 C 
ATOM     33  C   UNL     1     -30.286  31.582   1.528  0.00  0.00    +0.168 C 
BRANCH  31  34
ATOM     34  O   UNL     1     -28.861  29.715   1.065  0.00  0.00    -0.468 OA
ATOM     35  C   UNL     1     -27.709  29.416   1.851  0.00  0.00    +0.253 C 
ENDBRANCH  31  34
BRANCH  33  36
ATOM     36  O   UNL     1     -29.564  32.378   0.690  0.00  0.00    -0.503 OA
ATOM     37  H   UNL     1     -29.866  32.533  -0.184  0.00  0.00    +0.292 HD
ENDBRANCH  33  36
ENDBRANCH   3  28
BRANCH   4  38
ATOM     38  C   UNL     1     -31.215  29.689   6.248  0.00  0.00    +0.185 C 
BRANCH  38  39
ATOM     39  O   UNL     1     -31.532  29.422   7.602  0.00  0.00    -0.378 OA
ATOM     40  H   UNL     1     -31.128  28.582   7.869  0.00  0.00    +0.211 HD
ENDBRANCH  38  39
ENDBRANCH   4  38
TORSDOF 9
ENDMDL
MODEL 4
REMARK VINA RESULT:      -6.8      6.573     10.513
REMARK  Name = 5467200
REMARK  9 active torsions:
REMARK  status: ('A' for Active; 'I' for Inactive)
REMARK    1  A    between atoms: C_3  and  C_28
REMARK    2  A    between atoms: C_4  and  C_38
REMARK    3  A    between atoms: C_8  and  C_13
REMARK    4  A    between atoms: C_14  and  O_22
REMARK    5  A    between atoms: C_18  and  O_24
REMARK    6  A    between atoms: C_20  and  O_26
REMARK    7  A    between atoms: C_31  and  O_34
REMARK    8  A    between atoms: C_33  and  O_36
REMARK    9  A    between atoms: C_38  and  O_39
REMARK                            x       y       z     vdW  Elec       q    Type
REMARK                         _______ _______ _______ _____ _____    ______ ____
ROOT
ATOM      1  O   UNL     1     -35.377  21.126   1.716  0.00  0.00    -0.468 OA
ATOM      2  O   UNL     1     -37.730  20.000   0.500  0.00  0.00    -0.469 OA
ATOM      3  C   UNL     1     -36.564  21.899   1.467  0.00  0.00    +0.230 C 
ATOM      4  C   UNL     1     -37.804  20.993   1.537  0.00  0.00    +0.239 C 
ATOM      5  C   UNL     1     -35.365  19.941   1.031  0.00  0.00    +0.173 C 
ATOM      6  C   UNL     1     -36.503  19.401   0.433  0.00  0.00    +0.172 C 
ATOM      7  C   UNL     1     -34.146  19.265   0.953  0.00  0.00    +0.043 C 
ATOM      8  C   UNL     1     -34.063  18.063   0.250  0.00  0.00    +0.041 C 
ATOM      9  C   UNL     1     -36.415  18.206  -0.282  0.00  0.00    +0.040 C 
ATOM     10  C   UNL     1     -35.195  17.537  -0.371  0.00  0.00    +0.006 C 
ENDROOT
BRANCH   8  13
ATOM     11  O   UNL     1     -31.682  18.198   0.255  0.00  0.00    -0.450 OA
ATOM     12  O   UNL     1     -31.224  14.183  -0.266  0.00  0.00    -0.283 OA
ATOM     13  C   UNL     1     -32.774  17.352   0.160  0.00  0.00    +0.182 A 
ATOM     14  C   UNL     1     -32.696  16.020  -0.019  0.00  0.00    +0.208 A 
ATOM     15  C   UNL     1     -30.201  16.290   0.010  0.00  0.00    +0.110 A 
ATOM     16  C   UNL     1     -30.425  17.653   0.184  0.00  0.00    +0.155 A 
ATOM     17  C   UNL     1     -31.358  15.388  -0.106  0.00  0.00    +0.238 A 
ATOM     18  C   UNL     1     -28.898  15.792  -0.056  0.00  0.00    +0.143 C 
ATOM     19  C   UNL     1     -29.345  18.530   0.293  0.00  0.00    +0.074 C 
ATOM     20  C   UNL     1     -28.042  18.037   0.229  0.00  0.00    +0.140 C 
ATOM     21  C   UNL     1     -27.819  16.670   0.053  0.00  0.00    +0.073 C 
BRANCH  14  22
ATOM     22  O   UNL     1     -33.805  15.211  -0.142  0.00  0.00    -0.501 OA
ATOM     23  H   UNL     1     -33.710  14.279  -0.107  0.00  0.00    +0.292 HD
ENDBRANCH  14  22
BRANCH  18  24
ATOM     24  O   UNL     1     -28.625  14.468  -0.226  0.00  0.00    -0.505 OA
ATOM     25  H   UNL     1     -29.183  13.822   0.158  0.00  0.00    +0.292 HD
ENDBRANCH  18  24
BRANCH  20  26
ATOM     26  O   UNL     1     -26.986  18.889   0.335  0.00  0.00    -0.505 OA
ATOM     27  H   UNL     1     -27.120  19.763   0.647  0.00  0.00    +0.292 HD
ENDBRANCH  20  26
ENDBRANCH   8  13
BRANCH   3  28
ATOM     28  C   UNL     1     -36.573  23.025   2.478  0.00  0.00    +0.024 C 
ATOM     29  C   UNL     1     -36.203  22.779   3.800  0.00  0.00    +0.039 C 
ATOM     30  C   UNL     1     -36.951  24.309   2.088  0.00  0.00    +0.003 C 
ATOM     31  C   UNL     1     -36.211  23.817   4.732  0.00  0.00    +0.172 C 
ATOM     32  C   UNL     1     -36.961  25.347   3.019  0.00  0.00    +0.040 C 
ATOM     33  C   UNL     1     -36.591  25.100   4.341  0.00  0.00    +0.168 C 
BRANCH  31  34
ATOM     34  O   UNL     1     -35.847  23.564   6.019  0.00  0.00    -0.468 OA
ATOM     35  C   UNL     1     -35.398  22.243   6.318  0.00  0.00    +0.253 C 
ENDBRANCH  31  34
BRANCH  33  36
ATOM     36  O   UNL     1     -36.602  26.123   5.241  0.00  0.00    -0.503 OA
ATOM     37  H   UNL     1     -35.845  26.668   5.340  0.00  0.00    +0.292 HD
ENDBRANCH  33  36
ENDBRANCH   3  28
BRANCH   4  38
ATOM     38  C   UNL     1     -39.110  21.751   1.314  0.00  0.00    +0.185 C 
BRANCH  38  39
ATOM     39  O   UNL     1     -40.161  21.028   1.929  0.00  0.00    -0.378 OA
ATOM     40  H   UNL     1     -40.412  20.280   1.364  0.00  0.00    +0.211 HD
ENDBRANCH  38  39
ENDBRANCH   4  38
TORSDOF 9
ENDMDL
MODEL 5
REMARK VINA RESULT:      -6.7      6.471      7.769
REMARK  Name = 5467200
REMARK  9 active torsions:
REMARK  status: ('A' for Active; 'I' for Inactive)
REMARK    1  A    between atoms: C_3  and  C_28
REMARK    2  A    between atoms: C_4  and  C_38
REMARK    3  A    between atoms: C_8  and  C_13
REMARK    4  A    between atoms: C_14  and  O_22
REMARK    5  A    between atoms: C_18  and  O_24
REMARK    6  A    between atoms: C_20  and  O_26
REMARK    7  A    between atoms: C_31  and  O_34
REMARK    8  A    between atoms: C_33  and  O_36
REMARK    9  A    between atoms: C_38  and  O_39
REMARK                            x       y       z     vdW  Elec       q    Type
REMARK                         _______ _______ _______ _____ _____    ______ ____
ROOT
ATOM      1  O   UNL     1     -36.447  30.054   1.886  0.00  0.00    -0.468 OA
ATOM      2  O   UNL     1     -33.778  31.124   2.004  0.00  0.00    -0.469 OA
ATOM      3  C   UNL     1     -36.181  31.468   1.904  0.00  0.00    +0.230 C 
ATOM      4  C   UNL     1     -34.823  31.755   1.243  0.00  0.00    +0.239 C 
ATOM      5  C   UNL     1     -35.363  29.307   2.260  0.00  0.00    +0.173 C 
ATOM      6  C   UNL     1     -34.072  29.829   2.328  0.00  0.00    +0.172 C 
ATOM      7  C   UNL     1     -35.594  27.967   2.574  0.00  0.00    +0.043 C 
ATOM      8  C   UNL     1     -34.534  27.159   2.984  0.00  0.00    +0.041 C 
ATOM      9  C   UNL     1     -33.015  29.023   2.752  0.00  0.00    +0.040 C 
ATOM     10  C   UNL     1     -33.247  27.687   3.078  0.00  0.00    +0.006 C 
ENDROOT
BRANCH   8  13
ATOM     11  O   UNL     1     -34.720  24.907   2.222  0.00  0.00    -0.450 OA
ATOM     12  O   UNL     1     -35.527  23.468   5.947  0.00  0.00    -0.283 OA
ATOM     13  C   UNL     1     -34.777  25.744   3.324  0.00  0.00    +0.182 A 
ATOM     14  C   UNL     1     -35.044  25.338   4.578  0.00  0.00    +0.208 A 
ATOM     15  C   UNL     1     -35.208  23.010   3.656  0.00  0.00    +0.110 A 
ATOM     16  C   UNL     1     -34.931  23.565   2.409  0.00  0.00    +0.155 A 
ATOM     17  C   UNL     1     -35.282  23.896   4.828  0.00  0.00    +0.238 A 
ATOM     18  C   UNL     1     -35.414  21.635   3.787  0.00  0.00    +0.143 C 
ATOM     19  C   UNL     1     -34.858  22.746   1.282  0.00  0.00    +0.074 C 
ATOM     20  C   UNL     1     -35.062  21.372   1.408  0.00  0.00    +0.140 C 
ATOM     21  C   UNL     1     -35.340  20.818   2.658  0.00  0.00    +0.073 C 
BRANCH  14  22
ATOM     22  O   UNL     1     -35.124  26.203   5.648  0.00  0.00    -0.501 OA
ATOM     23  H   UNL     1     -34.347  26.596   5.992  0.00  0.00    +0.292 HD
ENDBRANCH  14  22
BRANCH  18  24
ATOM     24  O   UNL     1     -35.688  21.043   4.982  0.00  0.00    -0.505 OA
ATOM     25  H   UNL     1     -36.456  20.516   5.078  0.00  0.00    +0.292 HD
ENDBRANCH  18  24
BRANCH  20  26
ATOM     26  O   UNL     1     -34.991  20.570   0.310  0.00  0.00    -0.505 OA
ATOM     27  H   UNL     1     -35.392  20.840  -0.494  0.00  0.00    +0.292 HD
ENDBRANCH  20  26
ENDBRANCH   8  13
BRANCH   3  28
ATOM     28  C   UNL     1     -37.348  32.142   1.218  0.00  0.00    +0.024 C 
ATOM     29  C   UNL     1     -38.143  33.047   1.921  0.00  0.00    +0.039 C 
ATOM     30  C   UNL     1     -37.630  31.859  -0.119  0.00  0.00    +0.003 C 
ATOM     31  C   UNL     1     -39.220  33.668   1.288  0.00  0.00    +0.172 C 
ATOM     32  C   UNL     1     -38.707  32.479  -0.751  0.00  0.00    +0.040 C 
ATOM     33  C   UNL     1     -39.502  33.384  -0.047  0.00  0.00    +0.168 C 
BRANCH  31  34
ATOM     34  O   UNL     1     -39.988  34.551   1.986  0.00  0.00    -0.468 OA
ATOM     35  C   UNL     1     -39.308  35.599   2.675  0.00  0.00    +0.253 C 
ENDBRANCH  31  34
BRANCH  33  36
ATOM     36  O   UNL     1     -40.550  33.985  -0.677  0.00  0.00    -0.503 OA
ATOM     37  H   UNL     1     -41.248  34.357  -0.173  0.00  0.00    +0.292 HD
ENDBRANCH  33  36
ENDBRANCH   3  28
BRANCH   4  38
ATOM     38  C   UNL     1     -34.484  33.242   1.197  0.00  0.00    +0.185 C 
BRANCH  38  39
ATOM     39  O   UNL     1     -33.611  33.539   2.272  0.00  0.00    -0.378 OA
ATOM     40  H   UNL     1     -34.059  33.357   3.112  0.00  0.00    +0.211 HD
ENDBRANCH  38  39
ENDBRANCH   4  38
TORSDOF 9
ENDMDL
MODEL 6
REMARK VINA RESULT:      -6.7      6.759     12.216
REMARK  Name = 5467200
REMARK  9 active torsions:
REMARK  status: ('A' for Active; 'I' for Inactive)
REMARK    1  A    between atoms: C_3  and  C_28
REMARK    2  A    between atoms: C_4  and  C_38
REMARK    3  A    between atoms: C_8  and  C_13
REMARK    4  A    between atoms: C_14  and  O_22
REMARK    5  A    between atoms: C_18  and  O_24
REMARK    6  A    between atoms: C_20  and  O_26
REMARK    7  A    between atoms: C_31  and  O_34
REMARK    8  A    between atoms: C_33  and  O_36
REMARK    9  A    between atoms: C_38  and  O_39
REMARK                            x       y       z     vdW  Elec       q    Type
REMARK                         _______ _______ _______ _____ _____    ______ ____
ROOT
ATOM      1  O   UNL     1     -37.258  18.202  -0.279  0.00  0.00    -0.468 OA
ATOM      2  O   UNL     1     -34.643  16.999  -0.292  0.00  0.00    -0.469 OA
ATOM      3  C   UNL     1     -36.876  17.191  -1.229  0.00  0.00    +0.230 C 
ATOM      4  C   UNL     1     -35.832  16.252  -0.605  0.00  0.00    +0.239 C 
ATOM      5  C   UNL     1     -36.184  18.751   0.368  0.00  0.00    +0.173 C 
ATOM      6  C   UNL     1     -34.915  18.174   0.352  0.00  0.00    +0.172 C 
ATOM      7  C   UNL     1     -36.405  19.936   1.071  0.00  0.00    +0.043 C 
ATOM      8  C   UNL     1     -35.347  20.558   1.733  0.00  0.00    +0.041 C 
ATOM      9  C   UNL     1     -33.854  18.803   1.003  0.00  0.00    +0.040 C 
ATOM     10  C   UNL     1     -34.071  19.995   1.694  0.00  0.00    +0.006 C 
ENDROOT
BRANCH   8  13
ATOM     11  O   UNL     1     -35.666  22.919   1.638  0.00  0.00    -0.450 OA
ATOM     12  O   UNL     1     -35.976  23.271   5.686  0.00  0.00    -0.283 OA
ATOM     13  C   UNL     1     -35.576  21.814   2.470  0.00  0.00    +0.182 A 
ATOM     14  C   UNL     1     -35.662  21.859   3.811  0.00  0.00    +0.208 A 
ATOM     15  C   UNL     1     -35.996  24.335   3.582  0.00  0.00    +0.110 A 
ATOM     16  C   UNL     1     -35.878  24.149   2.207  0.00  0.00    +0.155 A 
ATOM     17  C   UNL     1     -35.887  23.168   4.470  0.00  0.00    +0.238 A 
ATOM     18  C   UNL     1     -36.211  25.613   4.104  0.00  0.00    +0.143 C 
ATOM     19  C   UNL     1     -35.975  25.240   1.343  0.00  0.00    +0.074 C 
ATOM     20  C   UNL     1     -36.191  26.518   1.861  0.00  0.00    +0.140 C 
ATOM     21  C   UNL     1     -36.307  26.703   3.239  0.00  0.00    +0.073 C 
BRANCH  14  22
ATOM     22  O   UNL     1     -35.535  20.744   4.612  0.00  0.00    -0.501 OA
ATOM     23  H   UNL     1     -34.766  20.211   4.553  0.00  0.00    +0.292 HD
ENDBRANCH  14  22
BRANCH  18  24
ATOM     24  O   UNL     1     -36.332  25.850   5.440  0.00  0.00    -0.505 OA
ATOM     25  H   UNL     1     -35.813  25.365   6.051  0.00  0.00    +0.292 HD
ENDBRANCH  18  24
BRANCH  20  26
ATOM     26  O   UNL     1     -36.286  27.584   1.021  0.00  0.00    -0.505 OA
ATOM     27  H   UNL     1     -36.981  28.205   1.129  0.00  0.00    +0.292 HD
ENDBRANCH  20  26
ENDBRANCH   8  13
BRANCH   3  28
ATOM     28  C   UNL     1     -38.147  16.491  -1.657  0.00  0.00    +0.024 C 
ATOM     29  C   UNL     1     -38.969  15.890  -0.703  0.00  0.00    +0.039 C 
ATOM     30  C   UNL     1     -38.498  16.445  -3.007  0.00  0.00    +0.003 C 
ATOM     31  C   UNL     1     -40.140  15.244  -1.098  0.00  0.00    +0.172 C 
ATOM     32  C   UNL     1     -39.669  15.798  -3.402  0.00  0.00    +0.040 C 
ATOM     33  C   UNL     1     -40.490  15.198  -2.447  0.00  0.00    +0.168 C 
BRANCH  31  34
ATOM     34  O   UNL     1     -40.934  14.663  -0.157  0.00  0.00    -0.468 OA
ATOM     35  C   UNL     1     -40.623  13.321   0.215  0.00  0.00    +0.253 C 
ENDBRANCH  31  34
BRANCH  33  36
ATOM     36  O   UNL     1     -41.632  14.571  -2.846  0.00  0.00    -0.503 OA
ATOM     37  H   UNL     1     -42.467  14.938  -2.629  0.00  0.00    +0.292 HD
ENDBRANCH  33  36
ENDBRANCH   3  28
BRANCH   4  38
ATOM     38  C   UNL     1     -35.400  15.130  -1.545  0.00  0.00    +0.185 C 
BRANCH  38  39
ATOM     39  O   UNL     1     -35.166  13.963  -0.777  0.00  0.00    -0.378 OA
ATOM     40  H   UNL     1     -35.916  13.813  -0.181  0.00  0.00    +0.211 HD
ENDBRANCH  38  39
ENDBRANCH   4  38
TORSDOF 9
ENDMDL
MODEL 7
REMARK VINA RESULT:      -6.7      6.371     11.326
REMARK  Name = 5467200
REMARK  9 active torsions:
REMARK  status: ('A' for Active; 'I' for Inactive)
REMARK    1  A    between atoms: C_3  and  C_28
REMARK    2  A    between atoms: C_4  and  C_38
REMARK    3  A    between atoms: C_8  and  C_13
REMARK    4  A    between atoms: C_14  and  O_22
REMARK    5  A    between atoms: C_18  and  O_24
REMARK    6  A    between atoms: C_20  and  O_26
REMARK    7  A    between atoms: C_31  and  O_34
REMARK    8  A    between atoms: C_33  and  O_36
REMARK    9  A    between atoms: C_38  and  O_39
REMARK                            x       y       z     vdW  Elec       q    Type
REMARK                         _______ _______ _______ _____ _____    ______ ____
ROOT
ATOM      1  O   UNL     1     -35.552  28.695   2.674  0.00  0.00    -0.468 OA
ATOM      2  O   UNL     1     -32.898  29.775   2.944  0.00  0.00    -0.469 OA
ATOM      3  C   UNL     1     -34.388  27.861   2.812  0.00  0.00    +0.230 C 
ATOM      4  C   UNL     1     -33.316  28.588   3.640  0.00  0.00    +0.239 C 
ATOM      5  C   UNL     1     -35.241  29.988   2.355  0.00  0.00    +0.173 C 
ATOM      6  C   UNL     1     -33.952  30.508   2.475  0.00  0.00    +0.172 C 
ATOM      7  C   UNL     1     -36.282  30.798   1.898  0.00  0.00    +0.043 C 
ATOM      8  C   UNL     1     -36.025  32.119   1.535  0.00  0.00    +0.041 C 
ATOM      9  C   UNL     1     -33.693  31.827   2.098  0.00  0.00    +0.040 C 
ATOM     10  C   UNL     1     -34.731  32.632   1.629  0.00  0.00    +0.006 C 
ENDROOT
BRANCH   8  13
ATOM     11  O   UNL     1     -37.846  33.563   2.069  0.00  0.00    -0.450 OA
ATOM     12  O   UNL     1     -38.798  34.189  -1.844  0.00  0.00    -0.283 OA
ATOM     13  C   UNL     1     -37.122  32.974   1.045  0.00  0.00    +0.182 A 
ATOM     14  C   UNL     1     -37.384  33.132  -0.265  0.00  0.00    +0.208 A 
ATOM     15  C   UNL     1     -39.270  34.639   0.422  0.00  0.00    +0.110 A 
ATOM     16  C   UNL     1     -38.896  34.382   1.739  0.00  0.00    +0.155 A 
ATOM     17  C   UNL     1     -38.513  34.006  -0.668  0.00  0.00    +0.238 A 
ATOM     18  C   UNL     1     -40.349  35.482   0.148  0.00  0.00    +0.143 C 
ATOM     19  C   UNL     1     -39.600  34.968   2.792  0.00  0.00    +0.074 C 
ATOM     20  C   UNL     1     -40.677  35.811   2.522  0.00  0.00    +0.140 C 
ATOM     21  C   UNL     1     -41.051  36.067   1.202  0.00  0.00    +0.073 C 
BRANCH  14  22
ATOM     22  O   UNL     1     -36.663  32.505  -1.259  0.00  0.00    -0.501 OA
ATOM     23  H   UNL     1     -35.799  32.800  -1.467  0.00  0.00    +0.292 HD
ENDBRANCH  14  22
BRANCH  18  24
ATOM     24  O   UNL     1     -40.755  35.765  -1.121  0.00  0.00    -0.505 OA
ATOM     25  H   UNL     1     -41.590  35.466  -1.423  0.00  0.00    +0.292 HD
ENDBRANCH  18  24
BRANCH  20  26
ATOM     26  O   UNL     1     -41.366  36.385   3.546  0.00  0.00    -0.505 OA
ATOM     27  H   UNL     1     -42.259  36.643   3.423  0.00  0.00    +0.292 HD
ENDBRANCH  20  26
ENDBRANCH   8  13
BRANCH   3  28
ATOM     28  C   UNL     1     -34.853  26.558   3.425  0.00  0.00    +0.024 C 
ATOM     29  C   UNL     1     -34.692  25.362   2.727  0.00  0.00    +0.039 C 
ATOM     30  C   UNL     1     -35.442  26.553   4.689  0.00  0.00    +0.003 C 
ATOM     31  C   UNL     1     -35.121  24.161   3.291  0.00  0.00    +0.172 C 
ATOM     32  C   UNL     1     -35.873  25.353   5.254  0.00  0.00    +0.040 C 
ATOM     33  C   UNL     1     -35.712  24.156   4.554  0.00  0.00    +0.168 C 
BRANCH  31  34
ATOM     34  O   UNL     1     -34.958  22.999   2.599  0.00  0.00    -0.468 OA
ATOM     35  C   UNL     1     -35.882  22.738   1.544  0.00  0.00    +0.253 C 
ENDBRANCH  31  34
BRANCH  33  36
ATOM     36  O   UNL     1     -36.134  22.990   5.118  0.00  0.00    -0.503 OA
ATOM     37  H   UNL     1     -36.930  22.970   5.613  0.00  0.00    +0.292 HD
ENDBRANCH  33  36
ENDBRANCH   3  28
BRANCH   4  38
ATOM     38  C   UNL     1     -32.059  27.751   3.856  0.00  0.00    +0.185 C 
BRANCH  38  39
ATOM     39  O   UNL     1     -31.666  27.870   5.212  0.00  0.00    -0.378 OA
ATOM     40  H   UNL     1     -30.848  27.368   5.356  0.00  0.00    +0.211 HD
ENDBRANCH  38  39
ENDBRANCH   4  38
TORSDOF 9
ENDMDL
MODEL 8
REMARK VINA RESULT:      -6.6      5.636      7.499
REMARK  Name = 5467200
REMARK  9 active torsions:
REMARK  status: ('A' for Active; 'I' for Inactive)
REMARK    1  A    between atoms: C_3  and  C_28
REMARK    2  A    between atoms: C_4  and  C_38
REMARK    3  A    between atoms: C_8  and  C_13
REMARK    4  A    between atoms: C_14  and  O_22
REMARK    5  A    between atoms: C_18  and  O_24
REMARK    6  A    between atoms: C_20  and  O_26
REMARK    7  A    between atoms: C_31  and  O_34
REMARK    8  A    between atoms: C_33  and  O_36
REMARK    9  A    between atoms: C_38  and  O_39
REMARK                            x       y       z     vdW  Elec       q    Type
REMARK                         _______ _______ _______ _____ _____    ______ ____
ROOT
ATOM      1  O   UNL     1     -36.966  31.779   1.731  0.00  0.00    -0.468 OA
ATOM      2  O   UNL     1     -35.306  32.054  -0.605  0.00  0.00    -0.469 OA
ATOM      3  C   UNL     1     -36.741  33.046   1.086  0.00  0.00    +0.230 C 
ATOM      4  C   UNL     1     -36.500  32.834  -0.417  0.00  0.00    +0.239 C 
ATOM      5  C   UNL     1     -36.073  30.820   1.337  0.00  0.00    +0.173 C 
ATOM      6  C   UNL     1     -35.261  30.958   0.212  0.00  0.00    +0.172 C 
ATOM      7  C   UNL     1     -36.001  29.662   2.113  0.00  0.00    +0.043 C 
ATOM      8  C   UNL     1     -35.095  28.657   1.778  0.00  0.00    +0.041 C 
ATOM      9  C   UNL     1     -34.344  29.958  -0.115  0.00  0.00    +0.040 C 
ATOM     10  C   UNL     1     -34.263  28.807   0.668  0.00  0.00    +0.006 C 
ENDROOT
BRANCH   8  13
ATOM     11  O   UNL     1     -35.912  26.458   2.209  0.00  0.00    -0.450 OA
ATOM     12  O   UNL     1     -33.391  25.890   5.359  0.00  0.00    -0.283 OA
ATOM     13  C   UNL     1     -35.012  27.436   2.601  0.00  0.00    +0.182 A 
ATOM     14  C   UNL     1     -34.157  27.318   3.633  0.00  0.00    +0.208 A 
ATOM     15  C   UNL     1     -35.095  25.017   3.983  0.00  0.00    +0.110 A 
ATOM     16  C   UNL     1     -35.932  25.274   2.900  0.00  0.00    +0.155 A 
ATOM     17  C   UNL     1     -34.147  26.056   4.412  0.00  0.00    +0.238 A 
ATOM     18  C   UNL     1     -35.160  23.791   4.649  0.00  0.00    +0.143 C 
ATOM     19  C   UNL     1     -36.842  24.305   2.475  0.00  0.00    +0.074 C 
ATOM     20  C   UNL     1     -36.910  23.080   3.137  0.00  0.00    +0.140 C 
ATOM     21  C   UNL     1     -36.071  22.824   4.223  0.00  0.00    +0.073 C 
BRANCH  14  22
ATOM     22  O   UNL     1     -33.297  28.324   4.017  0.00  0.00    -0.501 OA
ATOM     23  H   UNL     1     -32.646  28.637   3.420  0.00  0.00    +0.292 HD
ENDBRANCH  14  22
BRANCH  18  24
ATOM     24  O   UNL     1     -34.365  23.489   5.713  0.00  0.00    -0.505 OA
ATOM     25  H   UNL     1     -33.435  23.448   5.606  0.00  0.00    +0.292 HD
ENDBRANCH  18  24
BRANCH  20  26
ATOM     26  O   UNL     1     -37.796  22.132   2.725  0.00  0.00    -0.505 OA
ATOM     27  H   UNL     1     -38.079  22.113   1.831  0.00  0.00    +0.292 HD
ENDBRANCH  20  26
ENDBRANCH   8  13
BRANCH   3  28
ATOM     28  C   UNL     1     -37.941  33.913   1.396  0.00  0.00    +0.024 C 
ATOM     29  C   UNL     1     -39.230  33.399   1.254  0.00  0.00    +0.039 C 
ATOM     30  C   UNL     1     -37.759  35.229   1.823  0.00  0.00    +0.003 C 
ATOM     31  C   UNL     1     -40.336  34.199   1.539  0.00  0.00    +0.172 C 
ATOM     32  C   UNL     1     -38.866  36.030   2.106  0.00  0.00    +0.040 C 
ATOM     33  C   UNL     1     -40.154  35.514   1.964  0.00  0.00    +0.168 C 
BRANCH  31  34
ATOM     34  O   UNL     1     -41.589  33.684   1.397  0.00  0.00    -0.468 OA
ATOM     35  C   UNL     1     -41.755  32.637   0.442  0.00  0.00    +0.253 C 
ENDBRANCH  31  34
BRANCH  33  36
ATOM     36  O   UNL     1     -41.226  36.305   2.247  0.00  0.00    -0.503 OA
ATOM     37  H   UNL     1     -41.145  36.998   2.873  0.00  0.00    +0.292 HD
ENDBRANCH  33  36
ENDBRANCH   3  28
BRANCH   4  38
ATOM     38  C   UNL     1     -36.284  34.140  -1.176  0.00  0.00    +0.185 C 
BRANCH  38  39
ATOM     39  O   UNL     1     -35.142  34.787  -0.644  0.00  0.00    -0.378 OA
ATOM     40  H   UNL     1     -34.838  34.311   0.144  0.00  0.00    +0.211 HD
ENDBRANCH  38  39
ENDBRANCH   4  38
TORSDOF 9
ENDMDL
MODEL 9
REMARK VINA RESULT:      -6.6      6.856     11.408
REMARK  Name = 5467200
REMARK  9 active torsions:
REMARK  status: ('A' for Active; 'I' for Inactive)
REMARK    1  A    between atoms: C_3  and  C_28
REMARK    2  A    between atoms: C_4  and  C_38
REMARK    3  A    between atoms: C_8  and  C_13
REMARK    4  A    between atoms: C_14  and  O_22
REMARK    5  A    between atoms: C_18  and  O_24
REMARK    6  A    between atoms: C_20  and  O_26
REMARK    7  A    between atoms: C_31  and  O_34
REMARK    8  A    between atoms: C_33  and  O_36
REMARK    9  A    between atoms: C_38  and  O_39
REMARK                            x       y       z     vdW  Elec       q    Type
REMARK                         _______ _______ _______ _____ _____    ______ ____
ROOT
ATOM      1  O   UNL     1     -34.648  23.083   2.033  0.00  0.00    -0.468 OA
ATOM      2  O   UNL     1     -37.234  22.958   3.290  0.00  0.00    -0.469 OA
ATOM      3  C   UNL     1     -35.362  21.847   2.211  0.00  0.00    +0.230 C 
ATOM      4  C   UNL     1     -36.877  22.107   2.186  0.00  0.00    +0.239 C 
ATOM      5  C   UNL     1     -35.152  24.100   2.797  0.00  0.00    +0.173 C 
ATOM      6  C   UNL     1     -36.401  24.034   3.415  0.00  0.00    +0.172 C 
ATOM      7  C   UNL     1     -34.361  25.241   2.937  0.00  0.00    +0.043 C 
ATOM      8  C   UNL     1     -34.809  26.303   3.722  0.00  0.00    +0.041 C 
ATOM      9  C   UNL     1     -36.842  25.092   4.211  0.00  0.00    +0.040 C 
ATOM     10  C   UNL     1     -36.046  26.227   4.363  0.00  0.00    +0.006 C 
ENDROOT
BRANCH   8  13
ATOM     11  O   UNL     1     -33.103  27.424   4.955  0.00  0.00    -0.450 OA
ATOM     12  O   UNL     1     -33.243  30.735   2.584  0.00  0.00    -0.283 OA
ATOM     13  C   UNL     1     -33.971  27.507   3.879  0.00  0.00    +0.182 A 
ATOM     14  C   UNL     1     -34.074  28.570   3.060  0.00  0.00    +0.208 A 
ATOM     15  C   UNL     1     -32.268  29.643   4.432  0.00  0.00    +0.110 A 
ATOM     16  C   UNL     1     -32.271  28.484   5.206  0.00  0.00    +0.155 A 
ATOM     17  C   UNL     1     -33.196  29.741   3.296  0.00  0.00    +0.238 A 
ATOM     18  C   UNL     1     -31.396  30.691   4.736  0.00  0.00    +0.143 C 
ATOM     19  C   UNL     1     -31.401  28.368   6.291  0.00  0.00    +0.074 C 
ATOM     20  C   UNL     1     -30.529  29.412   6.597  0.00  0.00    +0.140 C 
ATOM     21  C   UNL     1     -30.528  30.572   5.821  0.00  0.00    +0.073 C 
BRANCH  14  22
ATOM     22  O   UNL     1     -34.972  28.632   2.017  0.00  0.00    -0.501 OA
ATOM     23  H   UNL     1     -35.246  27.846   1.587  0.00  0.00    +0.292 HD
ENDBRANCH  14  22
BRANCH  18  24
ATOM     24  O   UNL     1     -31.354  31.844   4.012  0.00  0.00    -0.505 OA
ATOM     25  H   UNL     1     -30.631  32.012   3.441  0.00  0.00    +0.292 HD
ENDBRANCH  18  24
BRANCH  20  26
ATOM     26  O   UNL     1     -29.679  29.301   7.655  0.00  0.00    -0.505 OA
ATOM     27  H   UNL     1     -29.460  30.060   8.161  0.00  0.00    +0.292 HD
ENDBRANCH  20  26
ENDBRANCH   8  13
BRANCH   3  28
ATOM     28  C   UNL     1     -34.887  20.906   1.126  0.00  0.00    +0.024 C 
ATOM     29  C   UNL     1     -34.224  19.727   1.465  0.00  0.00    +0.039 C 
ATOM     30  C   UNL     1     -35.110  21.219  -0.216  0.00  0.00    +0.003 C 
ATOM     31  C   UNL     1     -33.786  18.860   0.465  0.00  0.00    +0.172 C 
ATOM     32  C   UNL     1     -34.671  20.352  -1.216  0.00  0.00    +0.040 C 
ATOM     33  C   UNL     1     -34.009  19.173  -0.876  0.00  0.00    +0.168 C 
BRANCH  31  34
ATOM     34  O   UNL     1     -33.141  17.711   0.810  0.00  0.00    -0.468 OA
ATOM     35  C   UNL     1     -31.755  17.817   1.132  0.00  0.00    +0.253 C 
ENDBRANCH  31  34
BRANCH  33  36
ATOM     36  O   UNL     1     -33.586  18.334  -1.862  0.00  0.00    -0.503 OA
ATOM     37  H   UNL     1     -34.136  17.628  -2.145  0.00  0.00    +0.292 HD
ENDBRANCH  33  36
ENDBRANCH   3  28
BRANCH   4  38
ATOM     38  C   UNL     1     -37.704  20.835   2.339  0.00  0.00    +0.185 C 
BRANCH  38  39
ATOM     39  O   UNL     1     -39.076  21.181   2.302  0.00  0.00    -0.378 OA
ATOM     40  H   UNL     1     -39.501  20.740   1.551  0.00  0.00    +0.211 HD
ENDBRANCH  38  39
ENDBRANCH   4  38
TORSDOF 9
ENDMDL
