MODEL 1
REMARK VINA RESULT:      -5.3      0.000      0.000
REMARK  Name = 193310
REMARK  14 active torsions:
REMARK  status: ('A' for Active; 'I' for Inactive)
REMARK    1  A    between atoms: N_2  and  CA_16
REMARK    2  A    between atoms: C_3  and  C_5
REMARK    3  A    between atoms: C_5  and  C_6
REMARK    4  A    between atoms: C_6  and  O_7
REMARK    5  A    between atoms: C_6  and  C_9
REMARK    6  A    between atoms: C_9  and  C_10
REMARK    7  A    between atoms: C_10  and  C_11
REMARK    8  A    between atoms: C_11  and  C_12
REMARK    9  A    between atoms: C_12  and  C_13
REMARK   10  A    between atoms: C_13  and  C_14
REMARK   11  A    between atoms: CA_16  and  C_18
REMARK   12  A    between atoms: CA_16  and  CB_21
REMARK   13  A    between atoms: C_18  and  O_19
REMARK   14  A    between atoms: CB_21  and  O_22
REMARK                            x       y       z     vdW  Elec       q    Type
REMARK                         _______ _______ _______ _____ _____    ______ ____
ROOT
ATOM      1  O   UNL     1     -37.713  22.789   3.167  0.00  0.00    -0.275 OA
ATOM      2  N   UNL     1     -35.526  22.578   3.925  0.00  0.00    -0.295 N 
ATOM      3  C   ACE A   0     -36.541  22.462   2.992  0.00  0.00    +0.225 C 
ATOM      4  H   UNL     1     -34.621  22.282   3.673  0.00  0.00    +0.150 HD
ENDROOT
BRANCH   3   5
ATOM      5  C   UNL     1     -36.072  21.865   1.676  0.00  0.00    +0.114 C 
BRANCH   5   6
ATOM      6  C   UNL     1     -35.973  20.335   1.684  0.00  0.00    +0.120 C 
BRANCH   6   7
ATOM      7  O   UNL     1     -36.690  19.830   2.807  0.00  0.00    -0.384 OA
ATOM      8  H   UNL     1     -37.288  20.517   3.142  0.00  0.00    +0.210 HD
ENDBRANCH   6   7
BRANCH   6   9
ATOM      9  C   UNL     1     -34.523  19.831   1.697  0.00  0.00    +0.030 C 
BRANCH   9  10
ATOM     10  C   UNL     1     -33.594  20.499   0.673  0.00  0.00    +0.002 C 
BRANCH  10  11
ATOM     11  C   UNL     1     -32.255  19.779   0.500  0.00  0.00    +0.000 C 
BRANCH  11  12
ATOM     12  C   UNL     1     -32.275  18.405   1.178  0.00  0.00    +0.000 C 
BRANCH  12  13
ATOM     13  C   UNL     1     -31.722  17.283   0.296  0.00  0.00    +0.000 C 
BRANCH  13  14
ATOM     14  C   UNL     1     -32.720  16.150   0.057  0.00  0.00    +0.000 C 
ATOM     15  C   UNL     1     -34.133  16.685  -0.125  0.00  0.00    +0.000 C 
ENDBRANCH  13  14
ENDBRANCH  12  13
ENDBRANCH  11  12
ENDBRANCH  10  11
ENDBRANCH   9  10
ENDBRANCH   6   9
ENDBRANCH   5   6
ENDBRANCH   3   5
BRANCH   2  16
ATOM     16  CA  UNL     1     -35.731  23.113   5.252  0.00  0.00    +0.201 C 
BRANCH  16  18
ATOM     17  OXT UNL     1     -35.466  25.478   5.763  0.00  0.00    -0.248 OA
ATOM     18  C   UNL     1     -34.997  24.436   5.324  0.00  0.00    +0.334 C 
BRANCH  18  19
ATOM     19  O   UNL     1     -33.750  24.352   4.793  0.00  0.00    -0.479 OA
ATOM     20  H   UNL     1     -33.560  23.706   4.143  0.00  0.00    +0.295 HD
ENDBRANCH  18  19
ENDBRANCH  16  18
BRANCH  16  21
ATOM     21  CB  UNL     1     -35.224  22.161   6.325  0.00  0.00    +0.168 C 
BRANCH  21  22
ATOM     22  O   UNL     1     -35.297  20.826   5.839  0.00  0.00    -0.380 OA
ATOM     23  H   UNL     1     -36.184  20.660   5.483  0.00  0.00    +0.211 HD
ENDBRANCH  21  22
ENDBRANCH  16  21
ENDBRANCH   2  16
TORSDOF 14
ENDMDL
MODEL 2
REMARK VINA RESULT:      -5.0      1.197      2.477
REMARK  Name = 193310
REMARK  14 active torsions:
REMARK  status: ('A' for Active; 'I' for Inactive)
REMARK    1  A    between atoms: N_2  and  CA_16
REMARK    2  A    between atoms: C_3  and  C_5
REMARK    3  A    between atoms: C_5  and  C_6
REMARK    4  A    between atoms: C_6  and  O_7
REMARK    5  A    between atoms: C_6  and  C_9
REMARK    6  A    between atoms: C_9  and  C_10
REMARK    7  A    between atoms: C_10  and  C_11
REMARK    8  A    between atoms: C_11  and  C_12
REMARK    9  A    between atoms: C_12  and  C_13
REMARK   10  A    between atoms: C_13  and  C_14
REMARK   11  A    between atoms: CA_16  and  C_18
REMARK   12  A    between atoms: CA_16  and  CB_21
REMARK   13  A    between atoms: C_18  and  O_19
REMARK   14  A    between atoms: CB_21  and  O_22
REMARK                            x       y       z     vdW  Elec       q    Type
REMARK                         _______ _______ _______ _____ _____    ______ ____
ROOT
ATOM      1  O   UNL     1     -37.689  22.796   3.158  0.00  0.00    -0.275 OA
ATOM      2  N   UNL     1     -35.512  22.588   3.942  0.00  0.00    -0.295 N 
ATOM      3  C   ACE A   0     -36.515  22.469   2.998  0.00  0.00    +0.225 C 
ATOM      4  H   UNL     1     -34.603  22.293   3.703  0.00  0.00    +0.150 HD
ENDROOT
BRANCH   3   5
ATOM      5  C   UNL     1     -36.029  21.871   1.688  0.00  0.00    +0.114 C 
BRANCH   5   6
ATOM      6  C   UNL     1     -35.836  20.350   1.731  0.00  0.00    +0.120 C 
BRANCH   6   7
ATOM      7  O   UNL     1     -36.754  19.792   2.666  0.00  0.00    -0.384 OA
ATOM      8  H   UNL     1     -36.309  19.101   3.182  0.00  0.00    +0.210 HD
ENDBRANCH   6   7
BRANCH   6   9
ATOM      9  C   UNL     1     -34.397  19.941   2.075  0.00  0.00    +0.030 C 
BRANCH   9  10
ATOM     10  C   UNL     1     -33.780  18.887   1.146  0.00  0.00    +0.002 C 
BRANCH  10  11
ATOM     11  C   UNL     1     -32.401  19.275   0.609  0.00  0.00    +0.000 C 
BRANCH  11  12
ATOM     12  C   UNL     1     -32.520  20.257  -0.560  0.00  0.00    +0.000 C 
BRANCH  12  13
ATOM     13  C   UNL     1     -31.434  21.336  -0.562  0.00  0.00    +0.000 C 
BRANCH  13  14
ATOM     14  C   UNL     1     -31.928  22.696  -1.057  0.00  0.00    +0.000 C 
ATOM     15  C   UNL     1     -32.986  23.273  -0.128  0.00  0.00    +0.000 C 
ENDBRANCH  13  14
ENDBRANCH  12  13
ENDBRANCH  11  12
ENDBRANCH  10  11
ENDBRANCH   9  10
ENDBRANCH   6   9
ENDBRANCH   5   6
ENDBRANCH   3   5
BRANCH   2  16
ATOM     16  CA  UNL     1     -35.733  23.125   5.266  0.00  0.00    +0.201 C 
BRANCH  16  18
ATOM     17  OXT UNL     1     -35.547  25.509   5.725  0.00  0.00    -0.248 OA
ATOM     18  C   UNL     1     -35.036  24.468   5.330  0.00  0.00    +0.334 C 
BRANCH  18  19
ATOM     19  O   UNL     1     -33.768  24.405   4.847  0.00  0.00    -0.479 OA
ATOM     20  H   UNL     1     -33.065  24.152   5.411  0.00  0.00    +0.295 HD
ENDBRANCH  18  19
ENDBRANCH  16  18
BRANCH  16  21
ATOM     21  CB  UNL     1     -35.200  22.195   6.346  0.00  0.00    +0.168 C 
BRANCH  21  22
ATOM     22  O   UNL     1     -35.320  20.848   5.903  0.00  0.00    -0.380 OA
ATOM     23  H   UNL     1     -35.958  20.802   5.174  0.00  0.00    +0.211 HD
ENDBRANCH  21  22
ENDBRANCH  16  21
ENDBRANCH   2  16
TORSDOF 14
ENDMDL
MODEL 3
REMARK VINA RESULT:      -5.0      3.797      6.326
REMARK  Name = 193310
REMARK  14 active torsions:
REMARK  status: ('A' for Active; 'I' for Inactive)
REMARK    1  A    between atoms: N_2  and  CA_16
REMARK    2  A    between atoms: C_3  and  C_5
REMARK    3  A    between atoms: C_5  and  C_6
REMARK    4  A    between atoms: C_6  and  O_7
REMARK    5  A    between atoms: C_6  and  C_9
REMARK    6  A    between atoms: C_9  and  C_10
REMARK    7  A    between atoms: C_10  and  C_11
REMARK    8  A    between atoms: C_11  and  C_12
REMARK    9  A    between atoms: C_12  and  C_13
REMARK   10  A    between atoms: C_13  and  C_14
REMARK   11  A    between atoms: CA_16  and  C_18
REMARK   12  A    between atoms: CA_16  and  CB_21
REMARK   13  A    between atoms: C_18  and  O_19
REMARK   14  A    between atoms: CB_21  and  O_22
REMARK                            x       y       z     vdW  Elec       q    Type
REMARK                         _______ _______ _______ _____ _____    ______ ____
ROOT
ATOM      1  O   UNL     1     -33.258  27.023   3.860  0.00  0.00    -0.275 OA
ATOM      2  N   UNL     1     -32.675  27.793   5.973  0.00  0.00    -0.295 N 
ATOM      3  C   ACE A   0     -33.358  26.983   5.084  0.00  0.00    +0.225 C 
ATOM      4  H   UNL     1     -32.835  27.672   6.937  0.00  0.00    +0.150 HD
ENDROOT
BRANCH   3   5
ATOM      5  C   UNL     1     -34.288  25.998   5.773  0.00  0.00    +0.114 C 
BRANCH   5   6
ATOM      6  C   UNL     1     -35.582  25.717   4.998  0.00  0.00    +0.120 C 
BRANCH   6   7
ATOM      7  O   UNL     1     -36.562  26.683   5.365  0.00  0.00    -0.384 OA
ATOM      8  H   UNL     1     -36.261  27.163   6.153  0.00  0.00    +0.210 HD
ENDBRANCH   6   7
BRANCH   6   9
ATOM      9  C   UNL     1     -36.114  24.294   5.224  0.00  0.00    +0.030 C 
BRANCH   9  10
ATOM     10  C   UNL     1     -35.058  23.265   5.650  0.00  0.00    +0.002 C 
BRANCH  10  11
ATOM     11  C   UNL     1     -35.242  21.893   4.998  0.00  0.00    +0.000 C 
BRANCH  11  12
ATOM     12  C   UNL     1     -35.594  22.030   3.514  0.00  0.00    +0.000 C 
BRANCH  12  13
ATOM     13  C   UNL     1     -35.619  20.693   2.768  0.00  0.00    +0.000 C 
BRANCH  13  14
ATOM     14  C   UNL     1     -34.696  20.659   1.550  0.00  0.00    +0.000 C 
ATOM     15  C   UNL     1     -33.867  19.385   1.517  0.00  0.00    +0.000 C 
ENDBRANCH  13  14
ENDBRANCH  12  13
ENDBRANCH  11  12
ENDBRANCH  10  11
ENDBRANCH   9  10
ENDBRANCH   6   9
ENDBRANCH   5   6
ENDBRANCH   3   5
BRANCH   2  16
ATOM     16  CA  UNL     1     -31.738  28.810   5.555  0.00  0.00    +0.201 C 
BRANCH  16  18
ATOM     17  OXT UNL     1     -29.584  27.932   6.275  0.00  0.00    -0.248 OA
ATOM     18  C   UNL     1     -30.392  28.139   5.378  0.00  0.00    +0.334 C 
BRANCH  18  19
ATOM     19  O   UNL     1     -30.149  27.825   4.079  0.00  0.00    -0.479 OA
ATOM     20  H   UNL     1     -30.083  28.504   3.437  0.00  0.00    +0.295 HD
ENDBRANCH  18  19
ENDBRANCH  16  18
BRANCH  16  21
ATOM     21  CB  UNL     1     -31.642  29.939   6.571  0.00  0.00    +0.168 C 
BRANCH  21  22
ATOM     22  O   UNL     1     -31.525  29.384   7.876  0.00  0.00    -0.380 OA
ATOM     23  H   UNL     1     -30.764  29.780   8.329  0.00  0.00    +0.211 HD
ENDBRANCH  21  22
ENDBRANCH  16  21
ENDBRANCH   2  16
TORSDOF 14
ENDMDL
MODEL 4
REMARK VINA RESULT:      -4.9      1.846      3.147
REMARK  Name = 193310
REMARK  14 active torsions:
REMARK  status: ('A' for Active; 'I' for Inactive)
REMARK    1  A    between atoms: N_2  and  CA_16
REMARK    2  A    between atoms: C_3  and  C_5
REMARK    3  A    between atoms: C_5  and  C_6
REMARK    4  A    between atoms: C_6  and  O_7
REMARK    5  A    between atoms: C_6  and  C_9
REMARK    6  A    between atoms: C_9  and  C_10
REMARK    7  A    between atoms: C_10  and  C_11
REMARK    8  A    between atoms: C_11  and  C_12
REMARK    9  A    between atoms: C_12  and  C_13
REMARK   10  A    between atoms: C_13  and  C_14
REMARK   11  A    between atoms: CA_16  and  C_18
REMARK   12  A    between atoms: CA_16  and  CB_21
REMARK   13  A    between atoms: C_18  and  O_19
REMARK   14  A    between atoms: CB_21  and  O_22
REMARK                            x       y       z     vdW  Elec       q    Type
REMARK                         _______ _______ _______ _____ _____    ______ ____
ROOT
ATOM      1  O   UNL     1     -35.981  22.475   5.450  0.00  0.00    -0.275 OA
ATOM      2  N   UNL     1     -36.614  23.567   3.499  0.00  0.00    -0.295 N 
ATOM      3  C   ACE A   0     -36.046  22.535   4.224  0.00  0.00    +0.225 C 
ATOM      4  H   UNL     1     -36.609  23.509   2.516  0.00  0.00    +0.150 HD
ENDROOT
BRANCH   3   5
ATOM      5  C   UNL     1     -35.478  21.434   3.344  0.00  0.00    +0.114 C 
BRANCH   5   6
ATOM      6  C   UNL     1     -36.308  21.149   2.087  0.00  0.00    +0.120 C 
BRANCH   6   7
ATOM      7  O   UNL     1     -37.613  20.732   2.478  0.00  0.00    -0.384 OA
ATOM      8  H   UNL     1     -37.542  20.075   3.188  0.00  0.00    +0.210 HD
ENDBRANCH   6   7
BRANCH   6   9
ATOM      9  C   UNL     1     -35.659  20.105   1.167  0.00  0.00    +0.030 C 
BRANCH   9  10
ATOM     10  C   UNL     1     -34.559  20.647   0.244  0.00  0.00    +0.002 C 
BRANCH  10  11
ATOM     11  C   UNL     1     -33.155  20.165   0.616  0.00  0.00    +0.000 C 
BRANCH  11  12
ATOM     12  C   UNL     1     -33.215  18.884   1.454  0.00  0.00    +0.000 C 
BRANCH  12  13
ATOM     13  C   UNL     1     -32.276  17.784   0.952  0.00  0.00    +0.000 C 
BRANCH  13  14
ATOM     14  C   UNL     1     -30.955  18.317   0.398  0.00  0.00    +0.000 C 
ATOM     15  C   UNL     1     -29.764  17.632   1.050  0.00  0.00    +0.000 C 
ENDBRANCH  13  14
ENDBRANCH  12  13
ENDBRANCH  11  12
ENDBRANCH  10  11
ENDBRANCH   9  10
ENDBRANCH   6   9
ENDBRANCH   5   6
ENDBRANCH   3   5
BRANCH   2  16
ATOM     16  CA  UNL     1     -37.215  24.728   4.116  0.00  0.00    +0.201 C 
BRANCH  16  18
ATOM     17  OXT UNL     1     -39.164  24.226   2.747  0.00  0.00    -0.248 OA
ATOM     18  C   UNL     1     -38.479  25.046   3.344  0.00  0.00    +0.334 C 
BRANCH  18  19
ATOM     19  O   UNL     1     -38.752  26.377   3.346  0.00  0.00    -0.479 OA
ATOM     20  H   UNL     1     -38.428  26.920   4.036  0.00  0.00    +0.295 HD
ENDBRANCH  18  19
ENDBRANCH  16  18
BRANCH  16  21
ATOM     21  CB  UNL     1     -36.270  25.921   4.107  0.00  0.00    +0.168 C 
BRANCH  21  22
ATOM     22  O   UNL     1     -36.495  26.704   5.274  0.00  0.00    -0.380 OA
ATOM     23  H   UNL     1     -36.668  27.623   5.017  0.00  0.00    +0.211 HD
ENDBRANCH  21  22
ENDBRANCH  16  21
ENDBRANCH   2  16
TORSDOF 14
ENDMDL
MODEL 5
REMARK VINA RESULT:      -4.9      3.345      5.951
REMARK  Name = 193310
REMARK  14 active torsions:
REMARK  status: ('A' for Active; 'I' for Inactive)
REMARK    1  A    between atoms: N_2  and  CA_16
REMARK    2  A    between atoms: C_3  and  C_5
REMARK    3  A    between atoms: C_5  and  C_6
REMARK    4  A    between atoms: C_6  and  O_7
REMARK    5  A    between atoms: C_6  and  C_9
REMARK    6  A    between atoms: C_9  and  C_10
REMARK    7  A    between atoms: C_10  and  C_11
REMARK    8  A    between atoms: C_11  and  C_12
REMARK    9  A    between atoms: C_12  and  C_13
REMARK   10  A    between atoms: C_13  and  C_14
REMARK   11  A    between atoms: CA_16  and  C_18
REMARK   12  A    between atoms: CA_16  and  CB_21
REMARK   13  A    between atoms: C_18  and  O_19
REMARK   14  A    between atoms: CB_21  and  O_22
REMARK                            x       y       z     vdW  Elec       q    Type
REMARK                         _______ _______ _______ _____ _____    ______ ____
ROOT
ATOM      1  O   UNL     1     -32.935  25.759   3.661  0.00  0.00    -0.275 OA
ATOM      2  N   UNL     1     -33.501  27.845   4.516  0.00  0.00    -0.295 N 
ATOM      3  C   ACE A   0     -33.765  26.632   3.906  0.00  0.00    +0.225 C 
ATOM      4  H   UNL     1     -34.247  28.470   4.662  0.00  0.00    +0.150 HD
ENDROOT
BRANCH   3   5
ATOM      5  C   UNL     1     -35.230  26.457   3.542  0.00  0.00    +0.114 C 
BRANCH   5   6
ATOM      6  C   UNL     1     -36.104  25.952   4.697  0.00  0.00    +0.120 C 
BRANCH   6   7
ATOM      7  O   UNL     1     -35.477  26.283   5.932  0.00  0.00    -0.384 OA
ATOM      8  H   UNL     1     -36.008  25.935   6.666  0.00  0.00    +0.210 HD
ENDBRANCH   6   7
BRANCH   6   9
ATOM      9  C   UNL     1     -36.382  24.444   4.618  0.00  0.00    +0.030 C 
BRANCH   9  10
ATOM     10  C   UNL     1     -35.440  23.565   5.452  0.00  0.00    +0.002 C 
BRANCH  10  11
ATOM     11  C   UNL     1     -35.361  22.117   4.963  0.00  0.00    +0.000 C 
BRANCH  11  12
ATOM     12  C   UNL     1     -35.647  22.025   3.462  0.00  0.00    +0.000 C 
BRANCH  12  13
ATOM     13  C   UNL     1     -35.427  20.624   2.884  0.00  0.00    +0.000 C 
BRANCH  13  14
ATOM     14  C   UNL     1     -34.623  20.621   1.584  0.00  0.00    +0.000 C 
ATOM     15  C   UNL     1     -33.836  19.330   1.422  0.00  0.00    +0.000 C 
ENDBRANCH  13  14
ENDBRANCH  12  13
ENDBRANCH  11  12
ENDBRANCH  10  11
ENDBRANCH   9  10
ENDBRANCH   6   9
ENDBRANCH   5   6
ENDBRANCH   3   5
BRANCH   2  16
ATOM     16  CA  UNL     1     -32.179  28.239   4.948  0.00  0.00    +0.201 C 
BRANCH  16  18
ATOM     17  OXT UNL     1     -32.900  27.391   7.114  0.00  0.00    -0.248 OA
ATOM     18  C   UNL     1     -31.993  27.724   6.360  0.00  0.00    +0.334 C 
BRANCH  18  19
ATOM     19  O   UNL     1     -30.686  27.716   6.729  0.00  0.00    -0.479 OA
ATOM     20  H   UNL     1     -30.016  27.773   6.078  0.00  0.00    +0.295 HD
ENDBRANCH  18  19
ENDBRANCH  16  18
BRANCH  16  21
ATOM     21  CB  UNL     1     -32.001  29.750   4.903  0.00  0.00    +0.168 C 
BRANCH  21  22
ATOM     22  O   UNL     1     -33.222  30.352   4.487  0.00  0.00    -0.380 OA
ATOM     23  H   UNL     1     -33.807  30.459   5.253  0.00  0.00    +0.211 HD
ENDBRANCH  21  22
ENDBRANCH  16  21
ENDBRANCH   2  16
TORSDOF 14
ENDMDL
MODEL 6
REMARK VINA RESULT:      -4.9      3.669      7.933
REMARK  Name = 193310
REMARK  14 active torsions:
REMARK  status: ('A' for Active; 'I' for Inactive)
REMARK    1  A    between atoms: N_2  and  CA_16
REMARK    2  A    between atoms: C_3  and  C_5
REMARK    3  A    between atoms: C_5  and  C_6
REMARK    4  A    between atoms: C_6  and  O_7
REMARK    5  A    between atoms: C_6  and  C_9
REMARK    6  A    between atoms: C_9  and  C_10
REMARK    7  A    between atoms: C_10  and  C_11
REMARK    8  A    between atoms: C_11  and  C_12
REMARK    9  A    between atoms: C_12  and  C_13
REMARK   10  A    between atoms: C_13  and  C_14
REMARK   11  A    between atoms: CA_16  and  C_18
REMARK   12  A    between atoms: CA_16  and  CB_21
REMARK   13  A    between atoms: C_18  and  O_19
REMARK   14  A    between atoms: CB_21  and  O_22
REMARK                            x       y       z     vdW  Elec       q    Type
REMARK                         _______ _______ _______ _____ _____    ______ ____
ROOT
ATOM      1  O   UNL     1     -35.721  23.878   2.103  0.00  0.00    -0.275 OA
ATOM      2  N   UNL     1     -37.181  22.344   3.059  0.00  0.00    -0.295 N 
ATOM      3  C   ACE A   0     -36.183  23.301   3.085  0.00  0.00    +0.225 C 
ATOM      4  H   UNL     1     -37.474  21.947   3.912  0.00  0.00    +0.150 HD
ENDROOT
BRANCH   3   5
ATOM      5  C   UNL     1     -35.677  23.593   4.488  0.00  0.00    +0.114 C 
BRANCH   5   6
ATOM      6  C   UNL     1     -36.388  24.764   5.177  0.00  0.00    +0.120 C 
BRANCH   6   7
ATOM      7  O   UNL     1     -37.622  25.013   4.511  0.00  0.00    -0.384 OA
ATOM      8  H   UNL     1     -38.328  24.505   4.942  0.00  0.00    +0.210 HD
ENDBRANCH   6   7
BRANCH   6   9
ATOM      9  C   UNL     1     -35.531  26.037   5.223  0.00  0.00    +0.030 C 
BRANCH   9  10
ATOM     10  C   UNL     1     -34.131  25.857   5.825  0.00  0.00    +0.002 C 
BRANCH  10  11
ATOM     11  C   UNL     1     -33.197  27.041   5.567  0.00  0.00    +0.000 C 
BRANCH  11  12
ATOM     12  C   UNL     1     -32.486  27.474   6.853  0.00  0.00    +0.000 C 
BRANCH  12  13
ATOM     13  C   UNL     1     -31.763  28.818   6.727  0.00  0.00    +0.000 C 
BRANCH  13  14
ATOM     14  C   UNL     1     -31.816  29.407   5.318  0.00  0.00    +0.000 C 
ATOM     15  C   UNL     1     -31.837  30.928   5.353  0.00  0.00    +0.000 C 
ENDBRANCH  13  14
ENDBRANCH  12  13
ENDBRANCH  11  12
ENDBRANCH  10  11
ENDBRANCH   9  10
ENDBRANCH   6   9
ENDBRANCH   5   6
ENDBRANCH   3   5
BRANCH   2  16
ATOM     16  CA  UNL     1     -37.816  21.897   1.840  0.00  0.00    +0.201 C 
BRANCH  16  18
ATOM     17  OXT UNL     1     -39.858  23.090   2.419  0.00  0.00    -0.248 OA
ATOM     18  C   UNL     1     -39.310  22.071   2.018  0.00  0.00    +0.334 C 
BRANCH  18  19
ATOM     19  O   UNL     1     -39.991  20.933   1.724  0.00  0.00    -0.479 OA
ATOM     20  H   UNL     1     -40.771  20.719   2.196  0.00  0.00    +0.295 HD
ENDBRANCH  18  19
ENDBRANCH  16  18
BRANCH  16  21
ATOM     21  CB  UNL     1     -37.480  20.446   1.532  0.00  0.00    +0.168 C 
BRANCH  21  22
ATOM     22  O   UNL     1     -36.823  19.869   2.654  0.00  0.00    -0.380 OA
ATOM     23  H   UNL     1     -37.021  18.920   2.693  0.00  0.00    +0.211 HD
ENDBRANCH  21  22
ENDBRANCH  16  21
ENDBRANCH   2  16
TORSDOF 14
ENDMDL
MODEL 7
REMARK VINA RESULT:      -4.9      5.213      8.361
REMARK  Name = 193310
REMARK  14 active torsions:
REMARK  status: ('A' for Active; 'I' for Inactive)
REMARK    1  A    between atoms: N_2  and  CA_16
REMARK    2  A    between atoms: C_3  and  C_5
REMARK    3  A    between atoms: C_5  and  C_6
REMARK    4  A    between atoms: C_6  and  O_7
REMARK    5  A    between atoms: C_6  and  C_9
REMARK    6  A    between atoms: C_9  and  C_10
REMARK    7  A    between atoms: C_10  and  C_11
REMARK    8  A    between atoms: C_11  and  C_12
REMARK    9  A    between atoms: C_12  and  C_13
REMARK   10  A    between atoms: C_13  and  C_14
REMARK   11  A    between atoms: CA_16  and  C_18
REMARK   12  A    between atoms: CA_16  and  CB_21
REMARK   13  A    between atoms: C_18  and  O_19
REMARK   14  A    between atoms: CB_21  and  O_22
REMARK                            x       y       z     vdW  Elec       q    Type
REMARK                         _______ _______ _______ _____ _____    ______ ____
ROOT
ATOM      1  O   UNL     1     -35.644  24.666   2.777  0.00  0.00    -0.275 OA
ATOM      2  N   UNL     1     -37.660  24.106   3.788  0.00  0.00    -0.295 N 
ATOM      3  C   ACE A   0     -36.305  24.385   3.775  0.00  0.00    +0.225 C 
ATOM      4  H   UNL     1     -38.086  23.892   4.650  0.00  0.00    +0.150 HD
ENDROOT
BRANCH   3   5
ATOM      5  C   UNL     1     -35.669  24.310   5.152  0.00  0.00    +0.114 C 
BRANCH   5   6
ATOM      6  C   UNL     1     -35.497  25.672   5.835  0.00  0.00    +0.120 C 
BRANCH   6   7
ATOM      7  O   UNL     1     -36.328  26.627   5.181  0.00  0.00    -0.384 OA
ATOM      8  H   UNL     1     -37.133  26.188   4.862  0.00  0.00    +0.210 HD
ENDBRANCH   6   7
BRANCH   6   9
ATOM      9  C   UNL     1     -34.037  26.148   5.856  0.00  0.00    +0.030 C 
BRANCH   9  10
ATOM     10  C   UNL     1     -33.570  26.866   4.582  0.00  0.00    +0.002 C 
BRANCH  10  11
ATOM     11  C   UNL     1     -32.402  27.827   4.814  0.00  0.00    +0.000 C 
BRANCH  11  12
ATOM     12  C   UNL     1     -32.184  28.080   6.309  0.00  0.00    +0.000 C 
BRANCH  12  13
ATOM     13  C   UNL     1     -31.336  29.321   6.599  0.00  0.00    +0.000 C 
BRANCH  13  14
ATOM     14  C   UNL     1     -31.999  30.627   6.160  0.00  0.00    +0.000 C 
ATOM     15  C   UNL     1     -31.246  31.270   5.005  0.00  0.00    +0.000 C 
ENDBRANCH  13  14
ENDBRANCH  12  13
ENDBRANCH  11  12
ENDBRANCH  10  11
ENDBRANCH   9  10
ENDBRANCH   6   9
ENDBRANCH   5   6
ENDBRANCH   3   5
BRANCH   2  16
ATOM     16  CA  UNL     1     -38.479  24.110   2.598  0.00  0.00    +0.201 C 
BRANCH  16  18
ATOM     17  OXT UNL     1     -39.996  25.922   2.011  0.00  0.00    -0.248 OA
ATOM     18  C   UNL     1     -39.604  25.099   2.828  0.00  0.00    +0.334 C 
BRANCH  18  19
ATOM     19  O   UNL     1     -40.112  25.005   4.084  0.00  0.00    -0.479 OA
ATOM     20  H   UNL     1     -40.472  24.194   4.384  0.00  0.00    +0.295 HD
ENDBRANCH  18  19
ENDBRANCH  16  18
BRANCH  16  21
ATOM     21  CB  UNL     1     -39.037  22.728   2.295  0.00  0.00    +0.168 C 
BRANCH  21  22
ATOM     22  O   UNL     1     -40.382  22.854   1.847  0.00  0.00    -0.380 OA
ATOM     23  H   UNL     1     -40.924  23.237   2.555  0.00  0.00    +0.211 HD
ENDBRANCH  21  22
ENDBRANCH  16  21
ENDBRANCH   2  16
TORSDOF 14
ENDMDL
MODEL 8
REMARK VINA RESULT:      -4.8      3.087      7.399
REMARK  Name = 193310
REMARK  14 active torsions:
REMARK  status: ('A' for Active; 'I' for Inactive)
REMARK    1  A    between atoms: N_2  and  CA_16
REMARK    2  A    between atoms: C_3  and  C_5
REMARK    3  A    between atoms: C_5  and  C_6
REMARK    4  A    between atoms: C_6  and  O_7
REMARK    5  A    between atoms: C_6  and  C_9
REMARK    6  A    between atoms: C_9  and  C_10
REMARK    7  A    between atoms: C_10  and  C_11
REMARK    8  A    between atoms: C_11  and  C_12
REMARK    9  A    between atoms: C_12  and  C_13
REMARK   10  A    between atoms: C_13  and  C_14
REMARK   11  A    between atoms: CA_16  and  C_18
REMARK   12  A    between atoms: CA_16  and  CB_21
REMARK   13  A    between atoms: C_18  and  O_19
REMARK   14  A    between atoms: CB_21  and  O_22
REMARK                            x       y       z     vdW  Elec       q    Type
REMARK                         _______ _______ _______ _____ _____    ______ ____
ROOT
ATOM      1  O   UNL     1     -35.886  20.540  -0.548  0.00  0.00    -0.275 OA
ATOM      2  N   UNL     1     -35.380  18.502   0.446  0.00  0.00    -0.295 N 
ATOM      3  C   ACE A   0     -35.384  19.882   0.361  0.00  0.00    +0.225 C 
ATOM      4  H   UNL     1     -34.946  18.080   1.223  0.00  0.00    +0.150 HD
ENDROOT
BRANCH   3   5
ATOM      5  C   UNL     1     -34.684  20.551   1.532  0.00  0.00    +0.114 C 
BRANCH   5   6
ATOM      6  C   UNL     1     -35.427  20.411   2.866  0.00  0.00    +0.120 C 
BRANCH   6   7
ATOM      7  O   UNL     1     -36.728  19.886   2.619  0.00  0.00    -0.384 OA
ATOM      8  H   UNL     1     -37.144  20.384   1.898  0.00  0.00    +0.210 HD
ENDBRANCH   6   7
BRANCH   6   9
ATOM      9  C   UNL     1     -35.515  21.734   3.641  0.00  0.00    +0.030 C 
BRANCH   9  10
ATOM     10  C   UNL     1     -35.255  21.622   5.149  0.00  0.00    +0.002 C 
BRANCH  10  11
ATOM     11  C   UNL     1     -35.373  22.955   5.891  0.00  0.00    +0.000 C 
BRANCH  11  12
ATOM     12  C   UNL     1     -36.016  24.026   5.004  0.00  0.00    +0.000 C 
BRANCH  12  13
ATOM     13  C   UNL     1     -35.798  25.452   5.517  0.00  0.00    +0.000 C 
BRANCH  13  14
ATOM     14  C   UNL     1     -34.329  25.873   5.538  0.00  0.00    +0.000 C 
ATOM     15  C   UNL     1     -33.721  25.834   4.144  0.00  0.00    +0.000 C 
ENDBRANCH  13  14
ENDBRANCH  12  13
ENDBRANCH  11  12
ENDBRANCH  10  11
ENDBRANCH   9  10
ENDBRANCH   6   9
ENDBRANCH   5   6
ENDBRANCH   3   5
BRANCH   2  16
ATOM     16  CA  UNL     1     -35.981  17.647  -0.553  0.00  0.00    +0.201 C 
BRANCH  16  18
ATOM     17  OXT UNL     1     -37.866  16.225   0.040  0.00  0.00    -0.248 OA
ATOM     18  C   UNL     1     -37.394  17.346  -0.098  0.00  0.00    +0.334 C 
BRANCH  18  19
ATOM     19  O   UNL     1     -38.115  18.481   0.099  0.00  0.00    -0.479 OA
ATOM     20  H   UNL     1     -37.716  19.318  -0.031  0.00  0.00    +0.295 HD
ENDBRANCH  18  19
ENDBRANCH  16  18
BRANCH  16  21
ATOM     21  CB  UNL     1     -35.194  16.358  -0.737  0.00  0.00    +0.168 C 
BRANCH  21  22
ATOM     22  O   UNL     1     -35.150  15.656   0.500  0.00  0.00    -0.380 OA
ATOM     23  H   UNL     1     -35.676  14.845   0.431  0.00  0.00    +0.211 HD
ENDBRANCH  21  22
ENDBRANCH  16  21
ENDBRANCH   2  16
TORSDOF 14
ENDMDL
MODEL 9
REMARK VINA RESULT:      -4.8      4.509      8.687
REMARK  Name = 193310
REMARK  14 active torsions:
REMARK  status: ('A' for Active; 'I' for Inactive)
REMARK    1  A    between atoms: N_2  and  CA_16
REMARK    2  A    between atoms: C_3  and  C_5
REMARK    3  A    between atoms: C_5  and  C_6
REMARK    4  A    between atoms: C_6  and  O_7
REMARK    5  A    between atoms: C_6  and  C_9
REMARK    6  A    between atoms: C_9  and  C_10
REMARK    7  A    between atoms: C_10  and  C_11
REMARK    8  A    between atoms: C_11  and  C_12
REMARK    9  A    between atoms: C_12  and  C_13
REMARK   10  A    between atoms: C_13  and  C_14
REMARK   11  A    between atoms: CA_16  and  C_18
REMARK   12  A    between atoms: CA_16  and  CB_21
REMARK   13  A    between atoms: C_18  and  O_19
REMARK   14  A    between atoms: CB_21  and  O_22
REMARK                            x       y       z     vdW  Elec       q    Type
REMARK                         _______ _______ _______ _____ _____    ______ ____
ROOT
ATOM      1  O   UNL     1     -33.359  24.981   4.107  0.00  0.00    -0.275 OA
ATOM      2  N   UNL     1     -34.970  24.315   5.644  0.00  0.00    -0.295 N 
ATOM      3  C   ACE A   0     -34.081  25.209   5.076  0.00  0.00    +0.225 C 
ATOM      4  H   UNL     1     -35.499  24.609   6.421  0.00  0.00    +0.150 HD
ENDROOT
BRANCH   3   5
ATOM      5  C   UNL     1     -34.062  26.556   5.779  0.00  0.00    +0.114 C 
BRANCH   5   6
ATOM      6  C   UNL     1     -32.672  26.988   6.262  0.00  0.00    +0.120 C 
BRANCH   6   7
ATOM      7  O   UNL     1     -32.728  27.254   7.660  0.00  0.00    -0.384 OA
ATOM      8  H   UNL     1     -33.465  26.760   8.052  0.00  0.00    +0.210 HD
ENDBRANCH   6   7
BRANCH   6   9
ATOM      9  C   UNL     1     -32.128  28.205   5.500  0.00  0.00    +0.030 C 
BRANCH   9  10
ATOM     10  C   UNL     1     -31.802  29.425   6.372  0.00  0.00    +0.002 C 
BRANCH  10  11
ATOM     11  C   UNL     1     -31.872  30.754   5.617  0.00  0.00    +0.000 C 
BRANCH  11  12
ATOM     12  C   UNL     1     -31.901  30.528   4.103  0.00  0.00    +0.000 C 
BRANCH  12  13
ATOM     13  C   UNL     1     -32.682  31.603   3.341  0.00  0.00    +0.000 C 
BRANCH  13  14
ATOM     14  C   UNL     1     -34.154  31.250   3.129  0.00  0.00    +0.000 C 
ATOM     15  C   UNL     1     -34.337  29.759   2.886  0.00  0.00    +0.000 C 
ENDBRANCH  13  14
ENDBRANCH  12  13
ENDBRANCH  11  12
ENDBRANCH  10  11
ENDBRANCH   9  10
ENDBRANCH   6   9
ENDBRANCH   5   6
ENDBRANCH   3   5
BRANCH   2  16
ATOM     16  CA  UNL     1     -35.161  22.970   5.152  0.00  0.00    +0.201 C 
BRANCH  16  18
ATOM     17  OXT UNL     1     -37.159  23.906   4.122  0.00  0.00    -0.248 OA
ATOM     18  C   UNL     1     -36.338  23.000   4.200  0.00  0.00    +0.334 C 
BRANCH  18  19
ATOM     19  O   UNL     1     -36.418  21.866   3.456  0.00  0.00    -0.479 OA
ATOM     20  H   UNL     1     -36.938  21.146   3.754  0.00  0.00    +0.295 HD
ENDBRANCH  18  19
ENDBRANCH  16  18
BRANCH  16  21
ATOM     21  CB  UNL     1     -35.415  21.988   6.286  0.00  0.00    +0.168 C 
BRANCH  21  22
ATOM     22  O   UNL     1     -35.335  20.660   5.782  0.00  0.00    -0.380 OA
ATOM     23  H   UNL     1     -34.428  20.480   5.487  0.00  0.00    +0.211 HD
ENDBRANCH  21  22
ENDBRANCH  16  21
ENDBRANCH   2  16
TORSDOF 14
ENDMDL
