MODEL 1
REMARK VINA RESULT:      -6.7      0.000      0.000
REMARK  Name = 192259
REMARK  5 active torsions:
REMARK  status: ('A' for Active; 'I' for Inactive)
REMARK    1  A    between atoms: N_2  and  CA_9
REMARK    2  A    between atoms: C_3  and  C_19
REMARK    3  A    between atoms: CA_11  and  C_16
REMARK    4  A    between atoms: C_16  and  O_17
REMARK    5  A    between atoms: C_19  and  N_22
REMARK                            x       y       z     vdW  Elec       q    Type
REMARK                         _______ _______ _______ _____ _____    ______ ____
ROOT
ATOM      1  O   UNL     1     -34.764  22.178   1.340  0.00  0.00    -0.273 OA
ATOM      2  N   UNL     1     -35.571  20.013   1.558  0.00  0.00    -0.295 N 
ATOM      3  C   UNL     1     -35.262  21.276   2.012  0.00  0.00    +0.246 C 
ATOM      4  H   UNL     1     -35.967  19.369   2.187  0.00  0.00    +0.150 HD
ENDROOT
BRANCH   2   9
ATOM      5  S   UNL     1     -32.775  18.810   1.173  0.00  0.00    -0.114 S 
ATOM      6  O   UNL     1     -37.073  17.754  -0.249  0.00  0.00    -0.273 OA
ATOM      7  N   UNL     1     -34.716  17.677  -0.239  0.00  0.00    -0.242 N 
ATOM      8  C   UNL     1     -33.980  18.925  -0.168  0.00  0.00    +0.155 C 
ATOM      9  CA  UNL     1     -35.331  19.590   0.179  0.00  0.00    +0.178 C 
ATOM     10  C   UNL     1     -35.956  18.207  -0.165  0.00  0.00    +0.251 C 
ATOM     11  CA  UNL     1     -34.127  16.458  -0.344  0.00  0.00    +0.124 C 
ATOM     12  C   UNL     1     -31.896  17.404   0.411  0.00  0.00    +0.083 C 
ATOM     13  C   UNL     1     -32.806  16.288  -0.098  0.00  0.00    -0.013 C 
ATOM     14  C   UNL     1     -32.062  14.985  -0.271  0.00  0.00    +0.029 C 
BRANCH  11  16
ATOM     15  OXT UNL     1     -35.055  14.797  -1.770  0.00  0.00    -0.244 OA
ATOM     16  C   UNL     1     -34.998  15.321  -0.675  0.00  0.00    +0.351 C 
BRANCH  16  17
ATOM     17  O   UNL     1     -35.707  14.969   0.416  0.00  0.00    -0.476 OA
ATOM     18  H   UNL     1     -35.560  15.406   1.231  0.00  0.00    +0.295 HD
ENDBRANCH  16  17
ENDBRANCH  11  16
ENDBRANCH   2   9
BRANCH   3  19
ATOM     19  C   UNL     1     -35.585  21.426   3.485  0.00  0.00    +0.197 C 
BRANCH  19  22
ATOM     20  O   UNL     1     -37.785  24.392   3.648  0.00  0.00    -0.407 OA
ATOM     21  O   UNL     1     -38.293  22.397   2.604  0.00  0.00    -0.223 OA
ATOM     22  N   UNL     1     -36.249  22.706   3.691  0.00  0.00    -0.253 N 
ATOM     23  C   UNL     1     -35.695  23.755   4.375  0.00  0.00    +0.100 A 
ATOM     24  C   UNL     1     -36.639  24.761   4.336  0.00  0.00    +0.166 A 
ATOM     25  C   UNL     1     -37.500  23.072   3.250  0.00  0.00    +0.422 A 
ATOM     26  C   UNL     1     -34.479  23.910   5.009  0.00  0.00    +0.020 C 
ATOM     27  C   UNL     1     -36.419  25.984   4.934  0.00  0.00    +0.039 C 
ATOM     28  C   UNL     1     -34.234  25.141   5.621  0.00  0.00    +0.002 C 
ATOM     29  C   UNL     1     -35.196  26.170   5.583  0.00  0.00    +0.003 C 
ENDBRANCH  19  22
ENDBRANCH   3  19
TORSDOF 5
ENDMDL
MODEL 2
REMARK VINA RESULT:      -6.5      5.811      9.607
REMARK  Name = 192259
REMARK  5 active torsions:
REMARK  status: ('A' for Active; 'I' for Inactive)
REMARK    1  A    between atoms: N_2  and  CA_9
REMARK    2  A    between atoms: C_3  and  C_19
REMARK    3  A    between atoms: CA_11  and  C_16
REMARK    4  A    between atoms: C_16  and  O_17
REMARK    5  A    between atoms: C_19  and  N_22
REMARK                            x       y       z     vdW  Elec       q    Type
REMARK                         _______ _______ _______ _____ _____    ______ ____
ROOT
ATOM      1  O   UNL     1     -33.651  24.831   1.120  0.00  0.00    -0.273 OA
ATOM      2  N   UNL     1     -33.967  26.950   2.013  0.00  0.00    -0.295 N 
ATOM      3  C   UNL     1     -34.323  25.645   1.750  0.00  0.00    +0.246 C 
ATOM      4  H   UNL     1     -34.586  27.514   2.530  0.00  0.00    +0.150 HD
ENDROOT
BRANCH   2   9
ATOM      5  S   UNL     1     -33.587  29.835   2.984  0.00  0.00    -0.114 S 
ATOM      6  O   UNL     1     -30.889  26.066   2.625  0.00  0.00    -0.273 OA
ATOM      7  N   UNL     1     -31.384  28.357   2.891  0.00  0.00    -0.242 N 
ATOM      8  C   UNL     1     -32.349  28.968   1.995  0.00  0.00    +0.155 C 
ATOM      9  CA  UNL     1     -32.705  27.530   1.554  0.00  0.00    +0.178 C 
ATOM     10  C   UNL     1     -31.476  27.099   2.405  0.00  0.00    +0.251 C 
ATOM     11  CA  UNL     1     -30.712  29.038   3.854  0.00  0.00    +0.124 C 
ATOM     12  C   UNL     1     -32.362  30.962   3.732  0.00  0.00    +0.083 C 
ATOM     13  C   UNL     1     -31.100  30.274   4.248  0.00  0.00    -0.013 C 
ATOM     14  C   UNL     1     -30.360  31.126   5.251  0.00  0.00    +0.029 C 
BRANCH  11  16
ATOM     15  OXT UNL     1     -28.451  28.330   4.055  0.00  0.00    -0.244 OA
ATOM     16  C   UNL     1     -29.583  28.347   4.496  0.00  0.00    +0.351 C 
BRANCH  16  17
ATOM     17  O   UNL     1     -30.009  27.750   5.627  0.00  0.00    -0.476 OA
ATOM     18  H   UNL     1     -30.783  27.223   5.615  0.00  0.00    +0.295 HD
ENDBRANCH  16  17
ENDBRANCH  11  16
ENDBRANCH   2   9
BRANCH   3  19
ATOM     19  C   UNL     1     -35.692  25.324   2.315  0.00  0.00    +0.197 C 
BRANCH  19  22
ATOM     20  O   UNL     1     -35.333  25.023   5.981  0.00  0.00    -0.407 OA
ATOM     21  O   UNL     1     -35.539  27.000   4.810  0.00  0.00    -0.223 OA
ATOM     22  N   UNL     1     -35.543  24.939   3.711  0.00  0.00    -0.253 N 
ATOM     23  C   UNL     1     -35.441  23.642   4.141  0.00  0.00    +0.100 A 
ATOM     24  C   UNL     1     -35.314  23.717   5.513  0.00  0.00    +0.166 A 
ATOM     25  C   UNL     1     -35.481  25.776   4.802  0.00  0.00    +0.422 A 
ATOM     26  C   UNL     1     -35.445  22.438   3.467  0.00  0.00    +0.020 C 
ATOM     27  C   UNL     1     -35.187  22.586   6.292  0.00  0.00    +0.039 C 
ATOM     28  C   UNL     1     -35.318  21.279   4.235  0.00  0.00    +0.002 C 
ATOM     29  C   UNL     1     -35.189  21.352   5.636  0.00  0.00    +0.003 C 
ENDBRANCH  19  22
ENDBRANCH   3  19
TORSDOF 5
ENDMDL
MODEL 3
REMARK VINA RESULT:      -6.3      4.368      9.006
REMARK  Name = 192259
REMARK  5 active torsions:
REMARK  status: ('A' for Active; 'I' for Inactive)
REMARK    1  A    between atoms: N_2  and  CA_9
REMARK    2  A    between atoms: C_3  and  C_19
REMARK    3  A    between atoms: CA_11  and  C_16
REMARK    4  A    between atoms: C_16  and  O_17
REMARK    5  A    between atoms: C_19  and  N_22
REMARK                            x       y       z     vdW  Elec       q    Type
REMARK                         _______ _______ _______ _____ _____    ______ ____
ROOT
ATOM      1  O   UNL     1     -33.665  23.401   0.339  0.00  0.00    -0.273 OA
ATOM      2  N   UNL     1     -34.748  25.301   1.116  0.00  0.00    -0.295 N 
ATOM      3  C   UNL     1     -34.645  23.957   0.833  0.00  0.00    +0.246 C 
ATOM      4  H   UNL     1     -35.583  25.638   1.512  0.00  0.00    +0.150 HD
ENDROOT
BRANCH   2   9
ATOM      5  S   UNL     1     -35.728  28.206   1.049  0.00  0.00    -0.114 S 
ATOM      6  O   UNL     1     -32.062  25.976   2.837  0.00  0.00    -0.273 OA
ATOM      7  N   UNL     1     -33.325  27.831   2.112  0.00  0.00    -0.242 N 
ATOM      8  C   UNL     1     -33.993  27.758   0.826  0.00  0.00    +0.155 C 
ATOM      9  CA  UNL     1     -33.665  26.248   0.851  0.00  0.00    +0.178 C 
ATOM     10  C   UNL     1     -32.810  26.582   2.106  0.00  0.00    +0.251 C 
ATOM     11  CA  UNL     1     -33.348  28.927   2.913  0.00  0.00    +0.124 C 
ATOM     12  C   UNL     1     -35.333  29.883   1.652  0.00  0.00    +0.083 C 
ATOM     13  C   UNL     1     -34.233  29.932   2.711  0.00  0.00    -0.013 C 
ATOM     14  C   UNL     1     -34.267  31.217   3.504  0.00  0.00    +0.029 C 
BRANCH  11  16
ATOM     15  OXT UNL     1     -32.701  28.606   5.178  0.00  0.00    -0.244 OA
ATOM     16  C   UNL     1     -32.412  28.945   4.048  0.00  0.00    +0.351 C 
BRANCH  16  17
ATOM     17  O   UNL     1     -31.211  29.393   3.630  0.00  0.00    -0.476 OA
ATOM     18  H   UNL     1     -30.594  29.724   4.252  0.00  0.00    +0.295 HD
ENDBRANCH  16  17
ENDBRANCH  11  16
ENDBRANCH   2   9
BRANCH   3  19
ATOM     19  C   UNL     1     -35.924  23.221   1.179  0.00  0.00    +0.197 C 
BRANCH  19  22
ATOM     20  O   UNL     1     -35.193  20.378   3.424  0.00  0.00    -0.407 OA
ATOM     21  O   UNL     1     -35.405  20.258   1.129  0.00  0.00    -0.223 OA
ATOM     22  N   UNL     1     -35.648  22.287   2.261  0.00  0.00    -0.253 N 
ATOM     23  C   UNL     1     -35.577  22.643   3.582  0.00  0.00    +0.100 A 
ATOM     24  C   UNL     1     -35.302  21.475   4.264  0.00  0.00    +0.166 A 
ATOM     25  C   UNL     1     -35.420  20.934   2.151  0.00  0.00    +0.422 A 
ATOM     26  C   UNL     1     -35.726  23.854   4.225  0.00  0.00    +0.020 C 
ATOM     27  C   UNL     1     -35.159  21.455   5.636  0.00  0.00    +0.039 C 
ATOM     28  C   UNL     1     -35.585  23.858   5.614  0.00  0.00    +0.002 C 
ATOM     29  C   UNL     1     -35.305  22.668   6.314  0.00  0.00    +0.003 C 
ENDBRANCH  19  22
ENDBRANCH   3  19
TORSDOF 5
ENDMDL
MODEL 4
REMARK VINA RESULT:      -6.3      7.160      9.634
REMARK  Name = 192259
REMARK  5 active torsions:
REMARK  status: ('A' for Active; 'I' for Inactive)
REMARK    1  A    between atoms: N_2  and  CA_9
REMARK    2  A    between atoms: C_3  and  C_19
REMARK    3  A    between atoms: CA_11  and  C_16
REMARK    4  A    between atoms: C_16  and  O_17
REMARK    5  A    between atoms: C_19  and  N_22
REMARK                            x       y       z     vdW  Elec       q    Type
REMARK                         _______ _______ _______ _____ _____    ______ ____
ROOT
ATOM      1  O   UNL     1     -41.806  24.420   1.170  0.00  0.00    -0.273 OA
ATOM      2  N   UNL     1     -40.174  26.067   1.271  0.00  0.00    -0.295 N 
ATOM      3  C   UNL     1     -41.468  25.603   1.186  0.00  0.00    +0.246 C 
ATOM      4  H   UNL     1     -40.021  27.039   1.275  0.00  0.00    +0.150 HD
ENDROOT
BRANCH   2   9
ATOM      5  S   UNL     1     -37.537  27.509   0.657  0.00  0.00    -0.114 S 
ATOM      6  O   UNL     1     -38.972  24.399   3.800  0.00  0.00    -0.273 OA
ATOM      7  N   UNL     1     -37.414  25.645   2.543  0.00  0.00    -0.242 N 
ATOM      8  C   UNL     1     -37.611  25.761   1.110  0.00  0.00    +0.155 C 
ATOM      9  CA  UNL     1     -39.019  25.174   1.354  0.00  0.00    +0.178 C 
ATOM     10  C   UNL     1     -38.528  24.927   2.809  0.00  0.00    +0.251 C 
ATOM     11  CA  UNL     1     -36.355  26.178   3.205  0.00  0.00    +0.124 C 
ATOM     12  C   UNL     1     -35.821  27.704   1.248  0.00  0.00    +0.083 C 
ATOM     13  C   UNL     1     -35.555  27.106   2.629  0.00  0.00    -0.013 C 
ATOM     14  C   UNL     1     -34.315  27.685   3.267  0.00  0.00    +0.029 C 
BRANCH  11  16
ATOM     15  OXT UNL     1     -35.578  24.733   4.926  0.00  0.00    -0.244 OA
ATOM     16  C   UNL     1     -36.155  25.751   4.598  0.00  0.00    +0.351 C 
BRANCH  16  17
ATOM     17  O   UNL     1     -36.707  26.658   5.428  0.00  0.00    -0.476 OA
ATOM     18  H   UNL     1     -36.828  26.451   6.333  0.00  0.00    +0.295 HD
ENDBRANCH  16  17
ENDBRANCH  11  16
ENDBRANCH   2   9
BRANCH   3  19
ATOM     19  C   UNL     1     -42.458  26.746   1.079  0.00  0.00    +0.197 C 
BRANCH  19  22
ATOM     20  O   UNL     1     -43.816  27.511   4.430  0.00  0.00    -0.407 OA
ATOM     21  O   UNL     1     -41.970  28.508   3.469  0.00  0.00    -0.223 OA
ATOM     22  N   UNL     1     -43.179  26.859   2.339  0.00  0.00    -0.253 N 
ATOM     23  C   UNL     1     -44.285  26.117   2.659  0.00  0.00    +0.100 A 
ATOM     24  C   UNL     1     -44.651  26.527   3.924  0.00  0.00    +0.166 A 
ATOM     25  C   UNL     1     -42.887  27.699   3.390  0.00  0.00    +0.422 A 
ATOM     26  C   UNL     1     -44.980  25.145   1.970  0.00  0.00    +0.020 C 
ATOM     27  C   UNL     1     -45.741  25.985   4.574  0.00  0.00    +0.039 C 
ATOM     28  C   UNL     1     -46.087  24.582   2.608  0.00  0.00    +0.002 C 
ATOM     29  C   UNL     1     -46.464  24.998   3.900  0.00  0.00    +0.003 C 
ENDBRANCH  19  22
ENDBRANCH   3  19
TORSDOF 5
ENDMDL
MODEL 5
REMARK VINA RESULT:      -6.3      6.115      9.326
REMARK  Name = 192259
REMARK  5 active torsions:
REMARK  status: ('A' for Active; 'I' for Inactive)
REMARK    1  A    between atoms: N_2  and  CA_9
REMARK    2  A    between atoms: C_3  and  C_19
REMARK    3  A    between atoms: CA_11  and  C_16
REMARK    4  A    between atoms: C_16  and  O_17
REMARK    5  A    between atoms: C_19  and  N_22
REMARK                            x       y       z     vdW  Elec       q    Type
REMARK                         _______ _______ _______ _____ _____    ______ ____
ROOT
ATOM      1  O   UNL     1     -35.899  30.122   0.933  0.00  0.00    -0.273 OA
ATOM      2  N   UNL     1     -35.358  28.714   2.697  0.00  0.00    -0.295 N 
ATOM      3  C   UNL     1     -35.608  29.936   2.114  0.00  0.00    +0.246 C 
ATOM      4  H   UNL     1     -35.134  28.684   3.654  0.00  0.00    +0.150 HD
ENDROOT
BRANCH   2   9
ATOM      5  S   UNL     1     -33.882  26.438   4.130  0.00  0.00    -0.114 S 
ATOM      6  O   UNL     1     -37.909  26.869   1.846  0.00  0.00    -0.273 OA
ATOM      7  N   UNL     1     -36.093  25.737   2.839  0.00  0.00    -0.242 N 
ATOM      8  C   UNL     1     -34.747  26.204   2.561  0.00  0.00    +0.155 C 
ATOM      9  CA  UNL     1     -35.412  27.457   1.950  0.00  0.00    +0.178 C 
ATOM     10  C   UNL     1     -36.749  26.683   2.131  0.00  0.00    +0.251 C 
ATOM     11  CA  UNL     1     -36.373  24.654   3.608  0.00  0.00    +0.124 C 
ATOM     12  C   UNL     1     -34.040  24.683   4.606  0.00  0.00    +0.083 C 
ATOM     13  C   UNL     1     -35.437  24.097   4.412  0.00  0.00    -0.013 C 
ATOM     14  C   UNL     1     -35.645  22.847   5.233  0.00  0.00    +0.029 C 
BRANCH  11  16
ATOM     15  OXT UNL     1     -38.099  23.128   3.019  0.00  0.00    -0.244 OA
ATOM     16  C   UNL     1     -37.755  24.151   3.577  0.00  0.00    +0.351 C 
BRANCH  16  17
ATOM     17  O   UNL     1     -38.555  24.999   4.253  0.00  0.00    -0.476 OA
ATOM     18  H   UNL     1     -38.315  25.900   4.339  0.00  0.00    +0.295 HD
ENDBRANCH  16  17
ENDBRANCH  11  16
ENDBRANCH   2   9
BRANCH   3  19
ATOM     19  C   UNL     1     -35.451  31.065   3.113  0.00  0.00    +0.197 C 
BRANCH  19  22
ATOM     20  O   UNL     1     -31.824  31.663   3.496  0.00  0.00    -0.407 OA
ATOM     21  O   UNL     1     -33.014  29.948   4.480  0.00  0.00    -0.223 OA
ATOM     22  N   UNL     1     -34.065  31.511   3.099  0.00  0.00    -0.253 N 
ATOM     23  C   UNL     1     -33.618  32.603   2.402  0.00  0.00    +0.100 A 
ATOM     24  C   UNL     1     -32.264  32.674   2.657  0.00  0.00    +0.166 A 
ATOM     25  C   UNL     1     -33.002  30.938   3.758  0.00  0.00    +0.422 A 
ATOM     26  C   UNL     1     -34.264  33.513   1.591  0.00  0.00    +0.020 C 
ATOM     27  C   UNL     1     -31.476  33.666   2.110  0.00  0.00    +0.039 C 
ATOM     28  C   UNL     1     -33.486  34.526   1.026  0.00  0.00    +0.002 C 
ATOM     29  C   UNL     1     -32.103  34.602   1.284  0.00  0.00    +0.003 C 
ENDBRANCH  19  22
ENDBRANCH   3  19
TORSDOF 5
ENDMDL
MODEL 6
REMARK VINA RESULT:      -6.2      4.790      9.252
REMARK  Name = 192259
REMARK  5 active torsions:
REMARK  status: ('A' for Active; 'I' for Inactive)
REMARK    1  A    between atoms: N_2  and  CA_9
REMARK    2  A    between atoms: C_3  and  C_19
REMARK    3  A    between atoms: CA_11  and  C_16
REMARK    4  A    between atoms: C_16  and  O_17
REMARK    5  A    between atoms: C_19  and  N_22
REMARK                            x       y       z     vdW  Elec       q    Type
REMARK                         _______ _______ _______ _____ _____    ______ ____
ROOT
ATOM      1  O   UNL     1     -33.869  24.447   0.435  0.00  0.00    -0.273 OA
ATOM      2  N   UNL     1     -34.369  26.354   1.659  0.00  0.00    -0.295 N 
ATOM      3  C   UNL     1     -34.616  25.090   1.170  0.00  0.00    +0.246 C 
ATOM      4  H   UNL     1     -35.042  26.774   2.242  0.00  0.00    +0.150 HD
ENDROOT
BRANCH   2   9
ATOM      5  S   UNL     1     -34.498  29.267   2.610  0.00  0.00    -0.114 S 
ATOM      6  O   UNL     1     -31.302  25.892   2.661  0.00  0.00    -0.273 OA
ATOM      7  N   UNL     1     -32.125  28.097   2.817  0.00  0.00    -0.242 N 
ATOM      8  C   UNL     1     -33.043  28.570   1.798  0.00  0.00    +0.155 C 
ATOM      9  CA  UNL     1     -33.149  27.096   1.346  0.00  0.00    +0.178 C 
ATOM     10  C   UNL     1     -31.989  26.837   2.350  0.00  0.00    +0.251 C 
ATOM     11  CA  UNL     1     -31.673  28.865   3.841  0.00  0.00    +0.124 C 
ATOM     12  C   UNL     1     -33.536  30.551   3.480  0.00  0.00    +0.083 C 
ATOM     13  C   UNL     1     -32.267  30.040   4.160  0.00  0.00    -0.013 C 
ATOM     14  C   UNL     1     -31.776  30.987   5.228  0.00  0.00    +0.029 C 
BRANCH  11  16
ATOM     15  OXT UNL     1     -29.382  28.444   4.318  0.00  0.00    -0.244 OA
ATOM     16  C   UNL     1     -30.551  28.334   4.630  0.00  0.00    +0.351 C 
BRANCH  16  17
ATOM     17  O   UNL     1     -31.029  27.719   5.730  0.00  0.00    -0.476 OA
ATOM     18  H   UNL     1     -30.463  27.557   6.458  0.00  0.00    +0.295 HD
ENDBRANCH  16  17
ENDBRANCH  11  16
ENDBRANCH   2   9
BRANCH   3  19
ATOM     19  C   UNL     1     -35.967  24.576   1.627  0.00  0.00    +0.197 C 
BRANCH  19  22
ATOM     20  O   UNL     1     -35.540  21.102   2.812  0.00  0.00    -0.407 OA
ATOM     21  O   UNL     1     -35.887  21.741   0.622  0.00  0.00    -0.223 OA
ATOM     22  N   UNL     1     -35.773  23.321   2.339  0.00  0.00    -0.253 N 
ATOM     23  C   UNL     1     -35.582  23.229   3.692  0.00  0.00    +0.100 A 
ATOM     24  C   UNL     1     -35.445  21.881   3.955  0.00  0.00    +0.166 A 
ATOM     25  C   UNL     1     -35.750  22.056   1.799  0.00  0.00    +0.422 A 
ATOM     26  C   UNL     1     -35.521  24.183   4.687  0.00  0.00    +0.020 C 
ATOM     27  C   UNL     1     -35.235  21.411   5.234  0.00  0.00    +0.039 C 
ATOM     28  C   UNL     1     -35.308  23.729   5.991  0.00  0.00    +0.002 C 
ATOM     29  C   UNL     1     -35.168  22.354   6.262  0.00  0.00    +0.003 C 
ENDBRANCH  19  22
ENDBRANCH   3  19
TORSDOF 5
ENDMDL
MODEL 7
REMARK VINA RESULT:      -6.2      5.277      7.388
REMARK  Name = 192259
REMARK  5 active torsions:
REMARK  status: ('A' for Active; 'I' for Inactive)
REMARK    1  A    between atoms: N_2  and  CA_9
REMARK    2  A    between atoms: C_3  and  C_19
REMARK    3  A    between atoms: CA_11  and  C_16
REMARK    4  A    between atoms: C_16  and  O_17
REMARK    5  A    between atoms: C_19  and  N_22
REMARK                            x       y       z     vdW  Elec       q    Type
REMARK                         _______ _______ _______ _____ _____    ______ ____
ROOT
ATOM      1  O   UNL     1     -33.946  25.373   5.250  0.00  0.00    -0.273 OA
ATOM      2  N   UNL     1     -35.230  24.956   3.362  0.00  0.00    -0.295 N 
ATOM      3  C   UNL     1     -34.144  25.464   4.039  0.00  0.00    +0.246 C 
ATOM      4  H   UNL     1     -35.285  25.089   2.389  0.00  0.00    +0.150 HD
ENDROOT
BRANCH   2   9
ATOM      5  S   UNL     1     -38.004  26.057   2.652  0.00  0.00    -0.114 S 
ATOM      6  O   UNL     1     -36.128  21.831   3.131  0.00  0.00    -0.273 OA
ATOM      7  N   UNL     1     -37.858  23.424   2.954  0.00  0.00    -0.242 N 
ATOM      8  C   UNL     1     -37.769  24.637   3.744  0.00  0.00    +0.155 C 
ATOM      9  CA  UNL     1     -36.307  24.227   4.032  0.00  0.00    +0.178 C 
ATOM     10  C   UNL     1     -36.678  22.887   3.335  0.00  0.00    +0.251 C 
ATOM     11  CA  UNL     1     -38.905  23.127   2.143  0.00  0.00    +0.124 C 
ATOM     12  C   UNL     1     -39.685  25.542   2.162  0.00  0.00    +0.083 C 
ATOM     13  C   UNL     1     -39.810  24.067   1.783  0.00  0.00    -0.013 C 
ATOM     14  C   UNL     1     -41.044  23.798   0.954  0.00  0.00    +0.029 C 
BRANCH  11  16
ATOM     15  OXT UNL     1     -38.355  21.354   0.657  0.00  0.00    -0.244 OA
ATOM     16  C   UNL     1     -38.977  21.753   1.621  0.00  0.00    +0.351 C 
BRANCH  16  17
ATOM     17  O   UNL     1     -39.832  21.033   2.373  0.00  0.00    -0.476 OA
ATOM     18  H   UNL     1     -39.934  20.115   2.216  0.00  0.00    +0.295 HD
ENDBRANCH  16  17
ENDBRANCH  11  16
ENDBRANCH   2   9
BRANCH   3  19
ATOM     19  C   UNL     1     -33.205  26.198   3.103  0.00  0.00    +0.197 C 
BRANCH  19  22
ATOM     20  O   UNL     1     -32.693  29.627   4.383  0.00  0.00    -0.407 OA
ATOM     21  O   UNL     1     -31.446  27.774   4.967  0.00  0.00    -0.223 OA
ATOM     22  N   UNL     1     -33.212  27.613   3.447  0.00  0.00    -0.253 N 
ATOM     23  C   UNL     1     -34.097  28.522   2.931  0.00  0.00    +0.100 A 
ATOM     24  C   UNL     1     -33.765  29.730   3.510  0.00  0.00    +0.166 A 
ATOM     25  C   UNL     1     -32.365  28.260   4.317  0.00  0.00    +0.422 A 
ATOM     26  C   UNL     1     -35.136  28.398   2.031  0.00  0.00    +0.020 C 
ATOM     27  C   UNL     1     -34.456  30.887   3.218  0.00  0.00    +0.039 C 
ATOM     28  C   UNL     1     -35.850  29.557   1.720  0.00  0.00    +0.002 C 
ATOM     29  C   UNL     1     -35.513  30.791   2.310  0.00  0.00    +0.003 C 
ENDBRANCH  19  22
ENDBRANCH   3  19
TORSDOF 5
ENDMDL
MODEL 8
REMARK VINA RESULT:      -6.1      4.601      7.774
REMARK  Name = 192259
REMARK  5 active torsions:
REMARK  status: ('A' for Active; 'I' for Inactive)
REMARK    1  A    between atoms: N_2  and  CA_9
REMARK    2  A    between atoms: C_3  and  C_19
REMARK    3  A    between atoms: CA_11  and  C_16
REMARK    4  A    between atoms: C_16  and  O_17
REMARK    5  A    between atoms: C_19  and  N_22
REMARK                            x       y       z     vdW  Elec       q    Type
REMARK                         _______ _______ _______ _____ _____    ______ ____
ROOT
ATOM      1  O   UNL     1     -37.152  20.814   1.125  0.00  0.00    -0.273 OA
ATOM      2  N   UNL     1     -37.487  22.196   2.959  0.00  0.00    -0.295 N 
ATOM      3  C   UNL     1     -37.895  21.407   1.906  0.00  0.00    +0.246 C 
ATOM      4  H   UNL     1     -38.172  22.625   3.521  0.00  0.00    +0.150 HD
ENDROOT
BRANCH   2   9
ATOM      5  S   UNL     1     -36.267  24.467   1.297  0.00  0.00    -0.114 S 
ATOM      6  O   UNL     1     -36.071  23.128   5.744  0.00  0.00    -0.273 OA
ATOM      7  N   UNL     1     -35.409  24.291   3.802  0.00  0.00    -0.242 N 
ATOM      8  C   UNL     1     -35.330  23.563   2.549  0.00  0.00    +0.155 C 
ATOM      9  CA  UNL     1     -36.077  22.423   3.276  0.00  0.00    +0.178 C 
ATOM     10  C   UNL     1     -35.858  23.269   4.563  0.00  0.00    +0.251 C 
ATOM     11  CA  UNL     1     -35.081  25.602   3.935  0.00  0.00    +0.124 C 
ATOM     12  C   UNL     1     -35.219  25.955   1.426  0.00  0.00    +0.083 C 
ATOM     13  C   UNL     1     -34.935  26.408   2.857  0.00  0.00    -0.013 C 
ATOM     14  C   UNL     1     -34.494  27.850   2.918  0.00  0.00    +0.029 C 
BRANCH  11  16
ATOM     15  OXT UNL     1     -33.900  26.263   5.890  0.00  0.00    -0.244 OA
ATOM     16  C   UNL     1     -34.956  26.123   5.305  0.00  0.00    +0.351 C 
BRANCH  16  17
ATOM     17  O   UNL     1     -36.181  26.410   5.788  0.00  0.00    -0.476 OA
ATOM     18  H   UNL     1     -36.660  25.760   6.263  0.00  0.00    +0.295 HD
ENDBRANCH  16  17
ENDBRANCH  11  16
ENDBRANCH   2   9
BRANCH   3  19
ATOM     19  C   UNL     1     -39.405  21.376   1.793  0.00  0.00    +0.197 C 
BRANCH  19  22
ATOM     20  O   UNL     1     -40.402  23.554  -1.022  0.00  0.00    -0.407 OA
ATOM     21  O   UNL     1     -39.793  21.334  -1.190  0.00  0.00    -0.223 OA
ATOM     22  N   UNL     1     -39.828  22.425   0.875  0.00  0.00    -0.253 N 
ATOM     23  C   UNL     1     -40.140  23.701   1.261  0.00  0.00    +0.100 A 
ATOM     24  C   UNL     1     -40.483  24.364   0.100  0.00  0.00    +0.166 A 
ATOM     25  C   UNL     1     -39.981  22.321  -0.488  0.00  0.00    +0.422 A 
ATOM     26  C   UNL     1     -40.151  24.321   2.494  0.00  0.00    +0.020 C 
ATOM     27  C   UNL     1     -40.860  25.691   0.109  0.00  0.00    +0.039 C 
ATOM     28  C   UNL     1     -40.530  25.664   2.526  0.00  0.00    +0.002 C 
ATOM     29  C   UNL     1     -40.880  26.344   1.343  0.00  0.00    +0.003 C 
ENDBRANCH  19  22
ENDBRANCH   3  19
TORSDOF 5
ENDMDL
MODEL 9
REMARK VINA RESULT:      -6.1      6.168      9.065
REMARK  Name = 192259
REMARK  5 active torsions:
REMARK  status: ('A' for Active; 'I' for Inactive)
REMARK    1  A    between atoms: N_2  and  CA_9
REMARK    2  A    between atoms: C_3  and  C_19
REMARK    3  A    between atoms: CA_11  and  C_16
REMARK    4  A    between atoms: C_16  and  O_17
REMARK    5  A    between atoms: C_19  and  N_22
REMARK                            x       y       z     vdW  Elec       q    Type
REMARK                         _______ _______ _______ _____ _____    ______ ____
ROOT
ATOM      1  O   UNL     1     -34.568  29.924   0.897  0.00  0.00    -0.273 OA
ATOM      2  N   UNL     1     -35.215  28.627   2.710  0.00  0.00    -0.295 N 
ATOM      3  C   UNL     1     -34.896  29.808   2.077  0.00  0.00    +0.246 C 
ATOM      4  H   UNL     1     -35.464  28.653   3.661  0.00  0.00    +0.150 HD
ENDROOT
BRANCH   2   9
ATOM      5  S   UNL     1     -33.836  26.445   4.369  0.00  0.00    -0.114 S 
ATOM      6  O   UNL     1     -37.669  26.707   1.752  0.00  0.00    -0.273 OA
ATOM      7  N   UNL     1     -35.929  25.651   2.942  0.00  0.00    -0.242 N 
ATOM      8  C   UNL     1     -34.569  26.122   2.750  0.00  0.00    +0.155 C 
ATOM      9  CA  UNL     1     -35.195  27.334   2.025  0.00  0.00    +0.178 C 
ATOM     10  C   UNL     1     -36.535  26.551   2.138  0.00  0.00    +0.251 C 
ATOM     11  CA  UNL     1     -36.258  24.603   3.740  0.00  0.00    +0.124 C 
ATOM     12  C   UNL     1     -34.013  24.714   4.919  0.00  0.00    +0.083 C 
ATOM     13  C   UNL     1     -35.385  24.100   4.644  0.00  0.00    -0.013 C 
ATOM     14  C   UNL     1     -35.646  22.889   5.507  0.00  0.00    +0.029 C 
BRANCH  11  16
ATOM     15  OXT UNL     1     -37.917  23.030   3.086  0.00  0.00    -0.244 OA
ATOM     16  C   UNL     1     -37.628  24.080   3.624  0.00  0.00    +0.351 C 
BRANCH  16  17
ATOM     17  O   UNL     1     -38.487  24.944   4.201  0.00  0.00    -0.476 OA
ATOM     18  H   UNL     1     -38.367  25.195   5.096  0.00  0.00    +0.295 HD
ENDBRANCH  16  17
ENDBRANCH  11  16
ENDBRANCH   2   9
BRANCH   3  19
ATOM     19  C   UNL     1     -34.968  30.982   3.033  0.00  0.00    +0.197 C 
BRANCH  19  22
ATOM     20  O   UNL     1     -31.995  33.130   2.578  0.00  0.00    -0.407 OA
ATOM     21  O   UNL     1     -34.024  33.399   1.510  0.00  0.00    -0.223 OA
ATOM     22  N   UNL     1     -33.681  31.663   3.035  0.00  0.00    -0.253 N 
ATOM     23  C   UNL     1     -32.610  31.274   3.795  0.00  0.00    +0.100 A 
ATOM     24  C   UNL     1     -31.605  32.173   3.502  0.00  0.00    +0.166 A 
ATOM     25  C   UNL     1     -33.329  32.772   2.302  0.00  0.00    +0.422 A 
ATOM     26  C   UNL     1     -32.435  30.239   4.690  0.00  0.00    +0.020 C 
ATOM     27  C   UNL     1     -30.362  32.087   4.094  0.00  0.00    +0.039 C 
ATOM     28  C   UNL     1     -31.184  30.133   5.301  0.00  0.00    +0.002 C 
ATOM     29  C   UNL     1     -30.155  31.049   5.005  0.00  0.00    +0.003 C 
ENDBRANCH  19  22
ENDBRANCH   3  19
TORSDOF 5
ENDMDL
