MODEL 1
REMARK VINA RESULT:      -6.8      0.000      0.000
REMARK  Name = 54691489
REMARK  3 active torsions:
REMARK  status: ('A' for Active; 'I' for Inactive)
REMARK    1  A    between atoms: C_8  and  C_17
REMARK    2  A    between atoms: C_10  and  O_26
REMARK    3  A    between atoms: C_21  and  O_24
REMARK                            x       y       z     vdW  Elec       q    Type
REMARK                         _______ _______ _______ _____ _____    ______ ____
ROOT
ATOM      1 CL   UNL     1     -42.354  24.276  -0.087  0.00  0.00    -0.075 Cl
ATOM      2  S   UNL     1     -37.471  22.381   1.711  0.00  0.00    +0.077 S 
ATOM      3  S   UNL     1     -40.459  25.271   1.971  0.00  0.00    -0.071 S 
ATOM      4  O   UNL     1     -38.003  21.038   1.826  0.00  0.00    -0.150 OA
ATOM      5  O   UNL     1     -36.637  22.785   0.597  0.00  0.00    -0.150 OA
ATOM      6  N   UNL     1     -36.747  22.849   3.189  0.00  0.00    -0.181 N 
ATOM      7  C   UNL     1     -38.862  23.352   1.543  0.00  0.00    +0.136 C 
ATOM      8  C   UNL     1     -36.966  24.194   3.689  0.00  0.00    +0.156 C 
ATOM      9  C   UNL     1     -38.976  24.470   2.335  0.00  0.00    +0.084 C 
ATOM     10  C   UNL     1     -38.036  24.931   3.308  0.00  0.00    +0.160 C 
ATOM     11  C   UNL     1     -39.930  23.134   0.645  0.00  0.00    +0.039 C 
ATOM     12  C   UNL     1     -35.562  22.062   3.611  0.00  0.00    +0.139 C 
ATOM     13  C   UNL     1     -40.883  24.118   0.777  0.00  0.00    +0.088 C 
ENDROOT
BRANCH   8  17
ATOM     14  O   UNL     1     -35.996  24.245   5.814  0.00  0.00    -0.268 OA
ATOM     15  N   UNL     1     -35.231  25.738   4.161  0.00  0.00    -0.265 N 
ATOM     16  N   UNL     1     -33.559  27.431   4.140  0.00  0.00    -0.226 NA
ATOM     17  C   UNL     1     -36.013  24.721   4.683  0.00  0.00    +0.269 C 
ATOM     18  C   UNL     1     -34.216  26.469   4.826  0.00  0.00    +0.135 C 
ATOM     19  C   UNL     1     -33.962  26.150   6.150  0.00  0.00    +0.038 C 
ATOM     20  C   UNL     1     -32.968  26.864   6.812  0.00  0.00    +0.041 C 
ATOM     21  C   UNL     1     -32.271  27.860   6.139  0.00  0.00    +0.153 C 
ATOM     22  C   UNL     1     -32.600  28.103   4.816  0.00  0.00    +0.137 C 
ATOM     23  H   UNL     1     -35.397  25.979   3.221  0.00  0.00    +0.157 HD
BRANCH  21  24
ATOM     24  O   UNL     1     -31.298  28.573   6.759  0.00  0.00    -0.504 OA
ATOM     25  H   UNL     1     -30.764  28.167   7.414  0.00  0.00    +0.292 HD
ENDBRANCH  21  24
ENDBRANCH   8  17
BRANCH  10  26
ATOM     26  O   UNL     1     -38.337  26.186   3.802  0.00  0.00    -0.504 OA
ATOM     27  H   UNL     1     -38.063  26.952   3.337  0.00  0.00    +0.292 HD
ENDBRANCH  10  26
TORSDOF 3
ENDMDL
MODEL 2
REMARK VINA RESULT:      -6.6      2.871      3.809
REMARK  Name = 54691489
REMARK  3 active torsions:
REMARK  status: ('A' for Active; 'I' for Inactive)
REMARK    1  A    between atoms: C_8  and  C_17
REMARK    2  A    between atoms: C_10  and  O_26
REMARK    3  A    between atoms: C_21  and  O_24
REMARK                            x       y       z     vdW  Elec       q    Type
REMARK                         _______ _______ _______ _____ _____    ______ ____
ROOT
ATOM      1 CL   UNL     1     -37.472  17.662  -1.819  0.00  0.00    -0.075 Cl
ATOM      2  S   UNL     1     -39.316  21.840   1.315  0.00  0.00    +0.077 S 
ATOM      3  S   UNL     1     -36.163  19.330   0.260  0.00  0.00    -0.071 S 
ATOM      4  O   UNL     1     -39.909  22.482   0.159  0.00  0.00    -0.150 OA
ATOM      5  O   UNL     1     -40.108  21.089   2.268  0.00  0.00    -0.150 OA
ATOM      6  N   UNL     1     -38.298  22.944   2.135  0.00  0.00    -0.181 N 
ATOM      7  C   UNL     1     -38.283  20.665   0.637  0.00  0.00    +0.136 C 
ATOM      8  C   UNL     1     -37.014  22.485   2.634  0.00  0.00    +0.156 C 
ATOM      9  C   UNL     1     -36.991  20.589   1.099  0.00  0.00    +0.084 C 
ATOM     10  C   UNL     1     -36.394  21.399   2.114  0.00  0.00    +0.160 C 
ATOM     11  C   UNL     1     -38.625  19.729  -0.363  0.00  0.00    +0.039 C 
ATOM     12  C   UNL     1     -38.966  24.129   2.726  0.00  0.00    +0.139 C 
ATOM     13  C   UNL     1     -37.547  18.930  -0.668  0.00  0.00    +0.088 C 
ENDROOT
BRANCH   8  17
ATOM     14  O   UNL     1     -36.583  23.005   4.870  0.00  0.00    -0.268 OA
ATOM     15  N   UNL     1     -35.560  24.278   3.172  0.00  0.00    -0.265 N 
ATOM     16  N   UNL     1     -34.063  26.127   3.197  0.00  0.00    -0.226 NA
ATOM     17  C   UNL     1     -36.366  23.279   3.694  0.00  0.00    +0.269 C 
ATOM     18  C   UNL     1     -34.790  25.224   3.893  0.00  0.00    +0.135 C 
ATOM     19  C   UNL     1     -34.834  25.163   5.276  0.00  0.00    +0.038 C 
ATOM     20  C   UNL     1     -34.083  26.090   5.992  0.00  0.00    +0.041 C 
ATOM     21  C   UNL     1     -33.322  27.033   5.311  0.00  0.00    +0.153 C 
ATOM     22  C   UNL     1     -33.345  27.010   3.926  0.00  0.00    +0.137 C 
ATOM     23  H   UNL     1     -35.517  24.336   2.191  0.00  0.00    +0.157 HD
BRANCH  21  24
ATOM     24  O   UNL     1     -32.580  27.949   5.983  0.00  0.00    -0.504 OA
ATOM     25  H   UNL     1     -32.878  28.835   6.051  0.00  0.00    +0.292 HD
ENDBRANCH  21  24
ENDBRANCH   8  17
BRANCH  10  26
ATOM     26  O   UNL     1     -35.141  20.956   2.496  0.00  0.00    -0.504 OA
ATOM     27  H   UNL     1     -34.648  21.437   3.130  0.00  0.00    +0.292 HD
ENDBRANCH  10  26
TORSDOF 3
ENDMDL
MODEL 3
REMARK VINA RESULT:      -6.4      4.313      6.469
REMARK  Name = 54691489
REMARK  3 active torsions:
REMARK  status: ('A' for Active; 'I' for Inactive)
REMARK    1  A    between atoms: C_8  and  C_17
REMARK    2  A    between atoms: C_10  and  O_26
REMARK    3  A    between atoms: C_21  and  O_24
REMARK                            x       y       z     vdW  Elec       q    Type
REMARK                         _______ _______ _______ _____ _____    ______ ____
ROOT
ATOM      1 CL   UNL     1     -37.078  31.581  -1.909  0.00  0.00    -0.075 Cl
ATOM      2  S   UNL     1     -33.620  30.035   2.132  0.00  0.00    +0.077 S 
ATOM      3  S   UNL     1     -37.157  29.344   0.042  0.00  0.00    -0.071 S 
ATOM      4  O   UNL     1     -32.481  30.164   1.245  0.00  0.00    -0.150 OA
ATOM      5  O   UNL     1     -33.944  31.045   3.119  0.00  0.00    -0.150 OA
ATOM      6  N   UNL     1     -33.623  28.484   2.853  0.00  0.00    -0.181 N 
ATOM      7  C   UNL     1     -34.958  30.062   1.076  0.00  0.00    +0.136 C 
ATOM      8  C   UNL     1     -34.878  27.764   2.979  0.00  0.00    +0.156 C 
ATOM      9  C   UNL     1     -35.922  29.093   1.219  0.00  0.00    +0.084 C 
ATOM     10  C   UNL     1     -35.938  28.035   2.181  0.00  0.00    +0.160 C 
ATOM     11  C   UNL     1     -35.197  31.006   0.053  0.00  0.00    +0.039 C 
ATOM     12  C   UNL     1     -32.478  28.179   3.745  0.00  0.00    +0.139 C 
ATOM     13  C   UNL     1     -36.375  30.727  -0.600  0.00  0.00    +0.088 C 
ENDROOT
BRANCH   8  17
ATOM     14  O   UNL     1     -34.890  26.943   5.166  0.00  0.00    -0.268 OA
ATOM     15  N   UNL     1     -35.079  25.435   3.367  0.00  0.00    -0.265 N 
ATOM     16  N   UNL     1     -35.298  23.069   3.237  0.00  0.00    -0.226 NA
ATOM     17  C   UNL     1     -34.949  26.675   3.970  0.00  0.00    +0.269 C 
ATOM     18  C   UNL     1     -35.175  24.175   4.006  0.00  0.00    +0.135 C 
ATOM     19  C   UNL     1     -35.136  24.156   5.391  0.00  0.00    +0.038 C 
ATOM     20  C   UNL     1     -35.229  22.922   6.027  0.00  0.00    +0.041 C 
ATOM     21  C   UNL     1     -35.356  21.763   5.270  0.00  0.00    +0.153 C 
ATOM     22  C   UNL     1     -35.386  21.889   3.891  0.00  0.00    +0.137 C 
ATOM     23  H   UNL     1     -35.108  25.429   2.383  0.00  0.00    +0.157 HD
BRANCH  21  24
ATOM     24  O   UNL     1     -35.448  20.547   5.863  0.00  0.00    -0.504 OA
ATOM     25  H   UNL     1     -35.907  19.851   5.436  0.00  0.00    +0.292 HD
ENDBRANCH  21  24
ENDBRANCH   8  17
BRANCH  10  26
ATOM     26  O   UNL     1     -37.132  27.339   2.203  0.00  0.00    -0.504 OA
ATOM     27  H   UNL     1     -37.140  26.430   2.431  0.00  0.00    +0.292 HD
ENDBRANCH  10  26
TORSDOF 3
ENDMDL
MODEL 4
REMARK VINA RESULT:      -6.2      0.994      1.053
REMARK  Name = 54691489
REMARK  3 active torsions:
REMARK  status: ('A' for Active; 'I' for Inactive)
REMARK    1  A    between atoms: C_8  and  C_17
REMARK    2  A    between atoms: C_10  and  O_26
REMARK    3  A    between atoms: C_21  and  O_24
REMARK                            x       y       z     vdW  Elec       q    Type
REMARK                         _______ _______ _______ _____ _____    ______ ____
ROOT
ATOM      1 CL   UNL     1     -43.445  25.244   0.004  0.00  0.00    -0.075 Cl
ATOM      2  S   UNL     1     -38.604  22.841   1.211  0.00  0.00    +0.077 S 
ATOM      3  S   UNL     1     -41.304  25.927   1.944  0.00  0.00    -0.071 S 
ATOM      4  O   UNL     1     -39.236  21.538   1.280  0.00  0.00    -0.150 OA
ATOM      5  O   UNL     1     -37.837  23.263   0.057  0.00  0.00    -0.150 OA
ATOM      6  N   UNL     1     -37.720  23.135   2.646  0.00  0.00    -0.181 N 
ATOM      7  C   UNL     1     -39.917  23.928   1.239  0.00  0.00    +0.136 C 
ATOM      8  C   UNL     1     -37.781  24.452   3.257  0.00  0.00    +0.156 C 
ATOM      9  C   UNL     1     -39.869  24.986   2.114  0.00  0.00    +0.084 C 
ATOM     10  C   UNL     1     -38.814  25.297   3.027  0.00  0.00    +0.160 C 
ATOM     11  C   UNL     1     -41.073  23.863   0.429  0.00  0.00    +0.039 C 
ATOM     12  C   UNL     1     -36.574  22.229   2.902  0.00  0.00    +0.139 C 
ATOM     13  C   UNL     1     -41.924  24.905   0.716  0.00  0.00    +0.088 C 
ENDROOT
BRANCH   8  17
ATOM     14  O   UNL     1     -36.595  24.221   5.256  0.00  0.00    -0.268 OA
ATOM     15  N   UNL     1     -35.932  25.865   3.706  0.00  0.00    -0.265 N 
ATOM     16  N   UNL     1     -34.190  27.486   3.692  0.00  0.00    -0.226 NA
ATOM     17  C   UNL     1     -36.705  24.824   4.194  0.00  0.00    +0.269 C 
ATOM     18  C   UNL     1     -34.820  26.476   4.335  0.00  0.00    +0.135 C 
ATOM     19  C   UNL     1     -34.446  25.997   5.579  0.00  0.00    +0.038 C 
ATOM     20  C   UNL     1     -33.355  26.593   6.205  0.00  0.00    +0.041 C 
ATOM     21  C   UNL     1     -32.683  27.633   5.575  0.00  0.00    +0.153 C 
ATOM     22  C   UNL     1     -33.135  28.039   4.330  0.00  0.00    +0.137 C 
ATOM     23  H   UNL     1     -36.183  26.218   2.823  0.00  0.00    +0.157 HD
BRANCH  21  24
ATOM     24  O   UNL     1     -31.617  28.233   6.161  0.00  0.00    -0.504 OA
ATOM     25  H   UNL     1     -30.784  28.233   5.732  0.00  0.00    +0.292 HD
ENDBRANCH  21  24
ENDBRANCH   8  17
BRANCH  10  26
ATOM     26  O   UNL     1     -38.965  26.530   3.633  0.00  0.00    -0.504 OA
ATOM     27  H   UNL     1     -39.231  26.582   4.530  0.00  0.00    +0.292 HD
ENDBRANCH  10  26
TORSDOF 3
ENDMDL
MODEL 5
REMARK VINA RESULT:      -5.9      3.512      6.305
REMARK  Name = 54691489
REMARK  3 active torsions:
REMARK  status: ('A' for Active; 'I' for Inactive)
REMARK    1  A    between atoms: C_8  and  C_17
REMARK    2  A    between atoms: C_10  and  O_26
REMARK    3  A    between atoms: C_21  and  O_24
REMARK                            x       y       z     vdW  Elec       q    Type
REMARK                         _______ _______ _______ _____ _____    ______ ____
ROOT
ATOM      1 CL   UNL     1     -42.383  25.102   1.218  0.00  0.00    -0.075 Cl
ATOM      2  S   UNL     1     -37.185  24.766   3.098  0.00  0.00    +0.077 S 
ATOM      3  S   UNL     1     -40.382  22.909   1.179  0.00  0.00    -0.071 S 
ATOM      4  O   UNL     1     -36.854  26.040   2.493  0.00  0.00    -0.150 OA
ATOM      5  O   UNL     1     -37.455  24.635   4.516  0.00  0.00    -0.150 OA
ATOM      6  N   UNL     1     -36.061  23.575   2.600  0.00  0.00    -0.181 N 
ATOM      7  C   UNL     1     -38.667  24.345   2.368  0.00  0.00    +0.136 C 
ATOM      8  C   UNL     1     -36.543  22.251   2.248  0.00  0.00    +0.156 C 
ATOM      9  C   UNL     1     -38.804  23.078   1.854  0.00  0.00    +0.084 C 
ATOM     10  C   UNL     1     -37.824  22.038   1.864  0.00  0.00    +0.160 C 
ATOM     11  C   UNL     1     -39.803  25.176   2.243  0.00  0.00    +0.039 C 
ATOM     12  C   UNL     1     -34.657  23.786   3.029  0.00  0.00    +0.139 C 
ATOM     13  C   UNL     1     -40.822  24.509   1.603  0.00  0.00    +0.088 C 
ENDROOT
BRANCH   8  17
ATOM     14  O   UNL     1     -35.341  20.555   3.312  0.00  0.00    -0.268 OA
ATOM     15  N   UNL     1     -35.032  20.914   1.005  0.00  0.00    -0.265 N 
ATOM     16  N   UNL     1     -33.669  19.867  -0.641  0.00  0.00    -0.226 NA
ATOM     17  C   UNL     1     -35.572  21.142   2.260  0.00  0.00    +0.269 C 
ATOM     18  C   UNL     1     -34.075  19.933   0.648  0.00  0.00    +0.135 C 
ATOM     19  C   UNL     1     -33.610  19.097   1.651  0.00  0.00    +0.038 C 
ATOM     20  C   UNL     1     -32.668  18.132   1.309  0.00  0.00    +0.041 C 
ATOM     21  C   UNL     1     -32.227  18.034  -0.005  0.00  0.00    +0.153 C 
ATOM     22  C   UNL     1     -32.754  18.916  -0.935  0.00  0.00    +0.137 C 
ATOM     23  H   UNL     1     -35.350  21.498   0.280  0.00  0.00    +0.157 HD
BRANCH  21  24
ATOM     24  O   UNL     1     -31.310  17.103  -0.367  0.00  0.00    -0.504 OA
ATOM     25  H   UNL     1     -31.583  16.320  -0.803  0.00  0.00    +0.292 HD
ENDBRANCH  21  24
ENDBRANCH   8  17
BRANCH  10  26
ATOM     26  O   UNL     1     -38.322  20.817   1.449  0.00  0.00    -0.504 OA
ATOM     27  H   UNL     1     -38.723  20.737   0.605  0.00  0.00    +0.292 HD
ENDBRANCH  10  26
TORSDOF 3
ENDMDL
MODEL 6
REMARK VINA RESULT:      -5.9      4.309      5.696
REMARK  Name = 54691489
REMARK  3 active torsions:
REMARK  status: ('A' for Active; 'I' for Inactive)
REMARK    1  A    between atoms: C_8  and  C_17
REMARK    2  A    between atoms: C_10  and  O_26
REMARK    3  A    between atoms: C_21  and  O_24
REMARK                            x       y       z     vdW  Elec       q    Type
REMARK                         _______ _______ _______ _____ _____    ______ ____
ROOT
ATOM      1 CL   UNL     1     -39.126  16.690  -3.544  0.00  0.00    -0.075 Cl
ATOM      2  S   UNL     1     -34.711  18.601  -0.800  0.00  0.00    +0.077 S 
ATOM      3  S   UNL     1     -38.858  18.451  -1.168  0.00  0.00    -0.071 S 
ATOM      4  O   UNL     1     -34.120  17.278  -0.774  0.00  0.00    -0.150 OA
ATOM      5  O   UNL     1     -34.276  19.620  -1.734  0.00  0.00    -0.150 OA
ATOM      6  N   UNL     1     -34.773  19.242   0.785  0.00  0.00    -0.181 N 
ATOM      7  C   UNL     1     -36.330  18.310  -1.250  0.00  0.00    +0.136 C 
ATOM      8  C   UNL     1     -35.964  19.953   1.215  0.00  0.00    +0.156 C 
ATOM      9  C   UNL     1     -37.328  18.898  -0.511  0.00  0.00    +0.084 C 
ATOM     10  C   UNL     1     -37.165  19.755   0.622  0.00  0.00    +0.160 C 
ATOM     11  C   UNL     1     -36.766  17.521  -2.337  0.00  0.00    +0.039 C 
ATOM     12  C   UNL     1     -33.464  19.482   1.441  0.00  0.00    +0.139 C 
ATOM     13  C   UNL     1     -38.140  17.510  -2.407  0.00  0.00    +0.088 C 
ENDROOT
BRANCH   8  17
ATOM     14  O   UNL     1     -35.368  20.442   3.420  0.00  0.00    -0.268 OA
ATOM     15  N   UNL     1     -36.310  22.132   2.079  0.00  0.00    -0.265 N 
ATOM     16  N   UNL     1     -36.845  24.418   2.471  0.00  0.00    -0.226 NA
ATOM     17  C   UNL     1     -35.842  20.862   2.370  0.00  0.00    +0.269 C 
ATOM     18  C   UNL     1     -36.346  23.253   2.944  0.00  0.00    +0.135 C 
ATOM     19  C   UNL     1     -35.866  23.082   4.233  0.00  0.00    +0.038 C 
ATOM     20  C   UNL     1     -35.900  24.177   5.090  0.00  0.00    +0.041 C 
ATOM     21  C   UNL     1     -36.404  25.391   4.639  0.00  0.00    +0.153 C 
ATOM     22  C   UNL     1     -36.860  25.459   3.333  0.00  0.00    +0.137 C 
ATOM     23  H   UNL     1     -36.655  22.273   1.168  0.00  0.00    +0.157 HD
BRANCH  21  24
ATOM     24  O   UNL     1     -36.450  26.475   5.453  0.00  0.00    -0.504 OA
ATOM     25  H   UNL     1     -35.781  27.129   5.400  0.00  0.00    +0.292 HD
ENDBRANCH  21  24
ENDBRANCH   8  17
BRANCH  10  26
ATOM     26  O   UNL     1     -38.346  20.346   1.031  0.00  0.00    -0.504 OA
ATOM     27  H   UNL     1     -38.901  20.766   0.405  0.00  0.00    +0.292 HD
ENDBRANCH  10  26
TORSDOF 3
ENDMDL
MODEL 7
REMARK VINA RESULT:      -5.9      4.449      7.376
REMARK  Name = 54691489
REMARK  3 active torsions:
REMARK  status: ('A' for Active; 'I' for Inactive)
REMARK    1  A    between atoms: C_8  and  C_17
REMARK    2  A    between atoms: C_10  and  O_26
REMARK    3  A    between atoms: C_21  and  O_24
REMARK                            x       y       z     vdW  Elec       q    Type
REMARK                         _______ _______ _______ _____ _____    ______ ____
ROOT
ATOM      1 CL   UNL     1     -35.040  33.686  -0.155  0.00  0.00    -0.075 Cl
ATOM      2  S   UNL     1     -32.831  30.198   3.536  0.00  0.00    +0.077 S 
ATOM      3  S   UNL     1     -35.843  30.980   0.767  0.00  0.00    -0.071 S 
ATOM      4  O   UNL     1     -31.511  30.393   2.972  0.00  0.00    -0.150 OA
ATOM      5  O   UNL     1     -33.250  30.853   4.759  0.00  0.00    -0.150 OA
ATOM      6  N   UNL     1     -33.192  28.527   3.609  0.00  0.00    -0.181 N 
ATOM      7  C   UNL     1     -33.874  30.850   2.355  0.00  0.00    +0.136 C 
ATOM      8  C   UNL     1     -34.520  28.073   3.238  0.00  0.00    +0.156 C 
ATOM      9  C   UNL     1     -34.956  30.102   1.956  0.00  0.00    +0.084 C 
ATOM     10  C   UNL     1     -35.325  28.805   2.432  0.00  0.00    +0.160 C 
ATOM     11  C   UNL     1     -33.751  32.114   1.738  0.00  0.00    +0.039 C 
ATOM     12  C   UNL     1     -32.331  27.715   4.504  0.00  0.00    +0.139 C 
ATOM     13  C   UNL     1     -34.771  32.315   0.837  0.00  0.00    +0.088 C 
ENDROOT
BRANCH   8  17
ATOM     14  O   UNL     1     -35.403  26.636   4.854  0.00  0.00    -0.268 OA
ATOM     15  N   UNL     1     -34.773  25.766   2.758  0.00  0.00    -0.265 N 
ATOM     16  N   UNL     1     -34.828  23.582   1.815  0.00  0.00    -0.226 NA
ATOM     17  C   UNL     1     -34.952  26.747   3.719  0.00  0.00    +0.269 C 
ATOM     18  C   UNL     1     -35.077  24.387   2.873  0.00  0.00    +0.135 C 
ATOM     19  C   UNL     1     -35.612  23.948   4.073  0.00  0.00    +0.038 C 
ATOM     20  C   UNL     1     -35.912  22.594   4.195  0.00  0.00    +0.041 C 
ATOM     21  C   UNL     1     -35.670  21.736   3.129  0.00  0.00    +0.153 C 
ATOM     22  C   UNL     1     -35.133  22.274   1.971  0.00  0.00    +0.137 C 
ATOM     23  H   UNL     1     -34.393  26.059   1.899  0.00  0.00    +0.157 HD
BRANCH  21  24
ATOM     24  O   UNL     1     -35.952  20.413   3.219  0.00  0.00    -0.504 OA
ATOM     25  H   UNL     1     -36.771  20.085   2.901  0.00  0.00    +0.292 HD
ENDBRANCH  21  24
ENDBRANCH   8  17
BRANCH  10  26
ATOM     26  O   UNL     1     -36.567  28.396   1.985  0.00  0.00    -0.504 OA
ATOM     27  H   UNL     1     -37.236  28.173   2.602  0.00  0.00    +0.292 HD
ENDBRANCH  10  26
TORSDOF 3
ENDMDL
MODEL 8
REMARK VINA RESULT:      -5.7      5.546      7.493
REMARK  Name = 54691489
REMARK  3 active torsions:
REMARK  status: ('A' for Active; 'I' for Inactive)
REMARK    1  A    between atoms: C_8  and  C_17
REMARK    2  A    between atoms: C_10  and  O_26
REMARK    3  A    between atoms: C_21  and  O_24
REMARK                            x       y       z     vdW  Elec       q    Type
REMARK                         _______ _______ _______ _____ _____    ______ ____
ROOT
ATOM      1 CL   UNL     1     -35.574  23.044   6.003  0.00  0.00    -0.075 Cl
ATOM      2  S   UNL     1     -32.912  27.594   4.306  0.00  0.00    +0.077 S 
ATOM      3  S   UNL     1     -36.297  25.178   4.070  0.00  0.00    -0.071 S 
ATOM      4  O   UNL     1     -32.595  27.952   5.674  0.00  0.00    -0.150 OA
ATOM      5  O   UNL     1     -31.937  26.982   3.426  0.00  0.00    -0.150 OA
ATOM      6  N   UNL     1     -33.671  28.910   3.520  0.00  0.00    -0.181 N 
ATOM      7  C   UNL     1     -34.112  26.393   4.471  0.00  0.00    +0.136 C 
ATOM      8  C   UNL     1     -34.811  28.657   2.656  0.00  0.00    +0.156 C 
ATOM      9  C   UNL     1     -35.256  26.508   3.721  0.00  0.00    +0.084 C 
ATOM     10  C   UNL     1     -35.569  27.542   2.785  0.00  0.00    +0.160 C 
ATOM     11  C   UNL     1     -34.047  25.257   5.309  0.00  0.00    +0.039 C 
ATOM     12  C   UNL     1     -32.847  30.132   3.355  0.00  0.00    +0.139 C 
ATOM     13  C   UNL     1     -35.190  24.500   5.187  0.00  0.00    +0.088 C 
ENDROOT
BRANCH   8  17
ATOM     14  O   UNL     1     -34.561  29.726   0.594  0.00  0.00    -0.268 OA
ATOM     15  N   UNL     1     -36.181  30.512   2.112  0.00  0.00    -0.265 N 
ATOM     16  N   UNL     1     -37.760  32.291   2.036  0.00  0.00    -0.226 NA
ATOM     17  C   UNL     1     -35.162  29.688   1.663  0.00  0.00    +0.269 C 
ATOM     18  C   UNL     1     -36.769  31.603   1.425  0.00  0.00    +0.135 C 
ATOM     19  C   UNL     1     -36.285  31.898   0.161  0.00  0.00    +0.038 C 
ATOM     20  C   UNL     1     -36.855  32.969  -0.521  0.00  0.00    +0.041 C 
ATOM     21  C   UNL     1     -37.877  33.699   0.075  0.00  0.00    +0.153 C 
ATOM     22  C   UNL     1     -38.290  33.323   1.343  0.00  0.00    +0.137 C 
ATOM     23  H   UNL     1     -36.537  30.318   3.008  0.00  0.00    +0.157 HD
BRANCH  21  24
ATOM     24  O   UNL     1     -38.451  34.748  -0.565  0.00  0.00    -0.504 OA
ATOM     25  H   UNL     1     -39.055  35.301  -0.110  0.00  0.00    +0.292 HD
ENDBRANCH  21  24
ENDBRANCH   8  17
BRANCH  10  26
ATOM     26  O   UNL     1     -36.705  27.279   2.043  0.00  0.00    -0.504 OA
ATOM     27  H   UNL     1     -36.756  27.555   1.149  0.00  0.00    +0.292 HD
ENDBRANCH  10  26
TORSDOF 3
ENDMDL
MODEL 9
REMARK VINA RESULT:      -5.7      4.248      5.339
REMARK  Name = 54691489
REMARK  3 active torsions:
REMARK  status: ('A' for Active; 'I' for Inactive)
REMARK    1  A    between atoms: C_8  and  C_17
REMARK    2  A    between atoms: C_10  and  O_26
REMARK    3  A    between atoms: C_21  and  O_24
REMARK                            x       y       z     vdW  Elec       q    Type
REMARK                         _______ _______ _______ _____ _____    ______ ____
ROOT
ATOM      1 CL   UNL     1     -35.204  21.323   6.000  0.00  0.00    -0.075 Cl
ATOM      2  S   UNL     1     -35.830  24.115   1.258  0.00  0.00    +0.077 S 
ATOM      3  S   UNL     1     -35.431  24.223   5.403  0.00  0.00    -0.071 S 
ATOM      4  O   UNL     1     -34.778  23.341   0.631  0.00  0.00    -0.150 OA
ATOM      5  O   UNL     1     -37.233  23.848   1.010  0.00  0.00    -0.150 OA
ATOM      6  N   UNL     1     -35.509  25.786   1.081  0.00  0.00    -0.181 N 
ATOM      7  C   UNL     1     -35.645  23.777   2.919  0.00  0.00    +0.136 C 
ATOM      8  C   UNL     1     -35.737  26.674   2.207  0.00  0.00    +0.156 C 
ATOM      9  C   UNL     1     -35.627  24.830   3.801  0.00  0.00    +0.084 C 
ATOM     10  C   UNL     1     -35.754  26.218   3.482  0.00  0.00    +0.160 C 
ATOM     11  C   UNL     1     -35.519  22.496   3.501  0.00  0.00    +0.039 C 
ATOM     12  C   UNL     1     -35.506  26.304  -0.309  0.00  0.00    +0.139 C 
ATOM     13  C   UNL     1     -35.391  22.596   4.868  0.00  0.00    +0.088 C 
ENDROOT
BRANCH   8  17
ATOM     14  O   UNL     1     -36.930  28.520   1.417  0.00  0.00    -0.268 OA
ATOM     15  N   UNL     1     -34.771  28.836   2.304  0.00  0.00    -0.265 N 
ATOM     16  N   UNL     1     -33.398  30.755   2.613  0.00  0.00    -0.226 NA
ATOM     17  C   UNL     1     -35.891  28.113   1.927  0.00  0.00    +0.269 C 
ATOM     18  C   UNL     1     -34.570  30.233   2.184  0.00  0.00    +0.135 C 
ATOM     19  C   UNL     1     -35.595  30.981   1.628  0.00  0.00    +0.038 C 
ATOM     20  C   UNL     1     -35.406  32.353   1.504  0.00  0.00    +0.041 C 
ATOM     21  C   UNL     1     -34.215  32.927   1.935  0.00  0.00    +0.153 C 
ATOM     22  C   UNL     1     -33.252  32.092   2.477  0.00  0.00    +0.137 C 
ATOM     23  H   UNL     1     -34.032  28.321   2.701  0.00  0.00    +0.157 HD
BRANCH  21  24
ATOM     24  O   UNL     1     -34.002  34.261   1.826  0.00  0.00    -0.504 OA
ATOM     25  H   UNL     1     -34.661  34.866   2.109  0.00  0.00    +0.292 HD
ENDBRANCH  21  24
ENDBRANCH   8  17
BRANCH  10  26
ATOM     26  O   UNL     1     -35.894  27.021   4.598  0.00  0.00    -0.504 OA
ATOM     27  H   UNL     1     -36.397  26.723   5.330  0.00  0.00    +0.292 HD
ENDBRANCH  10  26
TORSDOF 3
ENDMDL
