MODEL 1
REMARK VINA RESULT:      -6.8      0.000      0.000
REMARK  Name = 57369869
REMARK  9 active torsions:
REMARK  status: ('A' for Active; 'I' for Inactive)
REMARK    1  A    between atoms: C_4  and  C_21
REMARK    2  A    between atoms: C_4  and  O_23
REMARK    3  A    between atoms: C_18  and  O_19
REMARK    4  A    between atoms: O_23  and  C_25
REMARK    5  A    between atoms: C_26  and  O_30
REMARK    6  A    between atoms: C_27  and  O_32
REMARK    7  A    between atoms: C_28  and  C_37
REMARK    8  A    between atoms: C_29  and  O_34
REMARK    9  A    between atoms: C_37  and  O_38
REMARK                            x       y       z     vdW  Elec       q    Type
REMARK                         _______ _______ _______ _____ _____    ______ ____
ROOT
ATOM      1  C   UNL     1     -33.879  22.440  -0.593  0.00  0.00    +0.034 C 
ATOM      2  C   UNL     1     -34.045  21.450   0.586  0.00  0.00    +0.004 C 
ATOM      3  C   UNL     1     -33.336  20.115   0.344  0.00  0.00    +0.004 C 
ATOM      4  C   UNL     1     -34.772  23.609  -0.081  0.00  0.00    +0.149 C 
ATOM      5  C   UNL     1     -31.810  20.378   0.169  0.00  0.00    +0.022 C 
ATOM      6  C   UNL     1     -32.374  22.730  -0.738  0.00  0.00    +0.004 C 
ATOM      7  C   UNL     1     -35.550  21.444   0.839  0.00  0.00    +0.004 C 
ATOM      8  C   UNL     1     -36.005  22.881   0.509  0.00  0.00    +0.040 C 
ATOM      9  C   UNL     1     -31.548  21.444  -0.927  0.00  0.00    +0.004 C 
ATOM     10  C   UNL     1     -33.540  19.125   1.494  0.00  0.00    +0.005 C 
ATOM     11  C   UNL     1     -34.422  21.881  -1.941  0.00  0.00    +0.003 C 
ATOM     12  C   UNL     1     -31.040  19.070   0.000  0.00  0.00    -0.026 C 
ATOM     13  C   UNL     1     -32.938  17.772   1.125  0.00  0.00    +0.026 C 
ATOM     14  C   UNL     1     -31.568  17.858   0.496  0.00  0.00    -0.023 C 
ATOM     15  C   UNL     1     -29.754  19.051  -0.570  0.00  0.00    -0.001 C 
ATOM     16  C   UNL     1     -30.832  16.668   0.364  0.00  0.00    +0.032 C 
ATOM     17  C   UNL     1     -29.030  17.863  -0.687  0.00  0.00    +0.036 C 
ATOM     18  C   UNL     1     -29.572  16.669  -0.224  0.00  0.00    +0.133 C 
ENDROOT
BRANCH  18  19
ATOM     19  O   UNL     1     -28.869  15.510  -0.340  0.00  0.00    -0.506 OA
ATOM     20  H   UNL     1     -29.322  14.700  -0.467  0.00  0.00    +0.292 HD
ENDBRANCH  18  19
BRANCH   4  21
ATOM     21  C   UNL     1     -35.156  24.568  -1.125  0.00  0.00    -0.052 C 
ATOM     22  C   UNL     1     -35.470  25.353  -1.977  0.00  0.00    -0.012 C 
ENDBRANCH   4  21
BRANCH   4  23
ATOM     23  O   UNL     1     -34.119  24.348   0.952  0.00  0.00    -0.321 OA
BRANCH  23  25
ATOM     24  O   UNL     1     -35.014  24.054   3.088  0.00  0.00    -0.317 OA
ATOM     25  C   UNL     1     -35.059  24.846   1.904  0.00  0.00    +0.267 C 
ATOM     26  C   UNL     1     -34.682  26.293   2.222  0.00  0.00    +0.196 C 
ATOM     27  C   UNL     1     -35.563  26.865   3.332  0.00  0.00    +0.172 C 
ATOM     28  C   UNL     1     -35.949  24.493   4.067  0.00  0.00    +0.245 C 
ATOM     29  C   UNL     1     -35.642  25.914   4.527  0.00  0.00    +0.178 C 
BRANCH  26  30
ATOM     30  O   UNL     1     -34.853  27.096   1.055  0.00  0.00    -0.378 OA
ATOM     31  H   UNL     1     -35.390  27.874   1.273  0.00  0.00    +0.211 HD
ENDBRANCH  26  30
BRANCH  27  32
ATOM     32  O   UNL     1     -34.996  28.107   3.750  0.00  0.00    -0.379 OA
ATOM     33  H   UNL     1     -35.261  28.292   4.664  0.00  0.00    +0.211 HD
ENDBRANCH  27  32
BRANCH  29  34
ATOM     34  O   UNL     1     -36.688  26.339   5.400  0.00  0.00    -0.379 OA
ATOM     35  H   UNL     1     -36.316  26.896   6.103  0.00  0.00    +0.211 HD
ENDBRANCH  29  34
BRANCH  28  37
ATOM     36  O   UNL     1     -35.182  23.755   6.234  0.00  0.00    -0.247 OA
ATOM     37  C   UNL     1     -35.758  23.517   5.183  0.00  0.00    +0.344 C 
BRANCH  37  38
ATOM     38  O   UNL     1     -36.313  22.319   4.871  0.00  0.00    -0.478 OA
ATOM     39  H   UNL     1     -37.233  22.258   4.708  0.00  0.00    +0.295 HD
ENDBRANCH  37  38
ENDBRANCH  28  37
ENDBRANCH  23  25
ENDBRANCH   4  23
TORSDOF 9
ENDMDL
MODEL 2
REMARK VINA RESULT:      -6.7      3.171      8.278
REMARK  Name = 57369869
REMARK  9 active torsions:
REMARK  status: ('A' for Active; 'I' for Inactive)
REMARK    1  A    between atoms: C_4  and  C_21
REMARK    2  A    between atoms: C_4  and  O_23
REMARK    3  A    between atoms: C_18  and  O_19
REMARK    4  A    between atoms: O_23  and  C_25
REMARK    5  A    between atoms: C_26  and  O_30
REMARK    6  A    between atoms: C_27  and  O_32
REMARK    7  A    between atoms: C_28  and  C_37
REMARK    8  A    between atoms: C_29  and  O_34
REMARK    9  A    between atoms: C_37  and  O_38
REMARK                            x       y       z     vdW  Elec       q    Type
REMARK                         _______ _______ _______ _____ _____    ______ ____
ROOT
ATOM      1  C   UNL     1     -36.455  24.139   3.017  0.00  0.00    +0.034 C 
ATOM      2  C   UNL     1     -35.102  24.508   2.358  0.00  0.00    +0.004 C 
ATOM      3  C   UNL     1     -34.419  25.698   3.035  0.00  0.00    +0.004 C 
ATOM      4  C   UNL     1     -36.910  22.999   2.058  0.00  0.00    +0.149 C 
ATOM      5  C   UNL     1     -34.129  25.336   4.523  0.00  0.00    +0.022 C 
ATOM      6  C   UNL     1     -36.161  23.742   4.475  0.00  0.00    +0.004 C 
ATOM      7  C   UNL     1     -35.442  24.605   0.874  0.00  0.00    +0.004 C 
ATOM      8  C   UNL     1     -36.543  23.546   0.656  0.00  0.00    +0.040 C 
ATOM      9  C   UNL     1     -35.414  24.849   5.241  0.00  0.00    +0.004 C 
ATOM     10  C   UNL     1     -33.104  26.085   2.354  0.00  0.00    +0.005 C 
ATOM     11  C   UNL     1     -37.479  25.311   3.005  0.00  0.00    +0.003 C 
ATOM     12  C   UNL     1     -33.376  26.461   5.229  0.00  0.00    -0.026 C 
ATOM     13  C   UNL     1     -32.552  27.364   2.980  0.00  0.00    +0.026 C 
ATOM     14  C   UNL     1     -32.603  27.382   4.488  0.00  0.00    -0.023 C 
ATOM     15  C   UNL     1     -33.360  26.557   6.632  0.00  0.00    -0.001 C 
ATOM     16  C   UNL     1     -31.888  28.392   5.155  0.00  0.00    +0.032 C 
ATOM     17  C   UNL     1     -32.638  27.561   7.282  0.00  0.00    +0.036 C 
ATOM     18  C   UNL     1     -31.906  28.482   6.543  0.00  0.00    +0.133 C 
ENDROOT
BRANCH  18  19
ATOM     19  O   UNL     1     -31.204  29.461   7.174  0.00  0.00    -0.506 OA
ATOM     20  H   UNL     1     -31.463  30.357   7.080  0.00  0.00    +0.292 HD
ENDBRANCH  18  19
BRANCH   4  21
ATOM     21  C   UNL     1     -38.338  22.672   2.156  0.00  0.00    -0.052 C 
ATOM     22  C   UNL     1     -39.506  22.405   2.234  0.00  0.00    -0.012 C 
ENDBRANCH   4  21
BRANCH   4  23
ATOM     23  O   UNL     1     -36.184  21.793   2.301  0.00  0.00    -0.321 OA
BRANCH  23  25
ATOM     24  O   UNL     1     -34.328  21.277   0.983  0.00  0.00    -0.317 OA
ATOM     25  C   UNL     1     -35.748  21.198   1.080  0.00  0.00    +0.267 C 
ATOM     26  C   UNL     1     -36.195  19.736   1.084  0.00  0.00    +0.196 C 
ATOM     27  C   UNL     1     -35.658  18.987  -0.133  0.00  0.00    +0.172 C 
ATOM     28  C   UNL     1     -33.836  20.716  -0.229  0.00  0.00    +0.245 C 
ATOM     29  C   UNL     1     -34.159  19.228  -0.320  0.00  0.00    +0.178 C 
BRANCH  26  30
ATOM     30  O   UNL     1     -37.621  19.676   1.055  0.00  0.00    -0.378 OA
ATOM     31  H   UNL     1     -37.935  19.099   1.769  0.00  0.00    +0.211 HD
ENDBRANCH  26  30
BRANCH  27  32
ATOM     32  O   UNL     1     -35.893  17.592   0.066  0.00  0.00    -0.379 OA
ATOM     33  H   UNL     1     -35.655  17.351   0.974  0.00  0.00    +0.211 HD
ENDBRANCH  27  32
BRANCH  29  34
ATOM     34  O   UNL     1     -33.762  18.761  -1.609  0.00  0.00    -0.379 OA
ATOM     35  H   UNL     1     -32.824  18.964  -1.752  0.00  0.00    +0.211 HD
ENDBRANCH  29  34
BRANCH  28  37
ATOM     36  O   UNL     1     -31.771  21.920  -0.560  0.00  0.00    -0.247 OA
ATOM     37  C   UNL     1     -32.362  20.938  -0.135  0.00  0.00    +0.344 C 
BRANCH  37  38
ATOM     38  O   UNL     1     -31.759  19.896   0.488  0.00  0.00    -0.478 OA
ATOM     39  H   UNL     1     -31.195  20.050   1.220  0.00  0.00    +0.295 HD
ENDBRANCH  37  38
ENDBRANCH  28  37
ENDBRANCH  23  25
ENDBRANCH   4  23
TORSDOF 9
ENDMDL
MODEL 3
REMARK VINA RESULT:      -6.6      3.746      9.027
REMARK  Name = 57369869
REMARK  9 active torsions:
REMARK  status: ('A' for Active; 'I' for Inactive)
REMARK    1  A    between atoms: C_4  and  C_21
REMARK    2  A    between atoms: C_4  and  O_23
REMARK    3  A    between atoms: C_18  and  O_19
REMARK    4  A    between atoms: O_23  and  C_25
REMARK    5  A    between atoms: C_26  and  O_30
REMARK    6  A    between atoms: C_27  and  O_32
REMARK    7  A    between atoms: C_28  and  C_37
REMARK    8  A    between atoms: C_29  and  O_34
REMARK    9  A    between atoms: C_37  and  O_38
REMARK                            x       y       z     vdW  Elec       q    Type
REMARK                         _______ _______ _______ _____ _____    ______ ____
ROOT
ATOM      1  C   UNL     1     -35.194  25.218   4.323  0.00  0.00    +0.034 C 
ATOM      2  C   UNL     1     -35.741  25.861   3.024  0.00  0.00    +0.004 C 
ATOM      3  C   UNL     1     -35.533  27.377   2.982  0.00  0.00    +0.004 C 
ATOM      4  C   UNL     1     -35.642  23.744   4.093  0.00  0.00    +0.149 C 
ATOM      5  C   UNL     1     -34.006  27.681   3.045  0.00  0.00    +0.022 C 
ATOM      6  C   UNL     1     -33.678  25.483   4.363  0.00  0.00    +0.004 C 
ATOM      7  C   UNL     1     -37.161  25.313   2.924  0.00  0.00    +0.004 C 
ATOM      8  C   UNL     1     -37.073  23.892   3.520  0.00  0.00    +0.040 C 
ATOM      9  C   UNL     1     -33.347  26.984   4.263  0.00  0.00    +0.004 C 
ATOM     10  C   UNL     1     -36.113  28.013   1.716  0.00  0.00    +0.005 C 
ATOM     11  C   UNL     1     -35.846  25.796   5.613  0.00  0.00    +0.003 C 
ATOM     12  C   UNL     1     -33.735  29.179   2.928  0.00  0.00    -0.026 C 
ATOM     13  C   UNL     1     -36.008  29.533   1.805  0.00  0.00    +0.026 C 
ATOM     14  C   UNL     1     -34.672  30.030   2.302  0.00  0.00    -0.023 C 
ATOM     15  C   UNL     1     -32.516  29.733   3.357  0.00  0.00    -0.001 C 
ATOM     16  C   UNL     1     -34.394  31.402   2.171  0.00  0.00    +0.032 C 
ATOM     17  C   UNL     1     -32.249  31.096   3.213  0.00  0.00    +0.036 C 
ATOM     18  C   UNL     1     -33.190  31.932   2.624  0.00  0.00    +0.133 C 
ENDROOT
BRANCH  18  19
ATOM     19  O   UNL     1     -32.933  33.261   2.486  0.00  0.00    -0.506 OA
ATOM     20  H   UNL     1     -32.382  33.698   3.106  0.00  0.00    +0.292 HD
ENDBRANCH  18  19
BRANCH   4  21
ATOM     21  C   UNL     1     -35.626  22.918   5.307  0.00  0.00    -0.052 C 
ATOM     22  C   UNL     1     -35.613  22.244   6.300  0.00  0.00    -0.012 C 
ENDBRANCH   4  21
BRANCH   4  23
ATOM     23  O   UNL     1     -34.812  23.092   3.130  0.00  0.00    -0.321 OA
BRANCH  23  25
ATOM     24  O   UNL     1     -35.295  23.000   0.848  0.00  0.00    -0.317 OA
ATOM     25  C   UNL     1     -35.594  22.445   2.127  0.00  0.00    +0.267 C 
ATOM     26  C   UNL     1     -35.248  20.956   2.150  0.00  0.00    +0.196 C 
ATOM     27  C   UNL     1     -35.948  20.205   1.018  0.00  0.00    +0.172 C 
ATOM     28  C   UNL     1     -36.064  22.406  -0.192  0.00  0.00    +0.245 C 
ATOM     29  C   UNL     1     -35.760  20.917  -0.323  0.00  0.00    +0.178 C 
BRANCH  26  30
ATOM     30  O   UNL     1     -35.668  20.391   3.391  0.00  0.00    -0.378 OA
ATOM     31  H   UNL     1     -35.703  19.424   3.310  0.00  0.00    +0.211 HD
ENDBRANCH  26  30
BRANCH  27  32
ATOM     32  O   UNL     1     -35.387  18.895   0.943  0.00  0.00    -0.379 OA
ATOM     33  H   UNL     1     -35.977  18.265   1.385  0.00  0.00    +0.211 HD
ENDBRANCH  27  32
BRANCH  29  34
ATOM     34  O   UNL     1     -36.657  20.359  -1.283  0.00  0.00    -0.379 OA
ATOM     35  H   UNL     1     -36.376  19.455  -1.500  0.00  0.00    +0.211 HD
ENDBRANCH  29  34
BRANCH  28  37
ATOM     36  O   UNL     1     -35.420  22.647  -2.505  0.00  0.00    -0.247 OA
ATOM     37  C   UNL     1     -35.625  23.150  -1.410  0.00  0.00    +0.344 C 
BRANCH  37  38
ATOM     38  O   UNL     1     -35.479  24.471  -1.138  0.00  0.00    -0.478 OA
ATOM     39  H   UNL     1     -35.275  24.749  -0.268  0.00  0.00    +0.295 HD
ENDBRANCH  37  38
ENDBRANCH  28  37
ENDBRANCH  23  25
ENDBRANCH   4  23
TORSDOF 9
ENDMDL
MODEL 4
REMARK VINA RESULT:      -6.6      4.483      8.784
REMARK  Name = 57369869
REMARK  9 active torsions:
REMARK  status: ('A' for Active; 'I' for Inactive)
REMARK    1  A    between atoms: C_4  and  C_21
REMARK    2  A    between atoms: C_4  and  O_23
REMARK    3  A    between atoms: C_18  and  O_19
REMARK    4  A    between atoms: O_23  and  C_25
REMARK    5  A    between atoms: C_26  and  O_30
REMARK    6  A    between atoms: C_27  and  O_32
REMARK    7  A    between atoms: C_28  and  C_37
REMARK    8  A    between atoms: C_29  and  O_34
REMARK    9  A    between atoms: C_37  and  O_38
REMARK                            x       y       z     vdW  Elec       q    Type
REMARK                         _______ _______ _______ _____ _____    ______ ____
ROOT
ATOM      1  C   UNL     1     -35.036  25.317   4.113  0.00  0.00    +0.034 C 
ATOM      2  C   UNL     1     -35.839  26.067   3.021  0.00  0.00    +0.004 C 
ATOM      3  C   UNL     1     -35.380  27.516   2.840  0.00  0.00    +0.004 C 
ATOM      4  C   UNL     1     -35.798  23.958   4.109  0.00  0.00    +0.149 C 
ATOM      5  C   UNL     1     -33.884  27.523   2.405  0.00  0.00    +0.022 C 
ATOM      6  C   UNL     1     -33.565  25.288   3.661  0.00  0.00    +0.004 C 
ATOM      7  C   UNL     1     -37.293  25.801   3.400  0.00  0.00    +0.004 C 
ATOM      8  C   UNL     1     -37.283  24.383   4.008  0.00  0.00    +0.040 C 
ATOM      9  C   UNL     1     -33.012  26.699   3.387  0.00  0.00    +0.004 C 
ATOM     10  C   UNL     1     -36.205  28.266   1.791  0.00  0.00    +0.005 C 
ATOM     11  C   UNL     1     -35.126  25.994   5.512  0.00  0.00    +0.003 C 
ATOM     12  C   UNL     1     -33.393  28.943   2.134  0.00  0.00    -0.026 C 
ATOM     13  C   UNL     1     -35.799  29.737   1.766  0.00  0.00    +0.026 C 
ATOM     14  C   UNL     1     -34.307  29.964   1.792  0.00  0.00    -0.023 C 
ATOM     15  C   UNL     1     -32.021  29.250   2.130  0.00  0.00    -0.001 C 
ATOM     16  C   UNL     1     -33.837  31.259   1.512  0.00  0.00    +0.032 C 
ATOM     17  C   UNL     1     -31.567  30.539   1.842  0.00  0.00    +0.036 C 
ATOM     18  C   UNL     1     -32.476  31.545   1.537  0.00  0.00    +0.133 C 
ENDROOT
BRANCH  18  19
ATOM     19  O   UNL     1     -32.035  32.802   1.259  0.00  0.00    -0.506 OA
ATOM     20  H   UNL     1     -31.145  32.939   1.001  0.00  0.00    +0.292 HD
ENDBRANCH  18  19
BRANCH   4  21
ATOM     21  C   UNL     1     -35.549  23.131   5.296  0.00  0.00    -0.052 C 
ATOM     22  C   UNL     1     -35.346  22.454   6.267  0.00  0.00    -0.012 C 
ENDBRANCH   4  21
BRANCH   4  23
ATOM     23  O   UNL     1     -35.452  23.171   2.968  0.00  0.00    -0.321 OA
BRANCH  23  25
ATOM     24  O   UNL     1     -37.108  22.926   1.341  0.00  0.00    -0.317 OA
ATOM     25  C   UNL     1     -36.555  22.377   2.534  0.00  0.00    +0.267 C 
ATOM     26  C   UNL     1     -36.041  20.961   2.274  0.00  0.00    +0.196 C 
ATOM     27  C   UNL     1     -37.134  20.072   1.683  0.00  0.00    +0.172 C 
ATOM     28  C   UNL     1     -38.229  22.185   0.873  0.00  0.00    +0.245 C 
ATOM     29  C   UNL     1     -37.835  20.758   0.508  0.00  0.00    +0.178 C 
BRANCH  26  30
ATOM     30  O   UNL     1     -35.606  20.380   3.503  0.00  0.00    -0.378 OA
ATOM     31  H   UNL     1     -35.087  19.582   3.318  0.00  0.00    +0.211 HD
ENDBRANCH  26  30
BRANCH  27  32
ATOM     32  O   UNL     1     -36.524  18.862   1.231  0.00  0.00    -0.379 OA
ATOM     33  H   UNL     1     -36.548  18.830   0.263  0.00  0.00    +0.211 HD
ENDBRANCH  27  32
BRANCH  29  34
ATOM     34  O   UNL     1     -39.021  20.034   0.179  0.00  0.00    -0.379 OA
ATOM     35  H   UNL     1     -39.735  20.660  -0.023  0.00  0.00    +0.211 HD
ENDBRANCH  29  34
BRANCH  28  37
ATOM     36  O   UNL     1     -38.905  22.451  -1.429  0.00  0.00    -0.247 OA
ATOM     37  C   UNL     1     -38.661  22.946  -0.338  0.00  0.00    +0.344 C 
BRANCH  37  38
ATOM     38  O   UNL     1     -38.745  24.272  -0.066  0.00  0.00    -0.478 OA
ATOM     39  H   UNL     1     -37.976  24.749   0.178  0.00  0.00    +0.295 HD
ENDBRANCH  37  38
ENDBRANCH  28  37
ENDBRANCH  23  25
ENDBRANCH   4  23
TORSDOF 9
ENDMDL
MODEL 5
REMARK VINA RESULT:      -6.5      1.606      1.671
REMARK  Name = 57369869
REMARK  9 active torsions:
REMARK  status: ('A' for Active; 'I' for Inactive)
REMARK    1  A    between atoms: C_4  and  C_21
REMARK    2  A    between atoms: C_4  and  O_23
REMARK    3  A    between atoms: C_18  and  O_19
REMARK    4  A    between atoms: O_23  and  C_25
REMARK    5  A    between atoms: C_26  and  O_30
REMARK    6  A    between atoms: C_27  and  O_32
REMARK    7  A    between atoms: C_28  and  C_37
REMARK    8  A    between atoms: C_29  and  O_34
REMARK    9  A    between atoms: C_37  and  O_38
REMARK                            x       y       z     vdW  Elec       q    Type
REMARK                         _______ _______ _______ _____ _____    ______ ____
ROOT
ATOM      1  C   UNL     1     -34.517  21.713  -1.280  0.00  0.00    +0.034 C 
ATOM      2  C   UNL     1     -34.464  20.977   0.082  0.00  0.00    +0.004 C 
ATOM      3  C   UNL     1     -33.387  19.890   0.126  0.00  0.00    +0.004 C 
ATOM      4  C   UNL     1     -35.738  22.645  -1.026  0.00  0.00    +0.149 C 
ATOM      5  C   UNL     1     -31.994  20.548  -0.102  0.00  0.00    +0.022 C 
ATOM      6  C   UNL     1     -33.153  22.397  -1.484  0.00  0.00    +0.004 C 
ATOM      7  C   UNL     1     -35.916  20.580   0.331  0.00  0.00    +0.004 C 
ATOM      8  C   UNL     1     -36.744  21.722  -0.295  0.00  0.00    +0.040 C 
ATOM      9  C   UNL     1     -31.982  21.400  -1.397  0.00  0.00    +0.004 C 
ATOM     10  C   UNL     1     -33.368  19.137   1.459  0.00  0.00    +0.005 C 
ATOM     11  C   UNL     1     -34.792  20.759  -2.479  0.00  0.00    +0.003 C 
ATOM     12  C   UNL     1     -30.871  19.520   0.009  0.00  0.00    -0.026 C 
ATOM     13  C   UNL     1     -32.380  17.975   1.384  0.00  0.00    +0.026 C 
ATOM     14  C   UNL     1     -31.058  18.332   0.749  0.00  0.00    -0.023 C 
ATOM     15  C   UNL     1     -29.602  19.765  -0.545  0.00  0.00    -0.001 C 
ATOM     16  C   UNL     1     -30.004  17.409   0.871  0.00  0.00    +0.032 C 
ATOM     17  C   UNL     1     -28.561  18.844  -0.409  0.00  0.00    +0.036 C 
ATOM     18  C   UNL     1     -28.763  17.663   0.296  0.00  0.00    +0.133 C 
ENDROOT
BRANCH  18  19
ATOM     19  O   UNL     1     -27.751  16.764   0.426  0.00  0.00    -0.506 OA
ATOM     20  H   UNL     1     -27.434  16.537   1.278  0.00  0.00    +0.292 HD
ENDBRANCH  18  19
BRANCH   4  21
ATOM     21  C   UNL     1     -36.317  23.218  -2.248  0.00  0.00    -0.052 C 
ATOM     22  C   UNL     1     -36.790  23.685  -3.247  0.00  0.00    -0.012 C 
ENDBRANCH   4  21
BRANCH   4  23
ATOM     23  O   UNL     1     -35.391  23.737  -0.172  0.00  0.00    -0.321 OA
BRANCH  23  25
ATOM     24  O   UNL     1     -35.677  23.587   2.139  0.00  0.00    -0.317 OA
ATOM     25  C   UNL     1     -36.322  23.871   0.900  0.00  0.00    +0.267 C 
ATOM     26  C   UNL     1     -36.842  25.308   0.894  0.00  0.00    +0.196 C 
ATOM     27  C   UNL     1     -37.752  25.576   2.091  0.00  0.00    +0.172 C 
ATOM     28  C   UNL     1     -36.566  23.684   3.246  0.00  0.00    +0.245 C 
ATOM     29  C   UNL     1     -37.110  25.101   3.396  0.00  0.00    +0.178 C 
BRANCH  26  30
ATOM     30  O   UNL     1     -37.592  25.536  -0.299  0.00  0.00    -0.378 OA
ATOM     31  H   UNL     1     -38.472  25.873  -0.068  0.00  0.00    +0.211 HD
ENDBRANCH  26  30
BRANCH  27  32
ATOM     32  O   UNL     1     -37.988  26.982   2.162  0.00  0.00    -0.379 OA
ATOM     33  H   UNL     1     -37.657  27.407   1.356  0.00  0.00    +0.211 HD
ENDBRANCH  27  32
BRANCH  29  34
ATOM     34  O   UNL     1     -38.092  25.098   4.432  0.00  0.00    -0.379 OA
ATOM     35  H   UNL     1     -38.810  24.491   4.194  0.00  0.00    +0.211 HD
ENDBRANCH  29  34
BRANCH  28  37
ATOM     36  O   UNL     1     -34.559  23.706   4.587  0.00  0.00    -0.247 OA
ATOM     37  C   UNL     1     -35.704  23.317   4.410  0.00  0.00    +0.344 C 
BRANCH  37  38
ATOM     38  O   UNL     1     -36.365  22.485   5.252  0.00  0.00    -0.478 OA
ATOM     39  H   UNL     1     -37.175  22.756   5.637  0.00  0.00    +0.295 HD
ENDBRANCH  37  38
ENDBRANCH  28  37
ENDBRANCH  23  25
ENDBRANCH   4  23
TORSDOF 9
ENDMDL
MODEL 6
REMARK VINA RESULT:      -6.3     14.068     15.517
REMARK  Name = 57369869
REMARK  9 active torsions:
REMARK  status: ('A' for Active; 'I' for Inactive)
REMARK    1  A    between atoms: C_4  and  C_21
REMARK    2  A    between atoms: C_4  and  O_23
REMARK    3  A    between atoms: C_18  and  O_19
REMARK    4  A    between atoms: O_23  and  C_25
REMARK    5  A    between atoms: C_26  and  O_30
REMARK    6  A    between atoms: C_27  and  O_32
REMARK    7  A    between atoms: C_28  and  C_37
REMARK    8  A    between atoms: C_29  and  O_34
REMARK    9  A    between atoms: C_37  and  O_38
REMARK                            x       y       z     vdW  Elec       q    Type
REMARK                         _______ _______ _______ _____ _____    ______ ____
ROOT
ATOM      1  C   UNL     1     -45.393  31.993   3.606  0.00  0.00    +0.034 C 
ATOM      2  C   UNL     1     -44.466  31.817   4.834  0.00  0.00    +0.004 C 
ATOM      3  C   UNL     1     -45.037  30.848   5.873  0.00  0.00    +0.004 C 
ATOM      4  C   UNL     1     -44.591  33.076   2.826  0.00  0.00    +0.149 C 
ATOM      5  C   UNL     1     -45.210  29.446   5.216  0.00  0.00    +0.022 C 
ATOM      6  C   UNL     1     -45.530  30.614   2.934  0.00  0.00    +0.004 C 
ATOM      7  C   UNL     1     -44.160  33.250   5.258  0.00  0.00    +0.004 C 
ATOM      8  C   UNL     1     -44.133  34.050   3.939  0.00  0.00    +0.040 C 
ATOM      9  C   UNL     1     -46.042  29.539   3.911  0.00  0.00    +0.004 C 
ATOM     10  C   UNL     1     -44.137  30.712   7.104  0.00  0.00    +0.005 C 
ATOM     11  C   UNL     1     -46.810  32.519   3.980  0.00  0.00    +0.003 C 
ATOM     12  C   UNL     1     -45.705  28.418   6.230  0.00  0.00    -0.026 C 
ATOM     13  C   UNL     1     -44.830  29.855   8.160  0.00  0.00    +0.026 C 
ATOM     14  C   UNL     1     -45.479  28.607   7.611  0.00  0.00    -0.023 C 
ATOM     15  C   UNL     1     -46.316  27.222   5.815  0.00  0.00    -0.001 C 
ATOM     16  C   UNL     1     -45.910  27.636   8.531  0.00  0.00    +0.032 C 
ATOM     17  C   UNL     1     -46.732  26.261   6.739  0.00  0.00    +0.036 C 
ATOM     18  C   UNL     1     -46.534  26.470   8.098  0.00  0.00    +0.133 C 
ENDROOT
BRANCH  18  19
ATOM     19  O   UNL     1     -46.941  25.536   9.000  0.00  0.00    -0.506 OA
ATOM     20  H   UNL     1     -46.412  25.349   9.750  0.00  0.00    +0.292 HD
ENDBRANCH  18  19
BRANCH   4  21
ATOM     21  C   UNL     1     -45.370  33.765   1.789  0.00  0.00    -0.052 C 
ATOM     22  C   UNL     1     -46.007  34.329   0.942  0.00  0.00    -0.012 C 
ENDBRANCH   4  21
BRANCH   4  23
ATOM     23  O   UNL     1     -43.444  32.514   2.186  0.00  0.00    -0.321 OA
BRANCH  23  25
ATOM     24  O   UNL     1     -41.752  34.121   2.263  0.00  0.00    -0.317 OA
ATOM     25  C   UNL     1     -42.734  33.500   1.437  0.00  0.00    +0.267 C 
ATOM     26  C   UNL     1     -42.064  32.799   0.256  0.00  0.00    +0.196 C 
ATOM     27  C   UNL     1     -41.176  33.762  -0.530  0.00  0.00    +0.172 C 
ATOM     28  C   UNL     1     -41.026  35.132   1.572  0.00  0.00    +0.245 C 
ATOM     29  C   UNL     1     -40.248  34.549   0.397  0.00  0.00    +0.178 C 
BRANCH  26  30
ATOM     30  O   UNL     1     -43.065  32.292  -0.625  0.00  0.00    -0.378 OA
ATOM     31  H   UNL     1     -43.694  31.749  -0.123  0.00  0.00    +0.211 HD
ENDBRANCH  26  30
BRANCH  27  32
ATOM     32  O   UNL     1     -40.393  32.995  -1.446  0.00  0.00    -0.379 OA
ATOM     33  H   UNL     1     -40.978  32.437  -1.981  0.00  0.00    +0.211 HD
ENDBRANCH  27  32
BRANCH  29  34
ATOM     34  O   UNL     1     -39.657  35.626  -0.328  0.00  0.00    -0.379 OA
ATOM     35  H   UNL     1     -39.049  36.111   0.252  0.00  0.00    +0.211 HD
ENDBRANCH  29  34
BRANCH  28  37
ATOM     36  O   UNL     1     -38.949  36.024   2.418  0.00  0.00    -0.247 OA
ATOM     37  C   UNL     1     -40.099  35.661   2.617  0.00  0.00    +0.344 C 
BRANCH  37  38
ATOM     38  O   UNL     1     -40.706  35.685   3.829  0.00  0.00    -0.478 OA
ATOM     39  H   UNL     1     -41.416  35.100   4.008  0.00  0.00    +0.295 HD
ENDBRANCH  37  38
ENDBRANCH  28  37
ENDBRANCH  23  25
ENDBRANCH   4  23
TORSDOF 9
ENDMDL
MODEL 7
REMARK VINA RESULT:      -6.1      4.643      7.211
REMARK  Name = 57369869
REMARK  9 active torsions:
REMARK  status: ('A' for Active; 'I' for Inactive)
REMARK    1  A    between atoms: C_4  and  C_21
REMARK    2  A    between atoms: C_4  and  O_23
REMARK    3  A    between atoms: C_18  and  O_19
REMARK    4  A    between atoms: O_23  and  C_25
REMARK    5  A    between atoms: C_26  and  O_30
REMARK    6  A    between atoms: C_27  and  O_32
REMARK    7  A    between atoms: C_28  and  C_37
REMARK    8  A    between atoms: C_29  and  O_34
REMARK    9  A    between atoms: C_37  and  O_38
REMARK                            x       y       z     vdW  Elec       q    Type
REMARK                         _______ _______ _______ _____ _____    ______ ____
ROOT
ATOM      1  C   UNL     1     -33.816  26.923   3.305  0.00  0.00    +0.034 C 
ATOM      2  C   UNL     1     -33.666  25.662   4.193  0.00  0.00    +0.004 C 
ATOM      3  C   UNL     1     -34.654  24.554   3.819  0.00  0.00    +0.004 C 
ATOM      4  C   UNL     1     -32.773  27.852   3.993  0.00  0.00    +0.149 C 
ATOM      5  C   UNL     1     -34.393  24.119   2.346  0.00  0.00    +0.022 C 
ATOM      6  C   UNL     1     -33.517  26.500   1.855  0.00  0.00    +0.004 C 
ATOM      7  C   UNL     1     -33.694  26.220   5.612  0.00  0.00    +0.004 C 
ATOM      8  C   UNL     1     -33.013  27.600   5.502  0.00  0.00    +0.040 C 
ATOM      9  C   UNL     1     -34.417  25.340   1.389  0.00  0.00    +0.004 C 
ATOM     10  C   UNL     1     -34.530  23.327   4.727  0.00  0.00    +0.005 C 
ATOM     11  C   UNL     1     -35.240  27.549   3.369  0.00  0.00    +0.003 C 
ATOM     12  C   UNL     1     -35.300  22.960   1.942  0.00  0.00    -0.026 C 
ATOM     13  C   UNL     1     -35.636  22.327   4.400  0.00  0.00    +0.026 C 
ATOM     14  C   UNL     1     -35.843  22.100   2.922  0.00  0.00    -0.023 C 
ATOM     15  C   UNL     1     -35.547  22.666   0.589  0.00  0.00    -0.001 C 
ATOM     16  C   UNL     1     -36.649  21.016   2.533  0.00  0.00    +0.032 C 
ATOM     17  C   UNL     1     -36.343  21.580   0.217  0.00  0.00    +0.036 C 
ATOM     18  C   UNL     1     -36.898  20.757   1.189  0.00  0.00    +0.133 C 
ENDROOT
BRANCH  18  19
ATOM     19  O   UNL     1     -37.676  19.701   0.828  0.00  0.00    -0.506 OA
ATOM     20  H   UNL     1     -37.928  19.065   1.468  0.00  0.00    +0.292 HD
ENDBRANCH  18  19
BRANCH   4  21
ATOM     21  C   UNL     1     -32.921  29.272   3.650  0.00  0.00    -0.052 C 
ATOM     22  C   UNL     1     -33.043  30.433   3.369  0.00  0.00    -0.012 C 
ENDBRANCH   4  21
BRANCH   4  23
ATOM     23  O   UNL     1     -31.437  27.475   3.657  0.00  0.00    -0.321 OA
BRANCH  23  25
ATOM     24  O   UNL     1     -29.871  27.676   5.375  0.00  0.00    -0.317 OA
ATOM     25  C   UNL     1     -30.485  28.339   4.274  0.00  0.00    +0.267 C 
ATOM     26  C   UNL     1     -29.433  28.704   3.225  0.00  0.00    +0.196 C 
ATOM     27  C   UNL     1     -28.301  29.528   3.836  0.00  0.00    +0.172 C 
ATOM     28  C   UNL     1     -28.924  28.501   6.045  0.00  0.00    +0.245 C 
ATOM     29  C   UNL     1     -27.773  28.884   5.120  0.00  0.00    +0.178 C 
BRANCH  26  30
ATOM     30  O   UNL     1     -30.042  29.475   2.191  0.00  0.00    -0.378 OA
ATOM     31  H   UNL     1     -30.601  28.900   1.645  0.00  0.00    +0.211 HD
ENDBRANCH  26  30
BRANCH  27  32
ATOM     32  O   UNL     1     -27.246  29.610   2.878  0.00  0.00    -0.379 OA
ATOM     33  H   UNL     1     -26.501  30.099   3.258  0.00  0.00    +0.211 HD
ENDBRANCH  27  32
BRANCH  29  34
ATOM     34  O   UNL     1     -26.938  29.816   5.806  0.00  0.00    -0.379 OA
ATOM     35  H   UNL     1     -27.025  29.685   6.763  0.00  0.00    +0.211 HD
ENDBRANCH  29  34
BRANCH  28  37
ATOM     36  O   UNL     1     -28.415  26.413   7.142  0.00  0.00    -0.247 OA
ATOM     37  C   UNL     1     -28.445  27.634   7.163  0.00  0.00    +0.344 C 
BRANCH  37  38
ATOM     38  O   UNL     1     -28.046  28.389   8.217  0.00  0.00    -0.478 OA
ATOM     39  H   UNL     1     -27.416  29.071   8.092  0.00  0.00    +0.295 HD
ENDBRANCH  37  38
ENDBRANCH  28  37
ENDBRANCH  23  25
ENDBRANCH   4  23
TORSDOF 9
ENDMDL
MODEL 8
REMARK VINA RESULT:      -6.0      3.968      8.699
REMARK  Name = 57369869
REMARK  9 active torsions:
REMARK  status: ('A' for Active; 'I' for Inactive)
REMARK    1  A    between atoms: C_4  and  C_21
REMARK    2  A    between atoms: C_4  and  O_23
REMARK    3  A    between atoms: C_18  and  O_19
REMARK    4  A    between atoms: O_23  and  C_25
REMARK    5  A    between atoms: C_26  and  O_30
REMARK    6  A    between atoms: C_27  and  O_32
REMARK    7  A    between atoms: C_28  and  C_37
REMARK    8  A    between atoms: C_29  and  O_34
REMARK    9  A    between atoms: C_37  and  O_38
REMARK                            x       y       z     vdW  Elec       q    Type
REMARK                         _______ _______ _______ _____ _____    ______ ____
ROOT
ATOM      1  C   UNL     1     -33.175  20.317  -0.513  0.00  0.00    +0.034 C 
ATOM      2  C   UNL     1     -34.109  19.849   0.630  0.00  0.00    +0.004 C 
ATOM      3  C   UNL     1     -34.473  20.979   1.597  0.00  0.00    +0.004 C 
ATOM      4  C   UNL     1     -32.931  18.953  -1.225  0.00  0.00    +0.149 C 
ATOM      5  C   UNL     1     -35.223  22.095   0.810  0.00  0.00    +0.022 C 
ATOM      6  C   UNL     1     -33.934  21.390  -1.314  0.00  0.00    +0.004 C 
ATOM      7  C   UNL     1     -33.407  18.612   1.181  0.00  0.00    +0.004 C 
ATOM      8  C   UNL     1     -32.730  17.968  -0.048  0.00  0.00    +0.040 C 
ATOM      9  C   UNL     1     -34.406  22.556  -0.425  0.00  0.00    +0.004 C 
ATOM     10  C   UNL     1     -35.361  20.502   2.749  0.00  0.00    +0.005 C 
ATOM     11  C   UNL     1     -31.834  20.918   0.000  0.00  0.00    +0.003 C 
ATOM     12  C   UNL     1     -35.680  23.216   1.741  0.00  0.00    -0.026 C 
ATOM     13  C   UNL     1     -35.562  21.635   3.751  0.00  0.00    +0.026 C 
ATOM     14  C   UNL     1     -35.876  22.969   3.118  0.00  0.00    -0.023 C 
ATOM     15  C   UNL     1     -36.001  24.491   1.243  0.00  0.00    -0.001 C 
ATOM     16  C   UNL     1     -36.330  24.002   3.957  0.00  0.00    +0.032 C 
ATOM     17  C   UNL     1     -36.459  25.505   2.086  0.00  0.00    +0.036 C 
ATOM     18  C   UNL     1     -36.619  25.262   3.445  0.00  0.00    +0.133 C 
ENDROOT
BRANCH  18  19
ATOM     19  O   UNL     1     -37.062  26.250   4.268  0.00  0.00    -0.506 OA
ATOM     20  H   UNL     1     -37.293  27.086   3.914  0.00  0.00    +0.292 HD
ENDBRANCH  18  19
BRANCH   4  21
ATOM     21  C   UNL     1     -31.778  18.953  -2.135  0.00  0.00    -0.052 C 
ATOM     22  C   UNL     1     -30.835  18.954  -2.878  0.00  0.00    -0.012 C 
ENDBRANCH   4  21
BRANCH   4  23
ATOM     23  O   UNL     1     -34.070  18.553  -1.989  0.00  0.00    -0.321 OA
BRANCH  23  25
ATOM     24  O   UNL     1     -35.718  17.207  -1.031  0.00  0.00    -0.317 OA
ATOM     25  C   UNL     1     -34.451  17.213  -1.685  0.00  0.00    +0.267 C 
ATOM     26  C   UNL     1     -34.533  16.438  -3.000  0.00  0.00    +0.196 C 
ATOM     27  C   UNL     1     -35.060  15.021  -2.779  0.00  0.00    +0.172 C 
ATOM     28  C   UNL     1     -36.140  15.893  -0.683  0.00  0.00    +0.245 C 
ATOM     29  C   UNL     1     -36.328  15.026  -1.923  0.00  0.00    +0.178 C 
BRANCH  26  30
ATOM     30  O   UNL     1     -33.232  16.347  -3.579  0.00  0.00    -0.378 OA
ATOM     31  H   UNL     1     -33.230  16.789  -4.442  0.00  0.00    +0.211 HD
ENDBRANCH  26  30
BRANCH  27  32
ATOM     32  O   UNL     1     -35.351  14.453  -4.056  0.00  0.00    -0.379 OA
ATOM     33  H   UNL     1     -35.666  13.543  -3.940  0.00  0.00    +0.211 HD
ENDBRANCH  27  32
BRANCH  29  34
ATOM     34  O   UNL     1     -36.617  13.694  -1.500  0.00  0.00    -0.379 OA
ATOM     35  H   UNL     1     -35.787  13.203  -1.391  0.00  0.00    +0.211 HD
ENDBRANCH  29  34
BRANCH  28  37
ATOM     36  O   UNL     1     -38.391  15.353  -0.000  0.00  0.00    -0.247 OA
ATOM     37  C   UNL     1     -37.444  16.125   0.010  0.00  0.00    +0.344 C 
BRANCH  37  38
ATOM     38  O   UNL     1     -37.438  17.317   0.655  0.00  0.00    -0.478 OA
ATOM     39  H   UNL     1     -37.422  18.115   0.164  0.00  0.00    +0.295 HD
ENDBRANCH  37  38
ENDBRANCH  28  37
ENDBRANCH  23  25
ENDBRANCH   4  23
TORSDOF 9
ENDMDL
MODEL 9
REMARK VINA RESULT:      -6.0      4.577      7.462
REMARK  Name = 57369869
REMARK  9 active torsions:
REMARK  status: ('A' for Active; 'I' for Inactive)
REMARK    1  A    between atoms: C_4  and  C_21
REMARK    2  A    between atoms: C_4  and  O_23
REMARK    3  A    between atoms: C_18  and  O_19
REMARK    4  A    between atoms: O_23  and  C_25
REMARK    5  A    between atoms: C_26  and  O_30
REMARK    6  A    between atoms: C_27  and  O_32
REMARK    7  A    between atoms: C_28  and  C_37
REMARK    8  A    between atoms: C_29  and  O_34
REMARK    9  A    between atoms: C_37  and  O_38
REMARK                            x       y       z     vdW  Elec       q    Type
REMARK                         _______ _______ _______ _____ _____    ______ ____
ROOT
ATOM      1  C   UNL     1     -35.735  23.726   1.284  0.00  0.00    +0.034 C 
ATOM      2  C   UNL     1     -36.429  24.123   2.610  0.00  0.00    +0.004 C 
ATOM      3  C   UNL     1     -35.447  24.657   3.655  0.00  0.00    +0.004 C 
ATOM      4  C   UNL     1     -36.959  23.152   0.510  0.00  0.00    +0.149 C 
ATOM      5  C   UNL     1     -34.753  25.934   3.092  0.00  0.00    +0.022 C 
ATOM      6  C   UNL     1     -35.085  24.997   0.708  0.00  0.00    +0.004 C 
ATOM      7  C   UNL     1     -37.271  22.899   2.954  0.00  0.00    +0.004 C 
ATOM      8  C   UNL     1     -37.707  22.329   1.588  0.00  0.00    +0.040 C 
ATOM      9  C   UNL     1     -34.116  25.659   1.705  0.00  0.00    +0.004 C 
ATOM     10  C   UNL     1     -36.131  25.008   4.979  0.00  0.00    +0.005 C 
ATOM     11  C   UNL     1     -34.641  22.634   1.470  0.00  0.00    +0.003 C 
ATOM     12  C   UNL     1     -33.816  26.555   4.125  0.00  0.00    -0.026 C 
ATOM     13  C   UNL     1     -35.082  25.389   6.020  0.00  0.00    +0.026 C 
ATOM     14  C   UNL     1     -34.013  26.322   5.504  0.00  0.00    -0.023 C 
ATOM     15  C   UNL     1     -32.794  27.441   3.741  0.00  0.00    -0.001 C 
ATOM     16  C   UNL     1     -33.164  26.928   6.446  0.00  0.00    +0.032 C 
ATOM     17  C   UNL     1     -31.962  28.044   4.688  0.00  0.00    +0.036 C 
ATOM     18  C   UNL     1     -32.144  27.783   6.040  0.00  0.00    +0.133 C 
ENDROOT
BRANCH  18  19
ATOM     19  O   UNL     1     -31.333  28.367   6.964  0.00  0.00    -0.506 OA
ATOM     20  H   UNL     1     -30.408  28.403   6.818  0.00  0.00    +0.292 HD
ENDBRANCH  18  19
BRANCH   4  21
ATOM     21  C   UNL     1     -36.599  22.327  -0.650  0.00  0.00    -0.052 C 
ATOM     22  C   UNL     1     -36.305  21.653  -1.599  0.00  0.00    -0.012 C 
ENDBRANCH   4  21
BRANCH   4  23
ATOM     23  O   UNL     1     -37.811  24.196   0.036  0.00  0.00    -0.321 OA
BRANCH  23  25
ATOM     24  O   UNL     1     -39.483  25.102   1.390  0.00  0.00    -0.317 OA
ATOM     25  C   UNL     1     -39.146  24.031   0.512  0.00  0.00    +0.267 C 
ATOM     26  C   UNL     1     -40.079  24.028  -0.699  0.00  0.00    +0.196 C 
ATOM     27  C   UNL     1     -41.545  23.983  -0.271  0.00  0.00    +0.172 C 
ATOM     28  C   UNL     1     -40.800  24.977   1.915  0.00  0.00    +0.245 C 
ATOM     29  C   UNL     1     -41.844  25.029   0.805  0.00  0.00    +0.178 C 
BRANCH  26  30
ATOM     30  O   UNL     1     -39.810  22.880  -1.502  0.00  0.00    -0.378 OA
ATOM     31  H   UNL     1     -40.482  22.808  -2.199  0.00  0.00    +0.211 HD
ENDBRANCH  26  30
BRANCH  27  32
ATOM     32  O   UNL     1     -42.350  24.240  -1.421  0.00  0.00    -0.379 OA
ATOM     33  H   UNL     1     -41.828  24.725  -2.079  0.00  0.00    +0.211 HD
ENDBRANCH  27  32
BRANCH  29  34
ATOM     34  O   UNL     1     -43.123  24.763   1.379  0.00  0.00    -0.379 OA
ATOM     35  H   UNL     1     -43.475  23.935   1.015  0.00  0.00    +0.211 HD
ENDBRANCH  29  34
BRANCH  28  37
ATOM     36  O   UNL     1     -41.964  26.745   3.074  0.00  0.00    -0.247 OA
ATOM     37  C   UNL     1     -40.921  26.160   2.819  0.00  0.00    +0.344 C 
BRANCH  37  38
ATOM     38  O   UNL     1     -39.711  26.505   3.322  0.00  0.00    -0.478 OA
ATOM     39  H   UNL     1     -38.990  26.659   2.744  0.00  0.00    +0.295 HD
ENDBRANCH  37  38
ENDBRANCH  28  37
ENDBRANCH  23  25
ENDBRANCH   4  23
TORSDOF 9
ENDMDL
