MODEL 1
REMARK VINA RESULT:      -6.3      0.000      0.000
REMARK  Name = 55906
REMARK  7 active torsions:
REMARK  status: ('A' for Active; 'I' for Inactive)
REMARK    1  A    between atoms: C_1  and  C_16
REMARK    2  A    between atoms: C_4  and  N_7
REMARK    3  A    between atoms: N_7  and  C_10
REMARK    4  A    between atoms: C_16  and  O_17
REMARK    5  A    between atoms: O_17  and  C_18
REMARK    6  A    between atoms: C_19  and  C_25
REMARK    7  A    between atoms: C_25  and  O_26
REMARK                            x       y       z     vdW  Elec       q    Type
REMARK                         _______ _______ _______ _____ _____    ______ ____
ROOT
ATOM      1  C   UNL     1     -34.796  24.301   4.483  0.00  0.00    +0.076 C 
ATOM      2  C   UNL     1     -34.810  24.062   3.108  0.00  0.00    +0.008 C 
ATOM      3  C   UNL     1     -35.064  23.262   5.374  0.00  0.00    +0.008 C 
ATOM      4  C   UNL     1     -35.360  21.745   3.517  0.00  0.00    +0.084 C 
ATOM      5  C   UNL     1     -35.092  22.784   2.626  0.00  0.00    +0.019 C 
ATOM      6  C   UNL     1     -35.346  21.984   4.891  0.00  0.00    +0.019 C 
ENDROOT
BRANCH   1   8
ATOM      7  O   UNL     1     -35.306  26.337   5.615  0.00  0.00    -0.244 OA
ATOM      8  C   UNL     1     -34.502  25.633   4.986  0.00  0.00    +0.346 C 
BRANCH   8   9
ATOM      9  O   UNL     1     -33.203  26.015   4.661  0.00  0.00    -0.421 OA
BRANCH   9  10
ATOM     10  C   UNL     1     -33.109  27.280   4.074  0.00  0.00    +0.155 C 
ATOM     11  C   UNL     1     -32.466  28.296   4.746  0.00  0.00    +0.110 C 
ATOM     12  C   UNL     1     -33.674  27.457   2.829  0.00  0.00    +0.038 C 
ATOM     13  C   UNL     1     -32.384  29.552   4.143  0.00  0.00    +0.010 C 
ATOM     14  C   UNL     1     -33.592  28.712   2.227  0.00  0.00    +0.003 C 
ATOM     15  C   UNL     1     -32.947  29.760   2.884  0.00  0.00    +0.000 C 
BRANCH  11  17
ATOM     16  O   UNL     1     -32.491  28.196   7.127  0.00  0.00    -0.245 OA
ATOM     17  C   UNL     1     -31.872  28.102   6.061  0.00  0.00    +0.344 C 
BRANCH  17  18
ATOM     18  O   UNL     1     -30.541  27.800   5.970  0.00  0.00    -0.441 OA
ATOM     19  C   UNL     1     -29.621  28.807   6.401  0.00  0.00    +0.256 C 
ENDBRANCH  17  18
ENDBRANCH  11  17
ENDBRANCH   9  10
ENDBRANCH   8   9
ENDBRANCH   1   8
BRANCH   4  20
ATOM     20  N   UNL     1     -35.642  20.464   3.033  0.00  0.00    -0.214 NA
BRANCH  20  23
ATOM     21  N   UNL     1     -36.668  19.358   1.250  0.00  0.00    -0.370 N 
ATOM     22  N   UNL     1     -37.887  20.967   2.315  0.00  0.00    -0.370 N 
ATOM     23  C   UNL     1     -36.686  20.293   2.258  0.00  0.00    +0.193 C 
ATOM     24  H   UNL     1     -35.866  18.808   1.103  0.00  0.00    +0.159 HD
ATOM     25  H   UNL     1     -37.459  19.240   0.674  0.00  0.00    +0.159 HD
ATOM     26  H   UNL     1     -38.029  21.663   2.996  0.00  0.00    +0.159 HD
ATOM     27  H   UNL     1     -38.604  20.751   1.676  0.00  0.00    +0.159 HD
ENDBRANCH  20  23
ENDBRANCH   4  20
TORSDOF 7
ENDMDL
MODEL 2
REMARK VINA RESULT:      -6.1      4.156      7.313
REMARK  Name = 55906
REMARK  7 active torsions:
REMARK  status: ('A' for Active; 'I' for Inactive)
REMARK    1  A    between atoms: C_1  and  C_16
REMARK    2  A    between atoms: C_4  and  N_7
REMARK    3  A    between atoms: N_7  and  C_10
REMARK    4  A    between atoms: C_16  and  O_17
REMARK    5  A    between atoms: O_17  and  C_18
REMARK    6  A    between atoms: C_19  and  C_25
REMARK    7  A    between atoms: C_25  and  O_26
REMARK                            x       y       z     vdW  Elec       q    Type
REMARK                         _______ _______ _______ _____ _____    ______ ____
ROOT
ATOM      1  C   UNL     1     -36.421  26.026   3.827  0.00  0.00    +0.076 C 
ATOM      2  C   UNL     1     -36.073  25.863   5.169  0.00  0.00    +0.008 C 
ATOM      3  C   UNL     1     -35.479  26.501   2.915  0.00  0.00    +0.008 C 
ATOM      4  C   UNL     1     -33.841  26.651   4.685  0.00  0.00    +0.084 C 
ATOM      5  C   UNL     1     -34.783  26.175   5.597  0.00  0.00    +0.019 C 
ATOM      6  C   UNL     1     -34.188  26.814   3.344  0.00  0.00    +0.019 C 
ENDROOT
BRANCH   1   8
ATOM      7  O   UNL     1     -38.445  26.415   2.628  0.00  0.00    -0.244 OA
ATOM      8  C   UNL     1     -37.766  25.701   3.381  0.00  0.00    +0.346 C 
BRANCH   8   9
ATOM      9  O   UNL     1     -38.192  24.488   3.916  0.00  0.00    -0.421 OA
BRANCH   9  10
ATOM     10  C   UNL     1     -38.300  23.456   2.980  0.00  0.00    +0.155 C 
ATOM     11  C   UNL     1     -37.255  22.575   2.814  0.00  0.00    +0.110 C 
ATOM     12  C   UNL     1     -39.467  23.366   2.252  0.00  0.00    +0.038 C 
ATOM     13  C   UNL     1     -37.382  21.552   1.874  0.00  0.00    +0.010 C 
ATOM     14  C   UNL     1     -39.594  22.344   1.312  0.00  0.00    +0.003 C 
ATOM     15  C   UNL     1     -38.551  21.436   1.123  0.00  0.00    +0.000 C 
BRANCH  11  17
ATOM     16  O   UNL     1     -34.923  22.972   3.110  0.00  0.00    -0.245 OA
ATOM     17  C   UNL     1     -36.025  22.677   3.587  0.00  0.00    +0.344 C 
BRANCH  17  18
ATOM     18  O   UNL     1     -36.240  22.407   4.911  0.00  0.00    -0.441 OA
ATOM     19  C   UNL     1     -35.188  21.736   5.611  0.00  0.00    +0.256 C 
ENDBRANCH  17  18
ENDBRANCH  11  17
ENDBRANCH   9  10
ENDBRANCH   8   9
ENDBRANCH   1   8
BRANCH   4  20
ATOM     20  N   UNL     1     -32.547  26.962   5.114  0.00  0.00    -0.214 NA
BRANCH  20  23
ATOM     21  N   UNL     1     -31.992  28.059   7.100  0.00  0.00    -0.370 N 
ATOM     22  N   UNL     1     -32.454  29.365   5.286  0.00  0.00    -0.370 N 
ATOM     23  C   UNL     1     -32.349  28.079   5.772  0.00  0.00    +0.193 C 
ATOM     24  H   UNL     1     -31.883  27.200   7.567  0.00  0.00    +0.159 HD
ATOM     25  H   UNL     1     -31.846  28.904   7.584  0.00  0.00    +0.159 HD
ATOM     26  H   UNL     1     -32.702  29.517   4.347  0.00  0.00    +0.159 HD
ATOM     27  H   UNL     1     -32.279  30.131   5.880  0.00  0.00    +0.159 HD
ENDBRANCH  20  23
ENDBRANCH   4  20
TORSDOF 7
ENDMDL
MODEL 3
REMARK VINA RESULT:      -6.1      4.715      6.447
REMARK  Name = 55906
REMARK  7 active torsions:
REMARK  status: ('A' for Active; 'I' for Inactive)
REMARK    1  A    between atoms: C_1  and  C_16
REMARK    2  A    between atoms: C_4  and  N_7
REMARK    3  A    between atoms: N_7  and  C_10
REMARK    4  A    between atoms: C_16  and  O_17
REMARK    5  A    between atoms: O_17  and  C_18
REMARK    6  A    between atoms: C_19  and  C_25
REMARK    7  A    between atoms: C_25  and  O_26
REMARK                            x       y       z     vdW  Elec       q    Type
REMARK                         _______ _______ _______ _____ _____    ______ ____
ROOT
ATOM      1  C   UNL     1     -35.001  20.635   0.822  0.00  0.00    +0.076 C 
ATOM      2  C   UNL     1     -35.846  20.297  -0.236  0.00  0.00    +0.008 C 
ATOM      3  C   UNL     1     -34.034  19.730   1.258  0.00  0.00    +0.008 C 
ATOM      4  C   UNL     1     -34.757  18.148  -0.420  0.00  0.00    +0.084 C 
ATOM      5  C   UNL     1     -35.724  19.054  -0.856  0.00  0.00    +0.019 C 
ATOM      6  C   UNL     1     -33.911  18.486   0.637  0.00  0.00    +0.019 C 
ENDROOT
BRANCH   1   8
ATOM      7  O   UNL     1     -34.364  22.887   1.277  0.00  0.00    -0.244 OA
ATOM      8  C   UNL     1     -35.129  21.930   1.469  0.00  0.00    +0.346 C 
BRANCH   8   9
ATOM      9  O   UNL     1     -36.217  21.950   2.339  0.00  0.00    -0.421 OA
BRANCH   9  10
ATOM     10  C   UNL     1     -35.883  22.241   3.665  0.00  0.00    +0.155 C 
ATOM     11  C   UNL     1     -36.178  23.482   4.184  0.00  0.00    +0.110 C 
ATOM     12  C   UNL     1     -35.264  21.257   4.405  0.00  0.00    +0.038 C 
ATOM     13  C   UNL     1     -35.836  23.754   5.510  0.00  0.00    +0.010 C 
ATOM     14  C   UNL     1     -34.923  21.528   5.729  0.00  0.00    +0.003 C 
ATOM     15  C   UNL     1     -35.209  22.776   6.282  0.00  0.00    +0.000 C 
BRANCH  11  17
ATOM     16  O   UNL     1     -36.236  25.337   2.687  0.00  0.00    -0.245 OA
ATOM     17  C   UNL     1     -36.832  24.517   3.396  0.00  0.00    +0.344 C 
BRANCH  17  18
ATOM     18  O   UNL     1     -38.192  24.470   3.536  0.00  0.00    -0.441 OA
ATOM     19  C   UNL     1     -38.933  25.576   3.011  0.00  0.00    +0.256 C 
ENDBRANCH  17  18
ENDBRANCH  11  17
ENDBRANCH   9  10
ENDBRANCH   8   9
ENDBRANCH   1   8
BRANCH   4  20
ATOM     20  N   UNL     1     -34.633  16.903  -1.042  0.00  0.00    -0.214 NA
BRANCH  20  23
ATOM     21  N   UNL     1     -33.478  15.060  -0.191  0.00  0.00    -0.370 N 
ATOM     22  N   UNL     1     -35.658  15.302   0.439  0.00  0.00    -0.370 N 
ATOM     23  C   UNL     1     -34.618  15.821  -0.301  0.00  0.00    +0.193 C 
ATOM     24  H   UNL     1     -32.661  15.324  -0.672  0.00  0.00    +0.159 HD
ATOM     25  H   UNL     1     -33.479  14.250   0.369  0.00  0.00    +0.159 HD
ATOM     26  H   UNL     1     -36.531  15.755   0.447  0.00  0.00    +0.159 HD
ATOM     27  H   UNL     1     -35.527  14.478   0.961  0.00  0.00    +0.159 HD
ENDBRANCH  20  23
ENDBRANCH   4  20
TORSDOF 7
ENDMDL
MODEL 4
REMARK VINA RESULT:      -6.1      4.703      7.467
REMARK  Name = 55906
REMARK  7 active torsions:
REMARK  status: ('A' for Active; 'I' for Inactive)
REMARK    1  A    between atoms: C_1  and  C_16
REMARK    2  A    between atoms: C_4  and  N_7
REMARK    3  A    between atoms: N_7  and  C_10
REMARK    4  A    between atoms: C_16  and  O_17
REMARK    5  A    between atoms: O_17  and  C_18
REMARK    6  A    between atoms: C_19  and  C_25
REMARK    7  A    between atoms: C_25  and  O_26
REMARK                            x       y       z     vdW  Elec       q    Type
REMARK                         _______ _______ _______ _____ _____    ______ ____
ROOT
ATOM      1  C   UNL     1     -35.411  21.855   2.683  0.00  0.00    +0.076 C 
ATOM      2  C   UNL     1     -35.085  23.153   2.286  0.00  0.00    +0.008 C 
ATOM      3  C   UNL     1     -35.500  21.542   4.039  0.00  0.00    +0.008 C 
ATOM      4  C   UNL     1     -34.937  23.824   4.603  0.00  0.00    +0.084 C 
ATOM      5  C   UNL     1     -34.849  24.136   3.246  0.00  0.00    +0.019 C 
ATOM      6  C   UNL     1     -35.263  22.527   4.999  0.00  0.00    +0.019 C 
ENDROOT
BRANCH   1   8
ATOM      7  O   UNL     1     -36.500  19.927   1.798  0.00  0.00    -0.244 OA
ATOM      8  C   UNL     1     -35.658  20.830   1.682  0.00  0.00    +0.346 C 
BRANCH   8   9
ATOM      9  O   UNL     1     -34.818  20.991   0.583  0.00  0.00    -0.421 OA
BRANCH   9  10
ATOM     10  C   UNL     1     -33.659  20.211   0.629  0.00  0.00    +0.155 C 
ATOM     11  C   UNL     1     -32.552  20.591  -0.096  0.00  0.00    +0.110 C 
ATOM     12  C   UNL     1     -33.678  19.075   1.411  0.00  0.00    +0.038 C 
ATOM     13  C   UNL     1     -31.405  19.798  -0.037  0.00  0.00    +0.010 C 
ATOM     14  C   UNL     1     -32.532  18.283   1.470  0.00  0.00    +0.003 C 
ATOM     15  C   UNL     1     -31.395  18.644   0.746  0.00  0.00    +0.000 C 
BRANCH  11  17
ATOM     16  O   UNL     1     -33.100  21.889  -2.020  0.00  0.00    -0.245 OA
ATOM     17  C   UNL     1     -32.541  21.792  -0.920  0.00  0.00    +0.344 C 
BRANCH  17  18
ATOM     18  O   UNL     1     -31.836  22.801  -0.327  0.00  0.00    -0.441 OA
ATOM     19  C   UNL     1     -32.483  24.074  -0.235  0.00  0.00    +0.256 C 
ENDBRANCH  17  18
ENDBRANCH  11  17
ENDBRANCH   9  10
ENDBRANCH   8   9
ENDBRANCH   1   8
BRANCH   4  20
ATOM     20  N   UNL     1     -34.700  24.809   5.565  0.00  0.00    -0.214 NA
BRANCH  20  23
ATOM     21  N   UNL     1     -36.413  26.393   5.448  0.00  0.00    -0.370 N 
ATOM     22  N   UNL     1     -34.305  27.102   4.935  0.00  0.00    -0.370 N 
ATOM     23  C   UNL     1     -35.091  26.038   5.324  0.00  0.00    +0.193 C 
ATOM     24  H   UNL     1     -37.079  25.723   5.721  0.00  0.00    +0.159 HD
ATOM     25  H   UNL     1     -36.693  27.320   5.264  0.00  0.00    +0.159 HD
ATOM     26  H   UNL     1     -33.337  26.980   4.811  0.00  0.00    +0.159 HD
ATOM     27  H   UNL     1     -34.713  27.985   4.783  0.00  0.00    +0.159 HD
ENDBRANCH  20  23
ENDBRANCH   4  20
TORSDOF 7
ENDMDL
MODEL 5
REMARK VINA RESULT:      -6.0      5.160      8.009
REMARK  Name = 55906
REMARK  7 active torsions:
REMARK  status: ('A' for Active; 'I' for Inactive)
REMARK    1  A    between atoms: C_1  and  C_16
REMARK    2  A    between atoms: C_4  and  N_7
REMARK    3  A    between atoms: N_7  and  C_10
REMARK    4  A    between atoms: C_16  and  O_17
REMARK    5  A    between atoms: O_17  and  C_18
REMARK    6  A    between atoms: C_19  and  C_25
REMARK    7  A    between atoms: C_25  and  O_26
REMARK                            x       y       z     vdW  Elec       q    Type
REMARK                         _______ _______ _______ _____ _____    ______ ____
ROOT
ATOM      1  C   UNL     1     -35.687  21.313   2.712  0.00  0.00    +0.076 C 
ATOM      2  C   UNL     1     -35.228  21.106   4.013  0.00  0.00    +0.008 C 
ATOM      3  C   UNL     1     -36.302  22.517   2.373  0.00  0.00    +0.008 C 
ATOM      4  C   UNL     1     -36.001  23.308   4.636  0.00  0.00    +0.084 C 
ATOM      5  C   UNL     1     -35.385  22.104   4.975  0.00  0.00    +0.019 C 
ATOM      6  C   UNL     1     -36.459  23.516   3.335  0.00  0.00    +0.019 C 
ENDROOT
BRANCH   1   8
ATOM      7  O   UNL     1     -36.386  19.964   0.873  0.00  0.00    -0.244 OA
ATOM      8  C   UNL     1     -35.523  20.273   1.709  0.00  0.00    +0.346 C 
BRANCH   8   9
ATOM      9  O   UNL     1     -34.275  19.664   1.819  0.00  0.00    -0.421 OA
BRANCH   9  10
ATOM     10  C   UNL     1     -33.327  20.135   0.906  0.00  0.00    +0.155 C 
ATOM     11  C   UNL     1     -32.278  19.324   0.534  0.00  0.00    +0.110 C 
ATOM     12  C   UNL     1     -33.487  21.413   0.413  0.00  0.00    +0.038 C 
ATOM     13  C   UNL     1     -31.342  19.814  -0.378  0.00  0.00    +0.010 C 
ATOM     14  C   UNL     1     -32.551  21.902  -0.498  0.00  0.00    +0.003 C 
ATOM     15  C   UNL     1     -31.478  21.102  -0.894  0.00  0.00    +0.000 C 
BRANCH  11  17
ATOM     16  O   UNL     1     -31.239  17.642   1.866  0.00  0.00    -0.245 OA
ATOM     17  C   UNL     1     -32.116  17.976   1.061  0.00  0.00    +0.344 C 
BRANCH  17  18
ATOM     18  O   UNL     1     -33.057  17.123   0.553  0.00  0.00    -0.441 OA
ATOM     19  C   UNL     1     -32.573  15.949  -0.107  0.00  0.00    +0.256 C 
ENDBRANCH  17  18
ENDBRANCH  11  17
ENDBRANCH   9  10
ENDBRANCH   8   9
ENDBRANCH   1   8
BRANCH   4  20
ATOM     20  N   UNL     1     -36.158  24.309   5.599  0.00  0.00    -0.214 NA
BRANCH  20  23
ATOM     21  N   UNL     1     -36.480  26.587   5.196  0.00  0.00    -0.370 N 
ATOM     22  N   UNL     1     -34.325  25.838   5.260  0.00  0.00    -0.370 N 
ATOM     23  C   UNL     1     -35.657  25.499   5.366  0.00  0.00    +0.193 C 
ATOM     24  H   UNL     1     -37.457  26.479   5.248  0.00  0.00    +0.159 HD
ATOM     25  H   UNL     1     -36.092  27.475   5.021  0.00  0.00    +0.159 HD
ATOM     26  H   UNL     1     -33.632  25.148   5.364  0.00  0.00    +0.159 HD
ATOM     27  H   UNL     1     -34.068  26.771   5.082  0.00  0.00    +0.159 HD
ENDBRANCH  20  23
ENDBRANCH   4  20
TORSDOF 7
ENDMDL
MODEL 6
REMARK VINA RESULT:      -6.0      1.239      2.997
REMARK  Name = 55906
REMARK  7 active torsions:
REMARK  status: ('A' for Active; 'I' for Inactive)
REMARK    1  A    between atoms: C_1  and  C_16
REMARK    2  A    between atoms: C_4  and  N_7
REMARK    3  A    between atoms: N_7  and  C_10
REMARK    4  A    between atoms: C_16  and  O_17
REMARK    5  A    between atoms: O_17  and  C_18
REMARK    6  A    between atoms: C_19  and  C_25
REMARK    7  A    between atoms: C_25  and  O_26
REMARK                            x       y       z     vdW  Elec       q    Type
REMARK                         _______ _______ _______ _____ _____    ______ ____
ROOT
ATOM      1  C   UNL     1     -34.724  24.483   4.618  0.00  0.00    +0.076 C 
ATOM      2  C   UNL     1     -35.044  23.481   5.535  0.00  0.00    +0.008 C 
ATOM      3  C   UNL     1     -34.729  24.205   3.252  0.00  0.00    +0.008 C 
ATOM      4  C   UNL     1     -35.373  21.923   3.718  0.00  0.00    +0.084 C 
ATOM      5  C   UNL     1     -35.369  22.202   5.085  0.00  0.00    +0.019 C 
ATOM      6  C   UNL     1     -35.054  22.925   2.801  0.00  0.00    +0.019 C 
ENDROOT
BRANCH   1   8
ATOM      7  O   UNL     1     -35.178  26.582   5.656  0.00  0.00    -0.244 OA
ATOM      8  C   UNL     1     -34.385  25.817   5.087  0.00  0.00    +0.346 C 
BRANCH   8   9
ATOM      9  O   UNL     1     -33.055  26.124   4.806  0.00  0.00    -0.421 OA
BRANCH   9  10
ATOM     10  C   UNL     1     -32.693  27.437   5.118  0.00  0.00    +0.155 C 
ATOM     11  C   UNL     1     -32.810  28.422   4.163  0.00  0.00    +0.110 C 
ATOM     12  C   UNL     1     -32.227  27.691   6.391  0.00  0.00    +0.038 C 
ATOM     13  C   UNL     1     -32.443  29.726   4.494  0.00  0.00    +0.010 C 
ATOM     14  C   UNL     1     -31.860  28.995   6.722  0.00  0.00    +0.003 C 
ATOM     15  C   UNL     1     -31.967  30.013   5.774  0.00  0.00    +0.000 C 
BRANCH  11  17
ATOM     16  O   UNL     1     -32.644  27.585   1.936  0.00  0.00    -0.245 OA
ATOM     17  C   UNL     1     -33.304  28.144   2.821  0.00  0.00    +0.344 C 
BRANCH  17  18
ATOM     18  O   UNL     1     -34.590  28.579   2.659  0.00  0.00    -0.441 OA
ATOM     19  C   UNL     1     -35.511  27.662   2.061  0.00  0.00    +0.256 C 
ENDBRANCH  17  18
ENDBRANCH  11  17
ENDBRANCH   9  10
ENDBRANCH   8   9
ENDBRANCH   1   8
BRANCH   4  20
ATOM     20  N   UNL     1     -35.700  20.642   3.267  0.00  0.00    -0.214 NA
BRANCH  20  23
ATOM     21  N   UNL     1     -37.789  20.855   2.243  0.00  0.00    -0.370 N 
ATOM     22  N   UNL     1     -36.077  20.064   0.957  0.00  0.00    -0.370 N 
ATOM     23  C   UNL     1     -36.456  20.517   2.202  0.00  0.00    +0.193 C 
ATOM     24  H   UNL     1     -38.186  21.193   3.077  0.00  0.00    +0.159 HD
ATOM     25  H   UNL     1     -38.346  20.757   1.436  0.00  0.00    +0.159 HD
ATOM     26  H   UNL     1     -35.146  19.791   0.795  0.00  0.00    +0.159 HD
ATOM     27  H   UNL     1     -36.738  20.015   0.229  0.00  0.00    +0.159 HD
ENDBRANCH  20  23
ENDBRANCH   4  20
TORSDOF 7
ENDMDL
MODEL 7
REMARK VINA RESULT:      -6.0      4.937      8.896
REMARK  Name = 55906
REMARK  7 active torsions:
REMARK  status: ('A' for Active; 'I' for Inactive)
REMARK    1  A    between atoms: C_1  and  C_16
REMARK    2  A    between atoms: C_4  and  N_7
REMARK    3  A    between atoms: N_7  and  C_10
REMARK    4  A    between atoms: C_16  and  O_17
REMARK    5  A    between atoms: O_17  and  C_18
REMARK    6  A    between atoms: C_19  and  C_25
REMARK    7  A    between atoms: C_25  and  O_26
REMARK                            x       y       z     vdW  Elec       q    Type
REMARK                         _______ _______ _______ _____ _____    ______ ____
ROOT
ATOM      1  C   UNL     1     -35.483  21.780   2.927  0.00  0.00    +0.076 C 
ATOM      2  C   UNL     1     -35.118  22.980   2.317  0.00  0.00    +0.008 C 
ATOM      3  C   UNL     1     -35.491  21.679   4.318  0.00  0.00    +0.008 C 
ATOM      4  C   UNL     1     -34.767  23.978   4.489  0.00  0.00    +0.084 C 
ATOM      5  C   UNL     1     -34.760  24.079   3.098  0.00  0.00    +0.019 C 
ATOM      6  C   UNL     1     -35.133  22.778   5.099  0.00  0.00    +0.019 C 
ENDROOT
BRANCH   1   8
ATOM      7  O   UNL     1     -36.710  19.795   2.435  0.00  0.00    -0.244 OA
ATOM      8  C   UNL     1     -35.856  20.634   2.113  0.00  0.00    +0.346 C 
BRANCH   8   9
ATOM      9  O   UNL     1     -35.120  20.599   0.931  0.00  0.00    -0.421 OA
BRANCH   9  10
ATOM     10  C   UNL     1     -34.434  19.401   0.719  0.00  0.00    +0.155 C 
ATOM     11  C   UNL     1     -34.899  18.506  -0.218  0.00  0.00    +0.110 C 
ATOM     12  C   UNL     1     -33.303  19.164   1.472  0.00  0.00    +0.038 C 
ATOM     13  C   UNL     1     -34.201  17.314  -0.414  0.00  0.00    +0.010 C 
ATOM     14  C   UNL     1     -32.605  17.973   1.276  0.00  0.00    +0.003 C 
ATOM     15  C   UNL     1     -33.053  17.048   0.333  0.00  0.00    +0.000 C 
BRANCH  11  17
ATOM     16  O   UNL     1     -36.100  19.358  -2.093  0.00  0.00    -0.245 OA
ATOM     17  C   UNL     1     -36.095  18.764  -1.009  0.00  0.00    +0.344 C 
BRANCH  17  18
ATOM     18  O   UNL     1     -37.215  18.265  -0.402  0.00  0.00    -0.441 OA
ATOM     19  C   UNL     1     -38.448  18.938  -0.672  0.00  0.00    +0.256 C 
ENDBRANCH  17  18
ENDBRANCH  11  17
ENDBRANCH   9  10
ENDBRANCH   8   9
ENDBRANCH   1   8
BRANCH   4  20
ATOM     20  N   UNL     1     -34.410  25.079   5.272  0.00  0.00    -0.214 NA
BRANCH  20  23
ATOM     21  N   UNL     1     -34.373  27.316   4.599  0.00  0.00    -0.370 N 
ATOM     22  N   UNL     1     -36.365  26.487   5.342  0.00  0.00    -0.370 N 
ATOM     23  C   UNL     1     -35.037  26.217   5.091  0.00  0.00    +0.193 C 
ATOM     24  H   UNL     1     -33.416  27.255   4.379  0.00  0.00    +0.159 HD
ATOM     25  H   UNL     1     -34.855  28.165   4.468  0.00  0.00    +0.159 HD
ATOM     26  H   UNL     1     -36.952  25.781   5.696  0.00  0.00    +0.159 HD
ATOM     27  H   UNL     1     -36.727  27.385   5.165  0.00  0.00    +0.159 HD
ENDBRANCH  20  23
ENDBRANCH   4  20
TORSDOF 7
ENDMDL
MODEL 8
REMARK VINA RESULT:      -6.0      4.234      6.884
REMARK  Name = 55906
REMARK  7 active torsions:
REMARK  status: ('A' for Active; 'I' for Inactive)
REMARK    1  A    between atoms: C_1  and  C_16
REMARK    2  A    between atoms: C_4  and  N_7
REMARK    3  A    between atoms: N_7  and  C_10
REMARK    4  A    between atoms: C_16  and  O_17
REMARK    5  A    between atoms: O_17  and  C_18
REMARK    6  A    between atoms: C_19  and  C_25
REMARK    7  A    between atoms: C_25  and  O_26
REMARK                            x       y       z     vdW  Elec       q    Type
REMARK                         _______ _______ _______ _____ _____    ______ ____
ROOT
ATOM      1  C   UNL     1     -35.054  24.218   5.040  0.00  0.00    +0.076 C 
ATOM      2  C   UNL     1     -33.944  24.410   4.217  0.00  0.00    +0.008 C 
ATOM      3  C   UNL     1     -35.804  25.314   5.466  0.00  0.00    +0.008 C 
ATOM      4  C   UNL     1     -34.334  26.794   4.246  0.00  0.00    +0.084 C 
ATOM      5  C   UNL     1     -33.584  25.697   3.820  0.00  0.00    +0.019 C 
ATOM      6  C   UNL     1     -35.444  26.603   5.069  0.00  0.00    +0.019 C 
ENDROOT
BRANCH   1   8
ATOM      7  O   UNL     1     -34.845  22.225   6.333  0.00  0.00    -0.244 OA
ATOM      8  C   UNL     1     -35.429  22.876   5.454  0.00  0.00    +0.346 C 
BRANCH   8   9
ATOM      9  O   UNL     1     -36.525  22.416   4.727  0.00  0.00    -0.421 OA
BRANCH   9  10
ATOM     10  C   UNL     1     -36.234  22.087   3.401  0.00  0.00    +0.155 C 
ATOM     11  C   UNL     1     -36.788  22.825   2.378  0.00  0.00    +0.110 C 
ATOM     12  C   UNL     1     -35.391  21.020   3.171  0.00  0.00    +0.038 C 
ATOM     13  C   UNL     1     -36.485  22.480   1.060  0.00  0.00    +0.010 C 
ATOM     14  C   UNL     1     -35.088  20.675   1.854  0.00  0.00    +0.003 C 
ATOM     15  C   UNL     1     -35.635  21.405   0.798  0.00  0.00    +0.000 C 
BRANCH  11  17
ATOM     16  O   UNL     1     -38.810  23.850   3.115  0.00  0.00    -0.245 OA
ATOM     17  C   UNL     1     -37.677  23.950   2.629  0.00  0.00    +0.344 C 
BRANCH  17  18
ATOM     18  O   UNL     1     -37.104  25.135   2.260  0.00  0.00    -0.441 OA
ATOM     19  C   UNL     1     -37.986  26.244   2.057  0.00  0.00    +0.256 C 
ENDBRANCH  17  18
ENDBRANCH  11  17
ENDBRANCH   9  10
ENDBRANCH   8   9
ENDBRANCH   1   8
BRANCH   4  20
ATOM     20  N   UNL     1     -33.974  28.085   3.848  0.00  0.00    -0.214 NA
BRANCH  20  23
ATOM     21  N   UNL     1     -35.372  29.814   3.132  0.00  0.00    -0.370 N 
ATOM     22  N   UNL     1     -34.761  28.260   1.576  0.00  0.00    -0.370 N 
ATOM     23  C   UNL     1     -34.655  28.666   2.889  0.00  0.00    +0.193 C 
ATOM     24  H   UNL     1     -35.379  30.208   4.033  0.00  0.00    +0.159 HD
ATOM     25  H   UNL     1     -35.879  30.241   2.404  0.00  0.00    +0.159 HD
ATOM     26  H   UNL     1     -34.292  27.450   1.272  0.00  0.00    +0.159 HD
ATOM     27  H   UNL     1     -35.304  28.781   0.942  0.00  0.00    +0.159 HD
ENDBRANCH  20  23
ENDBRANCH   4  20
TORSDOF 7
ENDMDL
MODEL 9
REMARK VINA RESULT:      -5.9      1.854      2.981
REMARK  Name = 55906
REMARK  7 active torsions:
REMARK  status: ('A' for Active; 'I' for Inactive)
REMARK    1  A    between atoms: C_1  and  C_16
REMARK    2  A    between atoms: C_4  and  N_7
REMARK    3  A    between atoms: N_7  and  C_10
REMARK    4  A    between atoms: C_16  and  O_17
REMARK    5  A    between atoms: O_17  and  C_18
REMARK    6  A    between atoms: C_19  and  C_25
REMARK    7  A    between atoms: C_25  and  O_26
REMARK                            x       y       z     vdW  Elec       q    Type
REMARK                         _______ _______ _______ _____ _____    ______ ____
ROOT
ATOM      1  C   UNL     1     -33.624  26.550   4.206  0.00  0.00    +0.076 C 
ATOM      2  C   UNL     1     -34.040  25.706   3.175  0.00  0.00    +0.008 C 
ATOM      3  C   UNL     1     -34.010  26.289   5.520  0.00  0.00    +0.008 C 
ATOM      4  C   UNL     1     -35.230  24.341   4.775  0.00  0.00    +0.084 C 
ATOM      5  C   UNL     1     -34.843  24.602   3.461  0.00  0.00    +0.019 C 
ATOM      6  C   UNL     1     -34.813  25.184   5.805  0.00  0.00    +0.019 C 
ENDROOT
BRANCH   1   8
ATOM      7  O   UNL     1     -31.824  27.685   3.128  0.00  0.00    -0.244 OA
ATOM      8  C   UNL     1     -32.788  27.702   3.909  0.00  0.00    +0.346 C 
BRANCH   8   9
ATOM      9  O   UNL     1     -33.206  28.822   4.624  0.00  0.00    -0.421 OA
BRANCH   9  10
ATOM     10  C   UNL     1     -32.454  29.973   4.374  0.00  0.00    +0.155 C 
ATOM     11  C   UNL     1     -31.431  30.317   5.228  0.00  0.00    +0.110 C 
ATOM     12  C   UNL     1     -32.777  30.726   3.264  0.00  0.00    +0.038 C 
ATOM     13  C   UNL     1     -30.692  31.471   4.962  0.00  0.00    +0.010 C 
ATOM     14  C   UNL     1     -32.039  31.878   2.998  0.00  0.00    +0.003 C 
ATOM     15  C   UNL     1     -30.996  32.251   3.847  0.00  0.00    +0.000 C 
BRANCH  11  17
ATOM     16  O   UNL     1     -31.595  29.676   7.519  0.00  0.00    -0.245 OA
ATOM     17  C   UNL     1     -31.096  29.517   6.398  0.00  0.00    +0.344 C 
BRANCH  17  18
ATOM     18  O   UNL     1     -30.160  28.564   6.104  0.00  0.00    -0.441 OA
ATOM     19  C   UNL     1     -28.875  28.712   6.715  0.00  0.00    +0.256 C 
ENDBRANCH  17  18
ENDBRANCH  11  17
ENDBRANCH   9  10
ENDBRANCH   8   9
ENDBRANCH   1   8
BRANCH   4  20
ATOM     20  N   UNL     1     -36.033  23.233   5.061  0.00  0.00    -0.214 NA
BRANCH  20  23
ATOM     21  N   UNL     1     -35.617  21.193   4.002  0.00  0.00    -0.370 N 
ATOM     22  N   UNL     1     -34.747  21.475   6.093  0.00  0.00    -0.370 N 
ATOM     23  C   UNL     1     -35.487  22.040   5.077  0.00  0.00    +0.193 C 
ATOM     24  H   UNL     1     -36.125  21.478   3.209  0.00  0.00    +0.159 HD
ATOM     25  H   UNL     1     -35.203  20.300   4.027  0.00  0.00    +0.159 HD
ATOM     26  H   UNL     1     -34.579  21.981   6.920  0.00  0.00    +0.159 HD
ATOM     27  H   UNL     1     -34.385  20.565   5.990  0.00  0.00    +0.159 HD
ENDBRANCH  20  23
ENDBRANCH   4  20
TORSDOF 7
ENDMDL
