MODEL 1
REMARK VINA RESULT:      -7.4      0.000      0.000
REMARK  Name = 195773
REMARK  6 active torsions:
REMARK  status: ('A' for Active; 'I' for Inactive)
REMARK    1  A    between atoms: C_7  and  O_32
REMARK    2  A    between atoms: C_7  and  C_34
REMARK    3  A    between atoms: C_34  and  N_35
REMARK    4  A    between atoms: N_35  and  C_38
REMARK    5  A    between atoms: C_38  and  C_39
REMARK    6  A    between atoms: C_39  and  O_40
REMARK                            x       y       z     vdW  Elec       q    Type
REMARK                         _______ _______ _______ _____ _____    ______ ____
ROOT
ATOM      1  O   UNL     1     -33.575  25.806   3.233  0.00  0.00    -0.319 OA
ATOM      2  O   UNL     1     -32.929  33.011   2.332  0.00  0.00    -0.270 OA
ATOM      3  N   UNL     1     -35.483  26.900   2.522  0.00  0.00    -0.306 N 
ATOM      4  N   UNL     1     -33.215  27.868   4.193  0.00  0.00    -0.304 N 
ATOM      5  N   UNL     1     -34.722  32.668   0.866  0.00  0.00    -0.297 N 
ATOM      6  C   UNL     1     -35.016  25.708   3.222  0.00  0.00    +0.186 C 
ATOM      7  C   UNL     1     -35.463  25.677   4.719  0.00  0.00    +0.115 C 
ATOM      8  C   UNL     1     -33.209  26.449   4.436  0.00  0.00    +0.209 C 
ATOM      9  C   UNL     1     -34.182  25.970   5.496  0.00  0.00    +0.083 C 
ATOM     10  C   UNL     1     -34.944  28.166   2.461  0.00  0.00    +0.077 A 
ATOM     11  C   UNL     1     -33.865  28.632   3.266  0.00  0.00    +0.078 A 
ATOM     12  C   UNL     1     -35.219  24.401   2.438  0.00  0.00    +0.056 C 
ATOM     13  C   UNL     1     -35.516  29.163   1.589  0.00  0.00    +0.016 A 
ATOM     14  C   UNL     1     -36.631  27.059   1.735  0.00  0.00    +0.062 A 
ATOM     15  C   UNL     1     -33.502  30.023   3.078  0.00  0.00    +0.023 A 
ATOM     16  C   UNL     1     -32.348  28.793   4.773  0.00  0.00    +0.062 A 
ATOM     17  C   UNL     1     -36.623  28.344   1.106  0.00  0.00    +0.017 A 
ATOM     18  C   UNL     1     -35.112  30.478   1.372  0.00  0.00    +0.003 A 
ATOM     19  C   UNL     1     -32.476  30.062   4.130  0.00  0.00    +0.017 A 
ATOM     20  C   UNL     1     -34.056  30.913   2.161  0.00  0.00    +0.053 A 
ATOM     21  C   UNL     1     -35.611  31.584   0.504  0.00  0.00    +0.117 C 
ATOM     22  C   UNL     1     -37.715  26.184   1.515  0.00  0.00    +0.017 C 
ATOM     23  C   UNL     1     -33.794  32.314   1.840  0.00  0.00    +0.246 C 
ATOM     24  C   UNL     1     -31.434  28.597   5.828  0.00  0.00    +0.017 C 
ATOM     25  C   UNL     1     -37.672  28.662   0.207  0.00  0.00    +0.001 C 
ATOM     26  C   UNL     1     -31.645  31.111   4.601  0.00  0.00    +0.001 C 
ATOM     27  C   UNL     1     -38.735  26.542   0.629  0.00  0.00    +0.001 C 
ATOM     28  C   UNL     1     -38.708  27.759  -0.031  0.00  0.00    +0.000 C 
ATOM     29  C   UNL     1     -30.638  29.661   6.252  0.00  0.00    +0.001 C 
ATOM     30  C   UNL     1     -30.741  30.903   5.647  0.00  0.00    +0.000 C 
ATOM     31  H   UNL     1     -34.769  33.566   0.464  0.00  0.00    +0.150 HD
ENDROOT
BRANCH   7  32
ATOM     32  O   UNL     1     -36.430  26.691   5.011  0.00  0.00    -0.384 OA
ATOM     33  H   UNL     1     -36.970  26.414   5.769  0.00  0.00    +0.210 HD
ENDBRANCH   7  32
BRANCH   7  34
ATOM     34  C   UNL     1     -36.100  24.372   5.197  0.00  0.00    -0.050 C 
BRANCH  34  35
ATOM     35  N   UNL     1     -35.170  23.621   6.021  0.00  0.00    +0.387 N 
ATOM     36  H   UNL     1     -35.105  24.063   6.938  0.00  0.00    -0.084 HD
ATOM     37  H   UNL     1     -34.261  23.616   5.560  0.00  0.00    -0.084 HD
BRANCH  35  38
ATOM     38  C   UNL     1     -35.612  22.242   6.188  0.00  0.00    -0.049 C 
BRANCH  38  39
ATOM     39  C   UNL     1     -34.916  21.311   5.212  0.00  0.00    +0.114 C 
BRANCH  39  40
ATOM     40  O   UNL     1     -35.822  20.946   4.178  0.00  0.00    -0.384 OA
ATOM     41  H   UNL     1     -35.325  20.591   3.425  0.00  0.00    +0.210 HD
ENDBRANCH  39  40
ENDBRANCH  38  39
ENDBRANCH  35  38
ENDBRANCH  34  35
ENDBRANCH   7  34
TORSDOF 6
ENDMDL
MODEL 2
REMARK VINA RESULT:      -7.3      6.749     11.506
REMARK  Name = 195773
REMARK  6 active torsions:
REMARK  status: ('A' for Active; 'I' for Inactive)
REMARK    1  A    between atoms: C_7  and  O_32
REMARK    2  A    between atoms: C_7  and  C_34
REMARK    3  A    between atoms: C_34  and  N_35
REMARK    4  A    between atoms: N_35  and  C_38
REMARK    5  A    between atoms: C_38  and  C_39
REMARK    6  A    between atoms: C_39  and  O_40
REMARK                            x       y       z     vdW  Elec       q    Type
REMARK                         _______ _______ _______ _____ _____    ______ ____
ROOT
ATOM      1  O   UNL     1     -36.362  21.804  -0.269  0.00  0.00    -0.319 OA
ATOM      2  O   UNL     1     -39.695  15.930  -3.013  0.00  0.00    -0.270 OA
ATOM      3  N   UNL     1     -35.411  19.770   0.275  0.00  0.00    -0.306 N 
ATOM      4  N   UNL     1     -38.242  20.475  -0.325  0.00  0.00    -0.304 N 
ATOM      5  N   UNL     1     -37.569  14.989  -2.738  0.00  0.00    -0.297 N 
ATOM      6  C   UNL     1     -35.542  21.152   0.723  0.00  0.00    +0.186 C 
ATOM      7  C   UNL     1     -36.312  21.274   2.077  0.00  0.00    +0.115 C 
ATOM      8  C   UNL     1     -37.702  21.714   0.172  0.00  0.00    +0.209 C 
ATOM      9  C   UNL     1     -37.671  21.848   1.681  0.00  0.00    +0.083 C 
ATOM     10  C   UNL     1     -36.289  18.975  -0.428  0.00  0.00    +0.077 A 
ATOM     11  C   UNL     1     -37.646  19.308  -0.707  0.00  0.00    +0.078 A 
ATOM     12  C   UNL     1     -34.243  21.970   0.619  0.00  0.00    +0.056 C 
ATOM     13  C   UNL     1     -35.888  17.665  -0.880  0.00  0.00    +0.016 A 
ATOM     14  C   UNL     1     -34.343  18.884   0.469  0.00  0.00    +0.062 A 
ATOM     15  C   UNL     1     -38.405  18.292  -1.409  0.00  0.00    +0.023 A 
ATOM     16  C   UNL     1     -39.562  20.270  -0.724  0.00  0.00    +0.062 A 
ATOM     17  C   UNL     1     -34.560  17.681  -0.274  0.00  0.00    +0.017 A 
ATOM     18  C   UNL     1     -36.612  16.727  -1.611  0.00  0.00    +0.003 A 
ATOM     19  C   UNL     1     -39.690  19.008  -1.380  0.00  0.00    +0.017 A 
ATOM     20  C   UNL     1     -37.930  17.071  -1.879  0.00  0.00    +0.053 A 
ATOM     21  C   UNL     1     -36.307  15.363  -2.135  0.00  0.00    +0.117 C 
ATOM     22  C   UNL     1     -33.179  19.015   1.254  0.00  0.00    +0.017 C 
ATOM     23  C   UNL     1     -38.551  15.966  -2.607  0.00  0.00    +0.246 C 
ATOM     24  C   UNL     1     -40.671  21.125  -0.563  0.00  0.00    +0.017 C 
ATOM     25  C   UNL     1     -33.548  16.689  -0.263  0.00  0.00    +0.001 C 
ATOM     26  C   UNL     1     -40.978  18.657  -1.861  0.00  0.00    +0.001 C 
ATOM     27  C   UNL     1     -32.211  18.008   1.246  0.00  0.00    +0.001 C 
ATOM     28  C   UNL     1     -32.383  16.864   0.484  0.00  0.00    +0.000 C 
ATOM     29  C   UNL     1     -41.916  20.734  -1.055  0.00  0.00    +0.001 C 
ATOM     30  C   UNL     1     -42.069  19.516  -1.696  0.00  0.00    +0.000 C 
ATOM     31  H   UNL     1     -37.719  14.130  -3.195  0.00  0.00    +0.150 HD
ENDROOT
BRANCH   7  32
ATOM     32  O   UNL     1     -36.506  20.000   2.701  0.00  0.00    -0.384 OA
ATOM     33  H   UNL     1     -37.014  19.424   2.108  0.00  0.00    +0.210 HD
ENDBRANCH   7  32
BRANCH   7  34
ATOM     34  C   UNL     1     -35.648  22.142   3.147  0.00  0.00    -0.050 C 
BRANCH  34  35
ATOM     35  N   UNL     1     -36.593  22.466   4.200  0.00  0.00    +0.387 N 
ATOM     36  H   UNL     1     -37.161  21.644   4.404  0.00  0.00    -0.084 HD
ATOM     37  H   UNL     1     -37.179  23.237   3.882  0.00  0.00    -0.084 HD
BRANCH  35  38
ATOM     38  C   UNL     1     -35.902  22.880   5.416  0.00  0.00    -0.049 C 
BRANCH  38  39
ATOM     39  C   UNL     1     -34.884  21.846   5.858  0.00  0.00    +0.114 C 
BRANCH  39  40
ATOM     40  O   UNL     1     -35.527  20.587   6.017  0.00  0.00    -0.384 OA
ATOM     41  H   UNL     1     -36.161  20.456   5.295  0.00  0.00    +0.210 HD
ENDBRANCH  39  40
ENDBRANCH  38  39
ENDBRANCH  35  38
ENDBRANCH  34  35
ENDBRANCH   7  34
TORSDOF 6
ENDMDL
MODEL 3
REMARK VINA RESULT:      -7.3      2.662      6.799
REMARK  Name = 195773
REMARK  6 active torsions:
REMARK  status: ('A' for Active; 'I' for Inactive)
REMARK    1  A    between atoms: C_7  and  O_32
REMARK    2  A    between atoms: C_7  and  C_34
REMARK    3  A    between atoms: C_34  and  N_35
REMARK    4  A    between atoms: N_35  and  C_38
REMARK    5  A    between atoms: C_38  and  C_39
REMARK    6  A    between atoms: C_39  and  O_40
REMARK                            x       y       z     vdW  Elec       q    Type
REMARK                         _______ _______ _______ _____ _____    ______ ____
ROOT
ATOM      1  O   UNL     1     -35.156  27.392   3.840  0.00  0.00    -0.319 OA
ATOM      2  O   UNL     1     -35.478  20.705   0.957  0.00  0.00    -0.270 OA
ATOM      3  N   UNL     1     -33.935  27.078   1.904  0.00  0.00    -0.306 N 
ATOM      4  N   UNL     1     -34.671  25.151   4.052  0.00  0.00    -0.304 N 
ATOM      5  N   UNL     1     -34.938  21.869  -1.001  0.00  0.00    -0.297 N 
ATOM      6  C   UNL     1     -34.017  27.896   3.110  0.00  0.00    +0.186 C 
ATOM      7  C   UNL     1     -32.780  27.711   4.046  0.00  0.00    +0.115 C 
ATOM      8  C   UNL     1     -34.675  26.416   4.741  0.00  0.00    +0.209 C 
ATOM      9  C   UNL     1     -33.320  26.896   5.219  0.00  0.00    +0.083 C 
ATOM     10  C   UNL     1     -34.275  25.760   1.696  0.00  0.00    +0.077 A 
ATOM     11  C   UNL     1     -34.618  24.836   2.724  0.00  0.00    +0.078 A 
ATOM     12  C   UNL     1     -34.448  29.350   2.853  0.00  0.00    +0.056 C 
ATOM     13  C   UNL     1     -34.229  25.194   0.370  0.00  0.00    +0.016 A 
ATOM     14  C   UNL     1     -33.461  27.437   0.634  0.00  0.00    +0.062 A 
ATOM     15  C   UNL     1     -34.881  23.481   2.281  0.00  0.00    +0.023 A 
ATOM     16  C   UNL     1     -34.931  23.911   4.633  0.00  0.00    +0.062 A 
ATOM     17  C   UNL     1     -33.709  26.382  -0.299  0.00  0.00    +0.017 A 
ATOM     18  C   UNL     1     -34.549  23.904  -0.047  0.00  0.00    +0.003 A 
ATOM     19  C   UNL     1     -35.080  22.912   3.623  0.00  0.00    +0.017 A 
ATOM     20  C   UNL     1     -34.887  23.018   0.968  0.00  0.00    +0.053 A 
ATOM     21  C   UNL     1     -34.548  23.214  -1.370  0.00  0.00    +0.117 C 
ATOM     22  C   UNL     1     -32.810  28.610   0.200  0.00  0.00    +0.017 C 
ATOM     23  C   UNL     1     -35.145  21.712   0.366  0.00  0.00    +0.246 C 
ATOM     24  C   UNL     1     -35.063  23.593   6.000  0.00  0.00    +0.017 C 
ATOM     25  C   UNL     1     -33.365  26.589  -1.659  0.00  0.00    +0.001 C 
ATOM     26  C   UNL     1     -35.363  21.592   4.057  0.00  0.00    +0.001 C 
ATOM     27  C   UNL     1     -32.478  28.769  -1.147  0.00  0.00    +0.001 C 
ATOM     28  C   UNL     1     -32.765  27.778  -2.071  0.00  0.00    +0.000 C 
ATOM     29  C   UNL     1     -35.344  22.279   6.374  0.00  0.00    +0.001 C 
ATOM     30  C   UNL     1     -35.493  21.290   5.417  0.00  0.00    +0.000 C 
ATOM     31  H   UNL     1     -35.047  21.138  -1.652  0.00  0.00    +0.150 HD
ENDROOT
BRANCH   7  32
ATOM     32  O   UNL     1     -31.730  26.975   3.409  0.00  0.00    -0.384 OA
ATOM     33  H   UNL     1     -32.063  26.106   3.137  0.00  0.00    +0.210 HD
ENDBRANCH   7  32
BRANCH   7  34
ATOM     34  C   UNL     1     -32.119  28.998   4.539  0.00  0.00    -0.050 C 
BRANCH  34  35
ATOM     35  N   UNL     1     -32.244  29.118   5.981  0.00  0.00    +0.387 N 
ATOM     36  H   UNL     1     -32.538  28.220   6.365  0.00  0.00    -0.084 HD
ATOM     37  H   UNL     1     -32.936  29.839   6.186  0.00  0.00    -0.084 HD
BRANCH  35  38
ATOM     38  C   UNL     1     -30.977  29.505   6.588  0.00  0.00    -0.049 C 
BRANCH  38  39
ATOM     39  C   UNL     1     -29.843  28.603   6.135  0.00  0.00    +0.114 C 
BRANCH  39  40
ATOM     40  O   UNL     1     -29.921  27.363   6.827  0.00  0.00    -0.384 OA
ATOM     41  H   UNL     1     -30.849  27.089   6.894  0.00  0.00    +0.210 HD
ENDBRANCH  39  40
ENDBRANCH  38  39
ENDBRANCH  35  38
ENDBRANCH  34  35
ENDBRANCH   7  34
TORSDOF 6
ENDMDL
MODEL 4
REMARK VINA RESULT:      -7.3      4.116      8.566
REMARK  Name = 195773
REMARK  6 active torsions:
REMARK  status: ('A' for Active; 'I' for Inactive)
REMARK    1  A    between atoms: C_7  and  O_32
REMARK    2  A    between atoms: C_7  and  C_34
REMARK    3  A    between atoms: C_34  and  N_35
REMARK    4  A    between atoms: N_35  and  C_38
REMARK    5  A    between atoms: C_38  and  C_39
REMARK    6  A    between atoms: C_39  and  O_40
REMARK                            x       y       z     vdW  Elec       q    Type
REMARK                         _______ _______ _______ _____ _____    ______ ____
ROOT
ATOM      1  O   UNL     1     -36.540  25.126   1.784  0.00  0.00    -0.319 OA
ATOM      2  O   UNL     1     -42.679  22.158  -0.794  0.00  0.00    -0.270 OA
ATOM      3  N   UNL     1     -36.555  22.819   1.648  0.00  0.00    -0.306 N 
ATOM      4  N   UNL     1     -38.792  24.740   2.073  0.00  0.00    -0.304 N 
ATOM      5  N   UNL     1     -41.224  20.410  -1.349  0.00  0.00    -0.297 N 
ATOM      6  C   UNL     1     -35.939  23.941   2.349  0.00  0.00    +0.186 C 
ATOM      7  C   UNL     1     -36.285  23.960   3.872  0.00  0.00    +0.115 C 
ATOM      8  C   UNL     1     -37.653  25.455   2.589  0.00  0.00    +0.209 C 
ATOM      9  C   UNL     1     -37.270  25.118   4.016  0.00  0.00    +0.083 C 
ATOM     10  C   UNL     1     -37.819  22.685   1.119  0.00  0.00    +0.077 A 
ATOM     11  C   UNL     1     -38.892  23.599   1.329  0.00  0.00    +0.078 A 
ATOM     12  C   UNL     1     -34.458  24.163   1.998  0.00  0.00    +0.056 C 
ATOM     13  C   UNL     1     -38.167  21.519   0.345  0.00  0.00    +0.016 A 
ATOM     14  C   UNL     1     -36.004  21.566   1.349  0.00  0.00    +0.062 A 
ATOM     15  C   UNL     1     -40.156  23.226   0.726  0.00  0.00    +0.023 A 
ATOM     16  C   UNL     1     -40.105  25.206   2.065  0.00  0.00    +0.062 A 
ATOM     17  C   UNL     1     -36.894  20.825   0.510  0.00  0.00    +0.017 A 
ATOM     18  C   UNL     1     -39.371  21.207  -0.283  0.00  0.00    +0.003 A 
ATOM     19  C   UNL     1     -40.929  24.353   1.269  0.00  0.00    +0.017 A 
ATOM     20  C   UNL     1     -40.403  22.112  -0.072  0.00  0.00    +0.053 A 
ATOM     21  C   UNL     1     -39.841  20.054  -1.104  0.00  0.00    +0.117 C 
ATOM     22  C   UNL     1     -34.784  20.985   1.753  0.00  0.00    +0.017 C 
ATOM     23  C   UNL     1     -41.594  21.613  -0.757  0.00  0.00    +0.246 C 
ATOM     24  C   UNL     1     -40.636  26.346   2.703  0.00  0.00    +0.017 C 
ATOM     25  C   UNL     1     -36.477  19.555   0.039  0.00  0.00    +0.001 C 
ATOM     26  C   UNL     1     -42.298  24.704   1.151  0.00  0.00    +0.001 C 
ATOM     27  C   UNL     1     -34.416  19.725   1.274  0.00  0.00    +0.001 C 
ATOM     28  C   UNL     1     -35.244  19.023   0.414  0.00  0.00    +0.000 C 
ATOM     29  C   UNL     1     -41.989  26.647   2.553  0.00  0.00    +0.001 C 
ATOM     30  C   UNL     1     -42.811  25.838   1.788  0.00  0.00    +0.000 C 
ATOM     31  H   UNL     1     -41.840  19.857  -1.882  0.00  0.00    +0.150 HD
ENDROOT
BRANCH   7  32
ATOM     32  O   UNL     1     -36.922  22.749   4.293  0.00  0.00    -0.384 OA
ATOM     33  H   UNL     1     -37.867  22.788   4.077  0.00  0.00    +0.210 HD
ENDBRANCH   7  32
BRANCH   7  34
ATOM     34  C   UNL     1     -35.100  24.136   4.823  0.00  0.00    -0.050 C 
BRANCH  34  35
ATOM     35  N   UNL     1     -35.237  25.361   5.589  0.00  0.00    +0.387 N 
ATOM     36  H   UNL     1     -35.439  25.126   6.561  0.00  0.00    -0.084 HD
ATOM     37  H   UNL     1     -35.996  25.910   5.188  0.00  0.00    -0.084 HD
BRANCH  35  38
ATOM     38  C   UNL     1     -34.014  26.153   5.535  0.00  0.00    -0.049 C 
BRANCH  38  39
ATOM     39  C   UNL     1     -33.895  26.907   4.223  0.00  0.00    +0.114 C 
BRANCH  39  40
ATOM     40  O   UNL     1     -35.054  27.708   4.031  0.00  0.00    -0.384 OA
ATOM     41  H   UNL     1     -35.174  27.880   3.084  0.00  0.00    +0.210 HD
ENDBRANCH  39  40
ENDBRANCH  38  39
ENDBRANCH  35  38
ENDBRANCH  34  35
ENDBRANCH   7  34
TORSDOF 6
ENDMDL
MODEL 5
REMARK VINA RESULT:      -7.2      8.413     11.643
REMARK  Name = 195773
REMARK  6 active torsions:
REMARK  status: ('A' for Active; 'I' for Inactive)
REMARK    1  A    between atoms: C_7  and  O_32
REMARK    2  A    between atoms: C_7  and  C_34
REMARK    3  A    between atoms: C_34  and  N_35
REMARK    4  A    between atoms: N_35  and  C_38
REMARK    5  A    between atoms: C_38  and  C_39
REMARK    6  A    between atoms: C_39  and  O_40
REMARK                            x       y       z     vdW  Elec       q    Type
REMARK                         _______ _______ _______ _____ _____    ______ ____
ROOT
ATOM      1  O   UNL     1     -44.873  28.750   2.475  0.00  0.00    -0.319 OA
ATOM      2  O   UNL     1     -47.737  26.502   8.790  0.00  0.00    -0.270 OA
ATOM      3  N   UNL     1     -45.195  26.470   2.672  0.00  0.00    -0.306 N 
ATOM      4  N   UNL     1     -44.636  28.525   4.755  0.00  0.00    -0.304 N 
ATOM      5  N   UNL     1     -48.418  24.692   7.471  0.00  0.00    -0.297 N 
ATOM      6  C   UNL     1     -44.400  27.479   1.980  0.00  0.00    +0.186 C 
ATOM      7  C   UNL     1     -42.883  27.404   2.346  0.00  0.00    +0.115 C 
ATOM      8  C   UNL     1     -44.054  29.102   3.571  0.00  0.00    +0.209 C 
ATOM      9  C   UNL     1     -42.655  28.622   3.238  0.00  0.00    +0.083 C 
ATOM     10  C   UNL     1     -45.744  26.481   3.935  0.00  0.00    +0.077 A 
ATOM     11  C   UNL     1     -45.470  27.459   4.934  0.00  0.00    +0.078 A 
ATOM     12  C   UNL     1     -44.718  27.607   0.480  0.00  0.00    +0.056 C 
ATOM     13  C   UNL     1     -46.613  25.411   4.363  0.00  0.00    +0.016 A 
ATOM     14  C   UNL     1     -45.588  25.204   2.218  0.00  0.00    +0.062 A 
ATOM     15  C   UNL     1     -46.113  27.238   6.215  0.00  0.00    +0.023 A 
ATOM     16  C   UNL     1     -44.618  29.094   6.026  0.00  0.00    +0.062 A 
ATOM     17  C   UNL     1     -46.493  24.606   3.152  0.00  0.00    +0.017 A 
ATOM     18  C   UNL     1     -47.275  25.249   5.577  0.00  0.00    +0.003 A 
ATOM     19  C   UNL     1     -45.488  28.377   6.903  0.00  0.00    +0.017 A 
ATOM     20  C   UNL     1     -47.001  26.214   6.537  0.00  0.00    +0.053 A 
ATOM     21  C   UNL     1     -48.190  24.207   6.126  0.00  0.00    +0.117 C 
ATOM     22  C   UNL     1     -45.222  24.496   1.055  0.00  0.00    +0.017 C 
ATOM     23  C   UNL     1     -47.734  25.870   7.753  0.00  0.00    +0.246 C 
ATOM     24  C   UNL     1     -43.895  30.219   6.474  0.00  0.00    +0.017 C 
ATOM     25  C   UNL     1     -47.061  23.348   2.830  0.00  0.00    +0.001 C 
ATOM     26  C   UNL     1     -45.590  28.845   8.238  0.00  0.00    +0.001 C 
ATOM     27  C   UNL     1     -45.798  23.253   0.782  0.00  0.00    +0.001 C 
ATOM     28  C   UNL     1     -46.719  22.690   1.649  0.00  0.00    +0.000 C 
ATOM     29  C   UNL     1     -44.032  30.640   7.797  0.00  0.00    +0.001 C 
ATOM     30  C   UNL     1     -44.868  29.963   8.669  0.00  0.00    +0.000 C 
ATOM     31  H   UNL     1     -48.999  24.235   8.122  0.00  0.00    +0.150 HD
ENDROOT
BRANCH   7  32
ATOM     32  O   UNL     1     -42.567  26.219   3.084  0.00  0.00    -0.384 OA
ATOM     33  H   UNL     1     -42.817  25.438   2.564  0.00  0.00    +0.210 HD
ENDBRANCH   7  32
BRANCH   7  34
ATOM     34  C   UNL     1     -41.911  27.407   1.166  0.00  0.00    -0.050 C 
BRANCH  34  35
ATOM     35  N   UNL     1     -41.143  26.175   1.134  0.00  0.00    +0.387 N 
ATOM     36  H   UNL     1     -41.386  25.652   0.294  0.00  0.00    -0.084 HD
ATOM     37  H   UNL     1     -41.364  25.634   1.970  0.00  0.00    -0.084 HD
BRANCH  35  38
ATOM     38  C   UNL     1     -39.711  26.449   1.126  0.00  0.00    -0.049 C 
BRANCH  38  39
ATOM     39  C   UNL     1     -39.033  25.909   2.372  0.00  0.00    +0.114 C 
BRANCH  39  40
ATOM     40  O   UNL     1     -39.598  26.525   3.523  0.00  0.00    -0.384 OA
ATOM     41  H   UNL     1     -39.505  27.488   3.452  0.00  0.00    +0.210 HD
ENDBRANCH  39  40
ENDBRANCH  38  39
ENDBRANCH  35  38
ENDBRANCH  34  35
ENDBRANCH   7  34
TORSDOF 6
ENDMDL
MODEL 6
REMARK VINA RESULT:      -6.9      1.546      1.959
REMARK  Name = 195773
REMARK  6 active torsions:
REMARK  status: ('A' for Active; 'I' for Inactive)
REMARK    1  A    between atoms: C_7  and  O_32
REMARK    2  A    between atoms: C_7  and  C_34
REMARK    3  A    between atoms: C_34  and  N_35
REMARK    4  A    between atoms: N_35  and  C_38
REMARK    5  A    between atoms: C_38  and  C_39
REMARK    6  A    between atoms: C_39  and  O_40
REMARK                            x       y       z     vdW  Elec       q    Type
REMARK                         _______ _______ _______ _____ _____    ______ ____
ROOT
ATOM      1  O   UNL     1     -33.457  26.184   2.731  0.00  0.00    -0.319 OA
ATOM      2  O   UNL     1     -32.305  33.376   3.026  0.00  0.00    -0.270 OA
ATOM      3  N   UNL     1     -35.253  27.509   2.133  0.00  0.00    -0.306 N 
ATOM      4  N   UNL     1     -33.011  28.037   4.023  0.00  0.00    -0.304 N 
ATOM      5  N   UNL     1     -34.042  33.397   1.457  0.00  0.00    -0.297 N 
ATOM      6  C   UNL     1     -34.898  26.192   2.650  0.00  0.00    +0.186 C 
ATOM      7  C   UNL     1     -35.419  25.957   4.104  0.00  0.00    +0.115 C 
ATOM      8  C   UNL     1     -33.110  26.600   4.035  0.00  0.00    +0.209 C 
ATOM      9  C   UNL     1     -34.161  26.031   4.967  0.00  0.00    +0.083 C 
ATOM     10  C   UNL     1     -34.631  28.727   2.298  0.00  0.00    +0.077 A 
ATOM     11  C   UNL     1     -33.565  28.982   3.208  0.00  0.00    +0.078 A 
ATOM     12  C   UNL     1     -35.147  25.042   1.659  0.00  0.00    +0.056 C 
ATOM     13  C   UNL     1     -35.095  29.887   1.576  0.00  0.00    +0.016 A 
ATOM     14  C   UNL     1     -36.349  27.872   1.339  0.00  0.00    +0.062 A 
ATOM     15  C   UNL     1     -33.104  30.355   3.259  0.00  0.00    +0.023 A 
ATOM     16  C   UNL     1     -32.117  28.794   4.777  0.00  0.00    +0.062 A 
ATOM     17  C   UNL     1     -36.227  29.236   0.926  0.00  0.00    +0.017 A 
ATOM     18  C   UNL     1     -34.597  31.188   1.588  0.00  0.00    +0.003 A 
ATOM     19  C   UNL     1     -32.131  30.155   4.342  0.00  0.00    +0.017 A 
ATOM     20  C   UNL     1     -33.554  31.416   2.477  0.00  0.00    +0.053 A 
ATOM     21  C   UNL     1     -34.980  32.450   0.891  0.00  0.00    +0.117 C 
ATOM     22  C   UNL     1     -37.475  27.123   0.940  0.00  0.00    +0.017 C 
ATOM     23  C   UNL     1     -33.187  32.828   2.396  0.00  0.00    +0.246 C 
ATOM     24  C   UNL     1     -31.269  28.370   5.820  0.00  0.00    +0.017 C 
ATOM     25  C   UNL     1     -37.208  29.766   0.051  0.00  0.00    +0.001 C 
ATOM     26  C   UNL     1     -31.257  31.054   5.007  0.00  0.00    +0.001 C 
ATOM     27  C   UNL     1     -38.425  27.687   0.086  0.00  0.00    +0.001 C 
ATOM     28  C   UNL     1     -38.287  28.989  -0.369  0.00  0.00    +0.000 C 
ATOM     29  C   UNL     1     -30.429  29.294   6.440  0.00  0.00    +0.001 C 
ATOM     30  C   UNL     1     -30.421  30.619   6.040  0.00  0.00    +0.000 C 
ATOM     31  H   UNL     1     -34.011  34.348   1.204  0.00  0.00    +0.150 HD
ENDROOT
BRANCH   7  32
ATOM     32  O   UNL     1     -36.332  26.978   4.519  0.00  0.00    -0.384 OA
ATOM     33  H   UNL     1     -37.229  26.748   4.228  0.00  0.00    +0.210 HD
ENDBRANCH   7  32
BRANCH   7  34
ATOM     34  C   UNL     1     -36.162  24.641   4.342  0.00  0.00    -0.050 C 
BRANCH  34  35
ATOM     35  N   UNL     1     -37.587  24.879   4.488  0.00  0.00    +0.387 N 
ATOM     36  H   UNL     1     -37.745  25.875   4.638  0.00  0.00    -0.084 HD
ATOM     37  H   UNL     1     -37.925  24.339   5.284  0.00  0.00    -0.084 HD
BRANCH  35  38
ATOM     38  C   UNL     1     -38.315  24.455   3.298  0.00  0.00    -0.049 C 
BRANCH  38  39
ATOM     39  C   UNL     1     -39.709  25.053   3.255  0.00  0.00    +0.114 C 
BRANCH  39  40
ATOM     40  O   UNL     1     -39.633  26.449   3.510  0.00  0.00    -0.384 OA
ATOM     41  H   UNL     1     -38.712  26.742   3.431  0.00  0.00    +0.210 HD
ENDBRANCH  39  40
ENDBRANCH  38  39
ENDBRANCH  35  38
ENDBRANCH  34  35
ENDBRANCH   7  34
TORSDOF 6
ENDMDL
MODEL 7
REMARK VINA RESULT:      -6.7      2.300      5.444
REMARK  Name = 195773
REMARK  6 active torsions:
REMARK  status: ('A' for Active; 'I' for Inactive)
REMARK    1  A    between atoms: C_7  and  O_32
REMARK    2  A    between atoms: C_7  and  C_34
REMARK    3  A    between atoms: C_34  and  N_35
REMARK    4  A    between atoms: N_35  and  C_38
REMARK    5  A    between atoms: C_38  and  C_39
REMARK    6  A    between atoms: C_39  and  O_40
REMARK                            x       y       z     vdW  Elec       q    Type
REMARK                         _______ _______ _______ _____ _____    ______ ____
ROOT
ATOM      1  O   UNL     1     -38.886  26.423   2.029  0.00  0.00    -0.319 OA
ATOM      2  O   UNL     1     -32.923  30.582   2.558  0.00  0.00    -0.270 OA
ATOM      3  N   UNL     1     -36.991  25.359   2.816  0.00  0.00    -0.306 N 
ATOM      4  N   UNL     1     -37.274  27.667   0.955  0.00  0.00    -0.304 N 
ATOM      5  N   UNL     1     -32.331  28.975   4.155  0.00  0.00    -0.297 N 
ATOM      6  C   UNL     1     -38.263  25.125   2.140  0.00  0.00    +0.186 C 
ATOM      7  C   UNL     1     -38.080  24.601   0.680  0.00  0.00    +0.115 C 
ATOM      8  C   UNL     1     -38.514  26.958   0.776  0.00  0.00    +0.209 C 
ATOM      9  C   UNL     1     -38.459  25.794  -0.194  0.00  0.00    +0.083 C 
ATOM     10  C   UNL     1     -36.153  26.451   2.783  0.00  0.00    +0.077 A 
ATOM     11  C   UNL     1     -36.283  27.551   1.887  0.00  0.00    +0.078 A 
ATOM     12  C   UNL     1     -39.297  24.371   2.995  0.00  0.00    +0.056 C 
ATOM     13  C   UNL     1     -34.998  26.512   3.646  0.00  0.00    +0.016 A 
ATOM     14  C   UNL     1     -36.283  24.502   3.669  0.00  0.00    +0.062 A 
ATOM     15  C   UNL     1     -35.249  28.562   1.988  0.00  0.00    +0.023 A 
ATOM     16  C   UNL     1     -36.898  28.826   0.277  0.00  0.00    +0.062 A 
ATOM     17  C   UNL     1     -35.165  25.189   4.238  0.00  0.00    +0.017 A 
ATOM     18  C   UNL     1     -34.051  27.524   3.776  0.00  0.00    +0.003 A 
ATOM     19  C   UNL     1     -35.726  29.388   0.869  0.00  0.00    +0.017 A 
ATOM     20  C   UNL     1     -34.196  28.591   2.899  0.00  0.00    +0.053 A 
ATOM     21  C   UNL     1     -32.836  27.702   4.624  0.00  0.00    +0.117 C 
ATOM     22  C   UNL     1     -36.511  23.151   4.001  0.00  0.00    +0.017 C 
ATOM     23  C   UNL     1     -33.102  29.530   3.138  0.00  0.00    +0.246 C 
ATOM     24  C   UNL     1     -37.525  29.439  -0.827  0.00  0.00    +0.017 C 
ATOM     25  C   UNL     1     -34.366  24.506   5.190  0.00  0.00    +0.001 C 
ATOM     26  C   UNL     1     -35.224  30.585   0.297  0.00  0.00    +0.001 C 
ATOM     27  C   UNL     1     -35.693  22.511   4.936  0.00  0.00    +0.001 C 
ATOM     28  C   UNL     1     -34.641  23.184   5.537  0.00  0.00    +0.000 C 
ATOM     29  C   UNL     1     -36.992  30.617  -1.351  0.00  0.00    +0.001 C 
ATOM     30  C   UNL     1     -35.856  31.184  -0.798  0.00  0.00    +0.000 C 
ATOM     31  H   UNL     1     -31.524  29.406   4.518  0.00  0.00    +0.150 HD
ENDROOT
BRANCH   7  32
ATOM     32  O   UNL     1     -36.724  24.234   0.407  0.00  0.00    -0.384 OA
ATOM     33  H   UNL     1     -36.694  23.672  -0.384  0.00  0.00    +0.210 HD
ENDBRANCH   7  32
BRANCH   7  34
ATOM     34  C   UNL     1     -38.907  23.370   0.305  0.00  0.00    -0.050 C 
BRANCH  34  35
ATOM     35  N   UNL     1     -38.046  22.216   0.112  0.00  0.00    +0.387 N 
ATOM     36  H   UNL     1     -37.080  22.532   0.030  0.00  0.00    -0.084 HD
ATOM     37  H   UNL     1     -38.338  21.733  -0.736  0.00  0.00    -0.084 HD
BRANCH  35  38
ATOM     38  C   UNL     1     -38.151  21.290   1.233  0.00  0.00    -0.049 C 
BRANCH  38  39
ATOM     39  C   UNL     1     -36.987  20.317   1.263  0.00  0.00    +0.114 C 
BRANCH  39  40
ATOM     40  O   UNL     1     -36.810  19.834   2.589  0.00  0.00    -0.384 OA
ATOM     41  H   UNL     1     -37.159  20.483   3.219  0.00  0.00    +0.210 HD
ENDBRANCH  39  40
ENDBRANCH  38  39
ENDBRANCH  35  38
ENDBRANCH  34  35
ENDBRANCH   7  34
TORSDOF 6
ENDMDL
MODEL 8
REMARK VINA RESULT:      -6.5      4.907      9.656
REMARK  Name = 195773
REMARK  6 active torsions:
REMARK  status: ('A' for Active; 'I' for Inactive)
REMARK    1  A    between atoms: C_7  and  O_32
REMARK    2  A    between atoms: C_7  and  C_34
REMARK    3  A    between atoms: C_34  and  N_35
REMARK    4  A    between atoms: N_35  and  C_38
REMARK    5  A    between atoms: C_38  and  C_39
REMARK    6  A    between atoms: C_39  and  O_40
REMARK                            x       y       z     vdW  Elec       q    Type
REMARK                         _______ _______ _______ _____ _____    ______ ____
ROOT
ATOM      1  O   UNL     1     -38.609  25.242   0.374  0.00  0.00    -0.319 OA
ATOM      2  O   UNL     1     -36.379  18.371  -0.607  0.00  0.00    -0.270 OA
ATOM      3  N   UNL     1     -37.617  24.241   2.206  0.00  0.00    -0.306 N 
ATOM      4  N   UNL     1     -39.173  23.047  -0.036  0.00  0.00    -0.304 N 
ATOM      5  N   UNL     1     -34.927  18.930   1.142  0.00  0.00    -0.297 N 
ATOM      6  C   UNL     1     -38.553  25.291   1.816  0.00  0.00    +0.186 C 
ATOM      7  C   UNL     1     -40.006  25.019   2.320  0.00  0.00    +0.115 C 
ATOM      8  C   UNL     1     -39.683  24.392   0.028  0.00  0.00    +0.209 C 
ATOM      9  C   UNL     1     -40.770  24.625   1.059  0.00  0.00    +0.083 C 
ATOM     10  C   UNL     1     -37.340  23.030   1.613  0.00  0.00    +0.077 A 
ATOM     11  C   UNL     1     -38.090  22.454   0.547  0.00  0.00    +0.078 A 
ATOM     12  C   UNL     1     -38.024  26.718   2.044  0.00  0.00    +0.056 C 
ATOM     13  C   UNL     1     -36.269  22.201   2.109  0.00  0.00    +0.016 A 
ATOM     14  C   UNL     1     -36.764  24.199   3.317  0.00  0.00    +0.062 A 
ATOM     15  C   UNL     1     -37.655  21.139   0.119  0.00  0.00    +0.023 A 
ATOM     16  C   UNL     1     -39.604  22.058  -0.918  0.00  0.00    +0.062 A 
ATOM     17  C   UNL     1     -35.902  23.060   3.231  0.00  0.00    +0.017 A 
ATOM     18  C   UNL     1     -35.823  20.967   1.643  0.00  0.00    +0.003 A 
ATOM     19  C   UNL     1     -38.726  20.933  -0.868  0.00  0.00    +0.017 A 
ATOM     20  C   UNL     1     -36.561  20.424   0.600  0.00  0.00    +0.053 A 
ATOM     21  C   UNL     1     -34.738  20.033   2.062  0.00  0.00    +0.117 C 
ATOM     22  C   UNL     1     -36.666  25.062   4.427  0.00  0.00    +0.017 C 
ATOM     23  C   UNL     1     -35.991  19.121   0.267  0.00  0.00    +0.246 C 
ATOM     24  C   UNL     1     -40.717  22.078  -1.783  0.00  0.00    +0.017 C 
ATOM     25  C   UNL     1     -34.912  22.886   4.231  0.00  0.00    +0.001 C 
ATOM     26  C   UNL     1     -39.025  19.842  -1.724  0.00  0.00    +0.001 C 
ATOM     27  C   UNL     1     -35.683  24.848   5.397  0.00  0.00    +0.001 C 
ATOM     28  C   UNL     1     -34.804  23.782   5.294  0.00  0.00    +0.000 C 
ATOM     29  C   UNL     1     -40.966  20.980  -2.605  0.00  0.00    +0.001 C 
ATOM     30  C   UNL     1     -40.132  19.875  -2.578  0.00  0.00    +0.000 C 
ATOM     31  H   UNL     1     -34.359  18.125   1.136  0.00  0.00    +0.150 HD
ENDROOT
BRANCH   7  32
ATOM     32  O   UNL     1     -40.055  23.935   3.255  0.00  0.00    -0.384 OA
ATOM     33  H   UNL     1     -40.486  23.171   2.841  0.00  0.00    +0.210 HD
ENDBRANCH   7  32
BRANCH   7  34
ATOM     34  C   UNL     1     -40.695  26.185   3.030  0.00  0.00    -0.050 C 
BRANCH  34  35
ATOM     35  N   UNL     1     -42.113  26.208   2.715  0.00  0.00    +0.387 N 
ATOM     36  H   UNL     1     -42.453  25.250   2.641  0.00  0.00    -0.084 HD
ATOM     37  H   UNL     1     -42.240  26.703   1.833  0.00  0.00    -0.084 HD
BRANCH  35  38
ATOM     38  C   UNL     1     -42.869  26.904   3.749  0.00  0.00    -0.049 C 
BRANCH  38  39
ATOM     39  C   UNL     1     -42.758  28.410   3.602  0.00  0.00    +0.114 C 
BRANCH  39  40
ATOM     40  O   UNL     1     -42.087  28.948   4.735  0.00  0.00    -0.384 OA
ATOM     41  H   UNL     1     -41.974  29.904   4.619  0.00  0.00    +0.210 HD
ENDBRANCH  39  40
ENDBRANCH  38  39
ENDBRANCH  35  38
ENDBRANCH  34  35
ENDBRANCH   7  34
TORSDOF 6
ENDMDL
MODEL 9
REMARK VINA RESULT:      -6.5      2.420      6.746
REMARK  Name = 195773
REMARK  6 active torsions:
REMARK  status: ('A' for Active; 'I' for Inactive)
REMARK    1  A    between atoms: C_7  and  O_32
REMARK    2  A    between atoms: C_7  and  C_34
REMARK    3  A    between atoms: C_34  and  N_35
REMARK    4  A    between atoms: N_35  and  C_38
REMARK    5  A    between atoms: C_38  and  C_39
REMARK    6  A    between atoms: C_39  and  O_40
REMARK                            x       y       z     vdW  Elec       q    Type
REMARK                         _______ _______ _______ _____ _____    ______ ____
ROOT
ATOM      1  O   UNL     1     -34.567  27.883   0.361  0.00  0.00    -0.319 OA
ATOM      2  O   UNL     1     -32.247  26.762   7.180  0.00  0.00    -0.270 OA
ATOM      3  N   UNL     1     -34.043  29.785   1.564  0.00  0.00    -0.306 N 
ATOM      4  N   UNL     1     -35.044  27.135   2.486  0.00  0.00    -0.304 N 
ATOM      5  N   UNL     1     -31.239  28.847   6.841  0.00  0.00    -0.297 N 
ATOM      6  C   UNL     1     -34.849  29.296   0.451  0.00  0.00    +0.186 C 
ATOM      7  C   UNL     1     -36.383  29.419   0.720  0.00  0.00    +0.115 C 
ATOM      8  C   UNL     1     -35.539  27.213   1.136  0.00  0.00    +0.209 C 
ATOM      9  C   UNL     1     -36.835  27.982   0.965  0.00  0.00    +0.083 C 
ATOM     10  C   UNL     1     -33.649  29.154   2.723  0.00  0.00    +0.077 A 
ATOM     11  C   UNL     1     -34.134  27.891   3.168  0.00  0.00    +0.078 A 
ATOM     12  C   UNL     1     -34.373  29.782  -0.928  0.00  0.00    +0.056 C 
ATOM     13  C   UNL     1     -32.733  29.800   3.632  0.00  0.00    +0.016 A 
ATOM     14  C   UNL     1     -33.474  31.053   1.742  0.00  0.00    +0.062 A 
ATOM     15  C   UNL     1     -33.626  27.445   4.451  0.00  0.00    +0.023 A 
ATOM     16  C   UNL     1     -35.268  26.082   3.371  0.00  0.00    +0.062 A 
ATOM     17  C   UNL     1     -32.629  31.056   2.896  0.00  0.00    +0.017 A 
ATOM     18  C   UNL     1     -32.204  29.328   4.830  0.00  0.00    +0.003 A 
ATOM     19  C   UNL     1     -34.438  26.222   4.526  0.00  0.00    +0.017 A 
ATOM     20  C   UNL     1     -32.684  28.093   5.246  0.00  0.00    +0.053 A 
ATOM     21  C   UNL     1     -31.258  29.891   5.838  0.00  0.00    +0.117 C 
ATOM     22  C   UNL     1     -33.630  32.237   0.992  0.00  0.00    +0.017 C 
ATOM     23  C   UNL     1     -32.066  27.772   6.531  0.00  0.00    +0.246 C 
ATOM     24  C   UNL     1     -36.147  24.989   3.231  0.00  0.00    +0.017 C 
ATOM     25  C   UNL     1     -31.904  32.236   3.199  0.00  0.00    +0.001 C 
ATOM     26  C   UNL     1     -34.540  25.214   5.520  0.00  0.00    +0.001 C 
ATOM     27  C   UNL     1     -32.904  33.382   1.331  0.00  0.00    +0.001 C 
ATOM     28  C   UNL     1     -32.038  33.379   2.412  0.00  0.00    +0.000 C 
ATOM     29  C   UNL     1     -36.208  24.025   4.237  0.00  0.00    +0.001 C 
ATOM     30  C   UNL     1     -35.416  24.135   5.368  0.00  0.00    +0.000 C 
ATOM     31  H   UNL     1     -30.695  28.892   7.660  0.00  0.00    +0.150 HD
ENDROOT
BRANCH   7  32
ATOM     32  O   UNL     1     -36.663  30.203   1.885  0.00  0.00    -0.384 OA
ATOM     33  H   UNL     1     -36.540  31.143   1.679  0.00  0.00    +0.210 HD
ENDBRANCH   7  32
BRANCH   7  34
ATOM     34  C   UNL     1     -37.206  30.063  -0.397  0.00  0.00    -0.050 C 
BRANCH  34  35
ATOM     35  N   UNL     1     -38.509  29.429  -0.501  0.00  0.00    +0.387 N 
ATOM     36  H   UNL     1     -38.655  28.831   0.312  0.00  0.00    -0.084 HD
ATOM     37  H   UNL     1     -38.533  28.879  -1.359  0.00  0.00    -0.084 HD
BRANCH  35  38
ATOM     38  C   UNL     1     -39.573  30.424  -0.558  0.00  0.00    -0.049 C 
BRANCH  38  39
ATOM     39  C   UNL     1     -39.097  31.778  -0.066  0.00  0.00    +0.114 C 
BRANCH  39  40
ATOM     40  O   UNL     1     -39.338  31.884   1.332  0.00  0.00    -0.384 OA
ATOM     41  H   UNL     1     -40.241  32.206   1.480  0.00  0.00    +0.210 HD
ENDBRANCH  39  40
ENDBRANCH  38  39
ENDBRANCH  35  38
ENDBRANCH  34  35
ENDBRANCH   7  34
TORSDOF 6
ENDMDL
