MODEL 1
REMARK VINA RESULT:      -6.0      0.000      0.000
REMARK  Name = 57347175
REMARK  8 active torsions:
REMARK  status: ('A' for Active; 'I' for Inactive)
REMARK    1  A    between atoms: N_1  and  N_5
REMARK    2  A    between atoms: C_2  and  C_17
REMARK    3  A    between atoms: N_4  and  C_7
REMARK    4  A    between atoms: N_4  and  C_11
REMARK    5  A    between atoms: N_16  and  C_17
REMARK    6  A    between atoms: N_16  and  N_19
REMARK    7  A    between atoms: N_18  and  C_21
REMARK    8  A    between atoms: N_18  and  C_25
REMARK                            x       y       z     vdW  Elec       q    Type
REMARK                         _______ _______ _______ _____ _____    ______ ____
ROOT
ATOM      1  N   UNL     1     -38.681  23.047   2.378  0.00  0.00    -0.178 NA
ATOM      2  C   UNL     1     -38.079  22.509   1.364  0.00  0.00    +0.076 C 
ATOM      3  C   UNL     1     -37.200  23.190   0.354  0.00  0.00    +0.051 C 
ENDROOT
BRANCH   1   4
ATOM      4  N   UNL     1     -38.510  24.376   2.557  0.00  0.00    -0.247 N 
ATOM      5  N   UNL     1     -37.758  26.295   3.534  0.00  0.00    -0.369 N 
ATOM      6  C   UNL     1     -37.763  24.917   3.592  0.00  0.00    +0.212 C 
ATOM      7  H   UNL     1     -38.939  24.992   1.920  0.00  0.00    +0.192 HD
ATOM      8  H   UNL     1     -37.264  26.814   4.210  0.00  0.00    +0.159 HD
ATOM      9  H   UNL     1     -38.248  26.760   2.817  0.00  0.00    +0.159 HD
BRANCH   6  10
ATOM     10  N   UNL     1     -37.167  24.170   4.474  0.00  0.00    -0.241 NA
BRANCH  10  11
ATOM     11  C   UNL     1     -35.711  24.114   4.428  0.00  0.00    +0.106 C 
ATOM     12  C   UNL     1     -35.268  22.911   3.609  0.00  0.00    +0.024 C 
ATOM     13  C   UNL     1     -35.161  23.813   5.813  0.00  0.00    +0.024 C 
ATOM     14  C   UNL     1     -35.388  21.725   4.563  0.00  0.00    +0.002 C 
ATOM     15  C   UNL     1     -35.323  22.303   5.976  0.00  0.00    +0.002 C 
ENDBRANCH  10  11
ENDBRANCH   6  10
ENDBRANCH   1   4
BRANCH   2  16
ATOM     16  C   UNL     1     -38.264  21.036   1.185  0.00  0.00    +0.157 C 
BRANCH  16  17
ATOM     17  N   UNL     1     -37.919  20.503   0.065  0.00  0.00    -0.116 NA
BRANCH  17  18
ATOM     18  N   UNL     1     -37.667  19.176   0.158  0.00  0.00    -0.273 N 
ATOM     19  N   UNL     1     -36.439  17.255   0.192  0.00  0.00    -0.369 N 
ATOM     20  C   UNL     1     -36.399  18.626   0.061  0.00  0.00    +0.207 C 
ATOM     21  H   UNL     1     -38.427  18.567   0.301  0.00  0.00    +0.185 HD
ATOM     22  H   UNL     1     -35.606  16.730   0.144  0.00  0.00    +0.159 HD
ATOM     23  H   UNL     1     -37.300  16.799   0.333  0.00  0.00    +0.159 HD
BRANCH  20  24
ATOM     24  N   UNL     1     -35.343  19.363  -0.128  0.00  0.00    -0.241 NA
BRANCH  24  25
ATOM     25  C   UNL     1     -34.705  19.930   1.053  0.00  0.00    +0.106 C 
ATOM     26  C   UNL     1     -33.570  19.028   1.511  0.00  0.00    +0.024 C 
ATOM     27  C   UNL     1     -33.992  21.221   0.681  0.00  0.00    +0.024 C 
ATOM     28  C   UNL     1     -32.406  19.364   0.584  0.00  0.00    +0.002 C 
ATOM     29  C   UNL     1     -32.673  20.773   0.055  0.00  0.00    +0.002 C 
ENDBRANCH  24  25
ENDBRANCH  20  24
ENDBRANCH  17  18
ENDBRANCH  16  17
ENDBRANCH   2  16
TORSDOF 8
ENDMDL
MODEL 2
REMARK VINA RESULT:      -6.0      2.299      5.556
REMARK  Name = 57347175
REMARK  8 active torsions:
REMARK  status: ('A' for Active; 'I' for Inactive)
REMARK    1  A    between atoms: N_1  and  N_5
REMARK    2  A    between atoms: C_2  and  C_17
REMARK    3  A    between atoms: N_4  and  C_7
REMARK    4  A    between atoms: N_4  and  C_11
REMARK    5  A    between atoms: N_16  and  C_17
REMARK    6  A    between atoms: N_16  and  N_19
REMARK    7  A    between atoms: N_18  and  C_21
REMARK    8  A    between atoms: N_18  and  C_25
REMARK                            x       y       z     vdW  Elec       q    Type
REMARK                         _______ _______ _______ _____ _____    ______ ____
ROOT
ATOM      1  N   UNL     1     -37.713  21.055   1.782  0.00  0.00    -0.178 NA
ATOM      2  C   UNL     1     -36.678  20.335   1.482  0.00  0.00    +0.076 C 
ATOM      3  C   UNL     1     -36.565  19.298   0.403  0.00  0.00    +0.051 C 
ENDROOT
BRANCH   1   4
ATOM      4  N   UNL     1     -38.831  20.857   1.046  0.00  0.00    -0.247 N 
ATOM      5  N   UNL     1     -40.962  21.201   0.309  0.00  0.00    -0.369 N 
ATOM      6  C   UNL     1     -39.979  21.621   1.181  0.00  0.00    +0.212 C 
ATOM      7  H   UNL     1     -38.828  20.132   0.381  0.00  0.00    +0.192 HD
ATOM      8  H   UNL     1     -41.834  21.656   0.295  0.00  0.00    +0.159 HD
ATOM      9  H   UNL     1     -40.789  20.446  -0.300  0.00  0.00    +0.159 HD
BRANCH   6  10
ATOM     10  N   UNL     1     -40.060  22.596   2.038  0.00  0.00    -0.241 NA
BRANCH  10  11
ATOM     11  C   UNL     1     -40.236  23.941   1.505  0.00  0.00    +0.106 C 
ATOM     12  C   UNL     1     -38.985  24.361   0.749  0.00  0.00    +0.024 C 
ATOM     13  C   UNL     1     -40.305  24.944   2.646  0.00  0.00    +0.024 C 
ATOM     14  C   UNL     1     -38.004  24.805   1.832  0.00  0.00    +0.002 C 
ATOM     15  C   UNL     1     -38.850  25.175   3.050  0.00  0.00    +0.002 C 
ENDBRANCH  10  11
ENDBRANCH   6  10
ENDBRANCH   1   4
BRANCH   2  16
ATOM     16  C   UNL     1     -35.445  20.574   2.293  0.00  0.00    +0.157 C 
BRANCH  16  17
ATOM     17  N   UNL     1     -35.371  21.646   3.003  0.00  0.00    -0.116 NA
BRANCH  17  18
ATOM     18  N   UNL     1     -35.536  21.425   4.327  0.00  0.00    -0.273 N 
ATOM     19  N   UNL     1     -35.983  21.904   6.512  0.00  0.00    -0.369 N 
ATOM     20  C   UNL     1     -35.886  22.412   5.234  0.00  0.00    +0.207 C 
ATOM     21  H   UNL     1     -35.400  20.511   4.667  0.00  0.00    +0.185 HD
ATOM     22  H   UNL     1     -36.226  22.496   7.261  0.00  0.00    +0.159 HD
ATOM     23  H   UNL     1     -35.811  20.949   6.676  0.00  0.00    +0.159 HD
BRANCH  20  24
ATOM     24  N   UNL     1     -36.083  23.645   4.866  0.00  0.00    -0.241 NA
BRANCH  24  25
ATOM     25  C   UNL     1     -35.236  24.665   5.469  0.00  0.00    +0.106 C 
ATOM     26  C   UNL     1     -33.932  24.777   4.694  0.00  0.00    +0.024 C 
ATOM     27  C   UNL     1     -35.869  26.035   5.281  0.00  0.00    +0.024 C 
ATOM     28  C   UNL     1     -34.275  25.626   3.473  0.00  0.00    +0.002 C 
ATOM     29  C   UNL     1     -35.515  26.436   3.851  0.00  0.00    +0.002 C 
ENDBRANCH  24  25
ENDBRANCH  20  24
ENDBRANCH  17  18
ENDBRANCH  16  17
ENDBRANCH   2  16
TORSDOF 8
ENDMDL
MODEL 3
REMARK VINA RESULT:      -6.0      1.405      2.088
REMARK  Name = 57347175
REMARK  8 active torsions:
REMARK  status: ('A' for Active; 'I' for Inactive)
REMARK    1  A    between atoms: N_1  and  N_5
REMARK    2  A    between atoms: C_2  and  C_17
REMARK    3  A    between atoms: N_4  and  C_7
REMARK    4  A    between atoms: N_4  and  C_11
REMARK    5  A    between atoms: N_16  and  C_17
REMARK    6  A    between atoms: N_16  and  N_19
REMARK    7  A    between atoms: N_18  and  C_21
REMARK    8  A    between atoms: N_18  and  C_25
REMARK                            x       y       z     vdW  Elec       q    Type
REMARK                         _______ _______ _______ _____ _____    ______ ____
ROOT
ATOM      1  N   UNL     1     -38.614  24.625   3.605  0.00  0.00    -0.178 NA
ATOM      2  C   UNL     1     -38.538  24.098   2.423  0.00  0.00    +0.076 C 
ATOM      3  C   UNL     1     -37.638  24.506   1.294  0.00  0.00    +0.051 C 
ENDROOT
BRANCH   1   4
ATOM      4  N   UNL     1     -37.793  25.668   3.863  0.00  0.00    -0.247 N 
ATOM      5  N   UNL     1     -36.028  26.791   4.772  0.00  0.00    -0.369 N 
ATOM      6  C   UNL     1     -36.681  25.580   4.686  0.00  0.00    +0.212 C 
ATOM      7  H   UNL     1     -37.997  26.536   3.446  0.00  0.00    +0.192 HD
ATOM      8  H   UNL     1     -35.218  26.875   5.325  0.00  0.00    +0.159 HD
ATOM      9  H   UNL     1     -36.373  27.572   4.281  0.00  0.00    +0.159 HD
BRANCH   6  10
ATOM     10  N   UNL     1     -36.347  24.468   5.273  0.00  0.00    -0.241 NA
BRANCH  10  11
ATOM     11  C   UNL     1     -35.023  23.932   4.985  0.00  0.00    +0.106 C 
ATOM     12  C   UNL     1     -35.020  23.282   3.610  0.00  0.00    +0.024 C 
ATOM     13  C   UNL     1     -34.721  22.770   5.918  0.00  0.00    +0.024 C 
ATOM     14  C   UNL     1     -35.645  21.906   3.827  0.00  0.00    +0.002 C 
ATOM     15  C   UNL     1     -35.457  21.579   5.309  0.00  0.00    +0.002 C 
ENDBRANCH  10  11
ENDBRANCH   6  10
ENDBRANCH   1   4
BRANCH   2  16
ATOM     16  C   UNL     1     -39.441  22.935   2.155  0.00  0.00    +0.157 C 
BRANCH  16  17
ATOM     17  N   UNL     1     -38.961  21.745   2.259  0.00  0.00    -0.116 NA
BRANCH  17  18
ATOM     18  N   UNL     1     -39.169  20.985   1.158  0.00  0.00    -0.273 N 
ATOM     19  N   UNL     1     -38.648  19.735  -0.677  0.00  0.00    -0.369 N 
ATOM     20  C   UNL     1     -38.147  20.468   0.377  0.00  0.00    +0.207 C 
ATOM     21  H   UNL     1     -40.097  20.789   0.897  0.00  0.00    +0.185 HD
ATOM     22  H   UNL     1     -38.033  19.306  -1.316  0.00  0.00    +0.159 HD
ATOM     23  H   UNL     1     -39.622  19.639  -0.790  0.00  0.00    +0.159 HD
BRANCH  20  24
ATOM     24  N   UNL     1     -36.894  20.681   0.655  0.00  0.00    -0.241 NA
BRANCH  24  25
ATOM     25  C   UNL     1     -35.905  20.149  -0.273  0.00  0.00    +0.106 C 
ATOM     26  C   UNL     1     -34.832  21.192  -0.540  0.00  0.00    +0.024 C 
ATOM     27  C   UNL     1     -35.133  19.019   0.392  0.00  0.00    +0.024 C 
ATOM     28  C   UNL     1     -33.903  21.113   0.669  0.00  0.00    +0.002 C 
ATOM     29  C   UNL     1     -34.093  19.718   1.264  0.00  0.00    +0.002 C 
ENDBRANCH  24  25
ENDBRANCH  20  24
ENDBRANCH  17  18
ENDBRANCH  16  17
ENDBRANCH   2  16
TORSDOF 8
ENDMDL
MODEL 4
REMARK VINA RESULT:      -5.9      3.382      5.931
REMARK  Name = 57347175
REMARK  8 active torsions:
REMARK  status: ('A' for Active; 'I' for Inactive)
REMARK    1  A    between atoms: N_1  and  N_5
REMARK    2  A    between atoms: C_2  and  C_17
REMARK    3  A    between atoms: N_4  and  C_7
REMARK    4  A    between atoms: N_4  and  C_11
REMARK    5  A    between atoms: N_16  and  C_17
REMARK    6  A    between atoms: N_16  and  N_19
REMARK    7  A    between atoms: N_18  and  C_21
REMARK    8  A    between atoms: N_18  and  C_25
REMARK                            x       y       z     vdW  Elec       q    Type
REMARK                         _______ _______ _______ _____ _____    ______ ____
ROOT
ATOM      1  N   UNL     1     -38.399  24.176   3.283  0.00  0.00    -0.178 NA
ATOM      2  C   UNL     1     -38.503  23.086   2.591  0.00  0.00    +0.076 C 
ATOM      3  C   UNL     1     -39.761  22.382   2.173  0.00  0.00    +0.051 C 
ENDROOT
BRANCH   1   4
ATOM      4  N   UNL     1     -39.552  24.758   3.686  0.00  0.00    -0.247 N 
ATOM      5  N   UNL     1     -41.239  26.293   3.733  0.00  0.00    -0.369 N 
ATOM      6  C   UNL     1     -40.052  25.926   3.134  0.00  0.00    +0.212 C 
ATOM      7  H   UNL     1     -40.063  24.328   4.409  0.00  0.00    +0.192 HD
ATOM      8  H   UNL     1     -41.708  27.106   3.439  0.00  0.00    +0.159 HD
ATOM      9  H   UNL     1     -41.617  25.739   4.455  0.00  0.00    +0.159 HD
BRANCH   6  10
ATOM     10  N   UNL     1     -39.435  26.553   2.175  0.00  0.00    -0.241 NA
BRANCH  10  11
ATOM     11  C   UNL     1     -40.176  26.779   0.940  0.00  0.00    +0.106 C 
ATOM     12  C   UNL     1     -40.436  25.451   0.246  0.00  0.00    +0.024 C 
ATOM     13  C   UNL     1     -39.304  27.527  -0.056  0.00  0.00    +0.024 C 
ATOM     14  C   UNL     1     -39.130  25.125  -0.474  0.00  0.00    +0.002 C 
ATOM     15  C   UNL     1     -38.401  26.455  -0.664  0.00  0.00    +0.002 C 
ENDBRANCH  10  11
ENDBRANCH   6  10
ENDBRANCH   1   4
BRANCH   2  16
ATOM     16  C   UNL     1     -37.221  22.461   2.139  0.00  0.00    +0.157 C 
BRANCH  16  17
ATOM     17  N   UNL     1     -36.164  22.636   2.853  0.00  0.00    -0.116 NA
BRANCH  17  18
ATOM     18  N   UNL     1     -36.301  22.203   4.128  0.00  0.00    -0.273 N 
ATOM     19  N   UNL     1     -35.969  22.131   6.384  0.00  0.00    -0.369 N 
ATOM     20  C   UNL     1     -35.644  22.773   5.207  0.00  0.00    +0.207 C 
ATOM     21  H   UNL     1     -36.899  21.441   4.299  0.00  0.00    +0.185 HD
ATOM     22  H   UNL     1     -35.575  22.432   7.234  0.00  0.00    +0.159 HD
ATOM     23  H   UNL     1     -36.596  21.372   6.373  0.00  0.00    +0.159 HD
BRANCH  20  24
ATOM     24  N   UNL     1     -34.836  23.783   5.065  0.00  0.00    -0.241 NA
BRANCH  24  25
ATOM     25  C   UNL     1     -35.142  24.992   5.819  0.00  0.00    +0.106 C 
ATOM     26  C   UNL     1     -33.933  25.914   5.831  0.00  0.00    +0.024 C 
ATOM     27  C   UNL     1     -36.192  25.807   5.078  0.00  0.00    +0.024 C 
ATOM     28  C   UNL     1     -33.966  26.617   4.476  0.00  0.00    +0.002 C 
ATOM     29  C   UNL     1     -35.415  26.553   3.996  0.00  0.00    +0.002 C 
ENDBRANCH  24  25
ENDBRANCH  20  24
ENDBRANCH  17  18
ENDBRANCH  16  17
ENDBRANCH   2  16
TORSDOF 8
ENDMDL
MODEL 5
REMARK VINA RESULT:      -5.9      1.859      2.716
REMARK  Name = 57347175
REMARK  8 active torsions:
REMARK  status: ('A' for Active; 'I' for Inactive)
REMARK    1  A    between atoms: N_1  and  N_5
REMARK    2  A    between atoms: C_2  and  C_17
REMARK    3  A    between atoms: N_4  and  C_7
REMARK    4  A    between atoms: N_4  and  C_11
REMARK    5  A    between atoms: N_16  and  C_17
REMARK    6  A    between atoms: N_16  and  N_19
REMARK    7  A    between atoms: N_18  and  C_21
REMARK    8  A    between atoms: N_18  and  C_25
REMARK                            x       y       z     vdW  Elec       q    Type
REMARK                         _______ _______ _______ _____ _____    ______ ____
ROOT
ATOM      1  N   UNL     1     -35.680  21.922   2.848  0.00  0.00    -0.178 NA
ATOM      2  C   UNL     1     -36.641  22.419   2.135  0.00  0.00    +0.076 C 
ATOM      3  C   UNL     1     -38.038  22.743   2.578  0.00  0.00    +0.051 C 
ENDROOT
BRANCH   1   4
ATOM      4  N   UNL     1     -35.954  21.656   4.145  0.00  0.00    -0.247 N 
ATOM      5  N   UNL     1     -35.951  21.950   6.407  0.00  0.00    -0.369 N 
ATOM      6  C   UNL     1     -35.532  22.456   5.195  0.00  0.00    +0.212 C 
ATOM      7  H   UNL     1     -36.481  20.852   4.355  0.00  0.00    +0.192 HD
ATOM      8  H   UNL     1     -35.722  22.419   7.242  0.00  0.00    +0.159 HD
ATOM      9  H   UNL     1     -36.481  21.120   6.437  0.00  0.00    +0.159 HD
BRANCH   6  10
ATOM     10  N   UNL     1     -34.831  23.535   4.999  0.00  0.00    -0.241 NA
BRANCH  10  11
ATOM     11  C   UNL     1     -35.321  24.768   5.601  0.00  0.00    +0.106 C 
ATOM     12  C   UNL     1     -36.434  25.351   4.745  0.00  0.00    +0.024 C 
ATOM     13  C   UNL     1     -34.241  25.837   5.541  0.00  0.00    +0.024 C 
ATOM     14  C   UNL     1     -35.715  26.070   3.606  0.00  0.00    +0.002 C 
ATOM     15  C   UNL     1     -34.308  26.378   4.114  0.00  0.00    +0.002 C 
ENDBRANCH  10  11
ENDBRANCH   6  10
ENDBRANCH   1   4
BRANCH   2  16
ATOM     16  C   UNL     1     -36.320  22.722   0.706  0.00  0.00    +0.157 C 
BRANCH  16  17
ATOM     17  N   UNL     1     -36.004  21.749  -0.076  0.00  0.00    -0.116 NA
BRANCH  17  18
ATOM     18  N   UNL     1     -36.592  20.577   0.261  0.00  0.00    -0.273 N 
ATOM     19  N   UNL     1     -36.771  18.339   0.662  0.00  0.00    -0.369 N 
ATOM     20  C   UNL     1     -35.928  19.362   0.283  0.00  0.00    +0.207 C 
ATOM     21  H   UNL     1     -37.546  20.589   0.504  0.00  0.00    +0.185 HD
ATOM     22  H   UNL     1     -36.432  17.417   0.721  0.00  0.00    +0.159 HD
ATOM     23  H   UNL     1     -37.714  18.532   0.873  0.00  0.00    +0.159 HD
BRANCH  20  24
ATOM     24  N   UNL     1     -34.667  19.262  -0.024  0.00  0.00    -0.241 NA
BRANCH  24  25
ATOM     25  C   UNL     1     -33.700  19.620   1.005  0.00  0.00    +0.106 C 
ATOM     26  C   UNL     1     -32.982  18.373   1.497  0.00  0.00    +0.024 C 
ATOM     27  C   UNL     1     -32.579  20.445   0.390  0.00  0.00    +0.024 C 
ATOM     28  C   UNL     1     -31.919  18.092   0.438  0.00  0.00    +0.002 C 
ATOM     29  C   UNL     1     -31.657  19.421  -0.268  0.00  0.00    +0.002 C 
ENDBRANCH  24  25
ENDBRANCH  20  24
ENDBRANCH  17  18
ENDBRANCH  16  17
ENDBRANCH   2  16
TORSDOF 8
ENDMDL
MODEL 6
REMARK VINA RESULT:      -5.9      1.768      6.522
REMARK  Name = 57347175
REMARK  8 active torsions:
REMARK  status: ('A' for Active; 'I' for Inactive)
REMARK    1  A    between atoms: N_1  and  N_5
REMARK    2  A    between atoms: C_2  and  C_17
REMARK    3  A    between atoms: N_4  and  C_7
REMARK    4  A    between atoms: N_4  and  C_11
REMARK    5  A    between atoms: N_16  and  C_17
REMARK    6  A    between atoms: N_16  and  N_19
REMARK    7  A    between atoms: N_18  and  C_21
REMARK    8  A    between atoms: N_18  and  C_25
REMARK                            x       y       z     vdW  Elec       q    Type
REMARK                         _______ _______ _______ _____ _____    ______ ____
ROOT
ATOM      1  N   UNL     1     -36.978  20.848   1.577  0.00  0.00    -0.178 NA
ATOM      2  C   UNL     1     -37.905  21.720   1.822  0.00  0.00    +0.076 C 
ATOM      3  C   UNL     1     -39.391  21.535   1.712  0.00  0.00    +0.051 C 
ENDROOT
BRANCH   1   4
ATOM      4  N   UNL     1     -37.383  19.623   1.170  0.00  0.00    -0.247 N 
ATOM      5  N   UNL     1     -37.277  17.613   0.097  0.00  0.00    -0.369 N 
ATOM      6  C   UNL     1     -36.622  18.800   0.355  0.00  0.00    +0.212 C 
ATOM      7  H   UNL     1     -38.264  19.300   1.467  0.00  0.00    +0.192 HD
ATOM      8  H   UNL     1     -36.851  16.931  -0.471  0.00  0.00    +0.159 HD
ATOM      9  H   UNL     1     -38.168  17.450   0.481  0.00  0.00    +0.159 HD
BRANCH   6  10
ATOM     10  N   UNL     1     -35.449  19.156  -0.080  0.00  0.00    -0.241 NA
BRANCH  10  11
ATOM     11  C   UNL     1     -34.314  18.326   0.305  0.00  0.00    +0.106 C 
ATOM     12  C   UNL     1     -33.471  19.057   1.339  0.00  0.00    +0.024 C 
ATOM     13  C   UNL     1     -33.364  18.172  -0.871  0.00  0.00    +0.024 C 
ATOM     14  C   UNL     1     -32.619  20.032   0.529  0.00  0.00    +0.002 C 
ATOM     15  C   UNL     1     -32.553  19.466  -0.889  0.00  0.00    +0.002 C 
ENDBRANCH  10  11
ENDBRANCH   6  10
ENDBRANCH   1   4
BRANCH   2  16
ATOM     16  C   UNL     1     -37.445  23.066   2.286  0.00  0.00    +0.157 C 
BRANCH  16  17
ATOM     17  N   UNL     1     -36.353  23.145   2.963  0.00  0.00    -0.116 NA
BRANCH  17  18
ATOM     18  N   UNL     1     -36.429  22.546   4.175  0.00  0.00    -0.273 N 
ATOM     19  N   UNL     1     -35.946  22.140   6.366  0.00  0.00    -0.369 N 
ATOM     20  C   UNL     1     -35.663  22.921   5.267  0.00  0.00    +0.207 C 
ATOM     21  H   UNL     1     -37.063  21.801   4.287  0.00  0.00    +0.185 HD
ATOM     22  H   UNL     1     -35.475  22.296   7.217  0.00  0.00    +0.159 HD
ATOM     23  H   UNL     1     -36.622  21.426   6.301  0.00  0.00    +0.159 HD
BRANCH  20  24
ATOM     24  N   UNL     1     -34.802  23.895   5.201  0.00  0.00    -0.241 NA
BRANCH  24  25
ATOM     25  C   UNL     1     -35.150  25.138   5.875  0.00  0.00    +0.106 C 
ATOM     26  C   UNL     1     -33.942  26.061   5.914  0.00  0.00    +0.024 C 
ATOM     27  C   UNL     1     -36.152  25.915   5.035  0.00  0.00    +0.024 C 
ATOM     28  C   UNL     1     -33.892  26.697   4.528  0.00  0.00    +0.002 C 
ATOM     29  C   UNL     1     -35.311  26.608   3.966  0.00  0.00    +0.002 C 
ENDBRANCH  24  25
ENDBRANCH  20  24
ENDBRANCH  17  18
ENDBRANCH  16  17
ENDBRANCH   2  16
TORSDOF 8
ENDMDL
MODEL 7
REMARK VINA RESULT:      -5.9      3.553      5.790
REMARK  Name = 57347175
REMARK  8 active torsions:
REMARK  status: ('A' for Active; 'I' for Inactive)
REMARK    1  A    between atoms: N_1  and  N_5
REMARK    2  A    between atoms: C_2  and  C_17
REMARK    3  A    between atoms: N_4  and  C_7
REMARK    4  A    between atoms: N_4  and  C_11
REMARK    5  A    between atoms: N_16  and  C_17
REMARK    6  A    between atoms: N_16  and  N_19
REMARK    7  A    between atoms: N_18  and  C_21
REMARK    8  A    between atoms: N_18  and  C_25
REMARK                            x       y       z     vdW  Elec       q    Type
REMARK                         _______ _______ _______ _____ _____    ______ ____
ROOT
ATOM      1  N   UNL     1     -37.202  26.003   3.069  0.00  0.00    -0.178 NA
ATOM      2  C   UNL     1     -36.731  26.514   1.975  0.00  0.00    +0.076 C 
ATOM      3  C   UNL     1     -37.468  27.332   0.954  0.00  0.00    +0.051 C 
ENDROOT
BRANCH   1   4
ATOM      4  N   UNL     1     -38.511  26.222   3.333  0.00  0.00    -0.247 N 
ATOM      5  N   UNL     1     -40.716  25.722   3.637  0.00  0.00    -0.369 N 
ATOM      6  C   UNL     1     -39.467  25.218   3.339  0.00  0.00    +0.212 C 
ATOM      7  H   UNL     1     -38.799  27.142   3.529  0.00  0.00    +0.192 HD
ATOM      8  H   UNL     1     -41.492  25.119   3.677  0.00  0.00    +0.159 HD
ATOM      9  H   UNL     1     -40.829  26.685   3.811  0.00  0.00    +0.159 HD
BRANCH   6  10
ATOM     10  N   UNL     1     -39.164  23.978   3.088  0.00  0.00    -0.241 NA
BRANCH  10  11
ATOM     11  C   UNL     1     -39.767  23.369   1.909  0.00  0.00    +0.106 C 
ATOM     12  C   UNL     1     -39.603  21.859   1.970  0.00  0.00    +0.024 C 
ATOM     13  C   UNL     1     -38.978  23.754   0.668  0.00  0.00    +0.024 C 
ATOM     14  C   UNL     1     -38.173  21.602   1.501  0.00  0.00    +0.002 C 
ATOM     15  C   UNL     1     -37.771  22.819   0.669  0.00  0.00    +0.002 C 
ENDBRANCH  10  11
ENDBRANCH   6  10
ENDBRANCH   1   4
BRANCH   2  16
ATOM     16  C   UNL     1     -35.280  26.278   1.703  0.00  0.00    +0.157 C 
BRANCH  16  17
ATOM     17  N   UNL     1     -34.604  25.564   2.534  0.00  0.00    -0.116 NA
BRANCH  17  18
ATOM     18  N   UNL     1     -34.374  26.188   3.713  0.00  0.00    -0.273 N 
ATOM     19  N   UNL     1     -33.998  26.406   5.952  0.00  0.00    -0.369 N 
ATOM     20  C   UNL     1     -34.219  25.521   4.918  0.00  0.00    +0.207 C 
ATOM     21  H   UNL     1     -34.315  27.170   3.716  0.00  0.00    +0.185 HD
ATOM     22  H   UNL     1     -33.869  26.070   6.869  0.00  0.00    +0.159 HD
ATOM     23  H   UNL     1     -33.968  27.373   5.773  0.00  0.00    +0.159 HD
BRANCH  20  24
ATOM     24  N   UNL     1     -34.285  24.224   5.000  0.00  0.00    -0.241 NA
BRANCH  24  25
ATOM     25  C   UNL     1     -35.569  23.643   5.369  0.00  0.00    +0.106 C 
ATOM     26  C   UNL     1     -36.150  22.881   4.188  0.00  0.00    +0.024 C 
ATOM     27  C   UNL     1     -35.360  22.557   6.413  0.00  0.00    +0.024 C 
ATOM     28  C   UNL     1     -35.418  21.542   4.190  0.00  0.00    +0.002 C 
ATOM     29  C   UNL     1     -34.915  21.332   5.618  0.00  0.00    +0.002 C 
ENDBRANCH  24  25
ENDBRANCH  20  24
ENDBRANCH  17  18
ENDBRANCH  16  17
ENDBRANCH   2  16
TORSDOF 8
ENDMDL
MODEL 8
REMARK VINA RESULT:      -5.9      3.983      7.797
REMARK  Name = 57347175
REMARK  8 active torsions:
REMARK  status: ('A' for Active; 'I' for Inactive)
REMARK    1  A    between atoms: N_1  and  N_5
REMARK    2  A    between atoms: C_2  and  C_17
REMARK    3  A    between atoms: N_4  and  C_7
REMARK    4  A    between atoms: N_4  and  C_11
REMARK    5  A    between atoms: N_16  and  C_17
REMARK    6  A    between atoms: N_16  and  N_19
REMARK    7  A    between atoms: N_18  and  C_21
REMARK    8  A    between atoms: N_18  and  C_25
REMARK                            x       y       z     vdW  Elec       q    Type
REMARK                         _______ _______ _______ _____ _____    ______ ____
ROOT
ATOM      1  N   UNL     1     -36.810  24.081   4.313  0.00  0.00    -0.178 NA
ATOM      2  C   UNL     1     -35.884  24.221   5.208  0.00  0.00    +0.076 C 
ATOM      3  C   UNL     1     -34.980  23.159   5.766  0.00  0.00    +0.051 C 
ENDROOT
BRANCH   1   4
ATOM      4  N   UNL     1     -36.998  22.837   3.815  0.00  0.00    -0.247 N 
ATOM      5  N   UNL     1     -37.804  21.218   2.425  0.00  0.00    -0.369 N 
ATOM      6  C   UNL     1     -37.791  22.568   2.711  0.00  0.00    +0.212 C 
ATOM      7  H   UNL     1     -36.548  22.084   4.261  0.00  0.00    +0.192 HD
ATOM      8  H   UNL     1     -38.329  20.883   1.663  0.00  0.00    +0.159 HD
ATOM      9  H   UNL     1     -37.288  20.592   2.983  0.00  0.00    +0.159 HD
BRANCH   6  10
ATOM     10  N   UNL     1     -38.418  23.509   2.069  0.00  0.00    -0.241 NA
BRANCH  10  11
ATOM     11  C   UNL     1     -39.834  23.689   2.364  0.00  0.00    +0.106 C 
ATOM     12  C   UNL     1     -40.604  23.912   1.071  0.00  0.00    +0.024 C 
ATOM     13  C   UNL     1     -40.044  24.991   3.120  0.00  0.00    +0.024 C 
ATOM     14  C   UNL     1     -40.380  25.383   0.731  0.00  0.00    +0.002 C 
ATOM     15  C   UNL     1     -40.016  26.075   2.044  0.00  0.00    +0.002 C 
ENDBRANCH  10  11
ENDBRANCH   6  10
ENDBRANCH   1   4
BRANCH   2  16
ATOM     16  C   UNL     1     -35.676  25.603   5.739  0.00  0.00    +0.157 C 
BRANCH  16  17
ATOM     17  N   UNL     1     -35.528  26.570   4.902  0.00  0.00    -0.116 NA
BRANCH  17  18
ATOM     18  N   UNL     1     -34.567  26.338   3.979  0.00  0.00    -0.273 N 
ATOM     19  N   UNL     1     -32.557  26.547   2.920  0.00  0.00    -0.369 N 
ATOM     20  C   UNL     1     -33.337  26.976   3.973  0.00  0.00    +0.207 C 
ATOM     21  H   UNL     1     -34.750  25.680   3.271  0.00  0.00    +0.185 HD
ATOM     22  H   UNL     1     -31.653  26.917   2.793  0.00  0.00    +0.159 HD
ATOM     23  H   UNL     1     -32.904  25.869   2.296  0.00  0.00    +0.159 HD
BRANCH  20  24
ATOM     24  N   UNL     1     -33.016  27.859   4.874  0.00  0.00    -0.241 NA
BRANCH  24  25
ATOM     25  C   UNL     1     -31.674  28.422   4.808  0.00  0.00    +0.106 C 
ATOM     26  C   UNL     1     -31.752  29.911   4.508  0.00  0.00    +0.024 C 
ATOM     27  C   UNL     1     -31.031  28.379   6.185  0.00  0.00    +0.024 C 
ATOM     28  C   UNL     1     -32.079  30.562   5.849  0.00  0.00    +0.002 C 
ATOM     29  C   UNL     1     -31.612  29.582   6.925  0.00  0.00    +0.002 C 
ENDBRANCH  24  25
ENDBRANCH  20  24
ENDBRANCH  17  18
ENDBRANCH  16  17
ENDBRANCH   2  16
TORSDOF 8
ENDMDL
MODEL 9
REMARK VINA RESULT:      -5.9      2.143      4.805
REMARK  Name = 57347175
REMARK  8 active torsions:
REMARK  status: ('A' for Active; 'I' for Inactive)
REMARK    1  A    between atoms: N_1  and  N_5
REMARK    2  A    between atoms: C_2  and  C_17
REMARK    3  A    between atoms: N_4  and  C_7
REMARK    4  A    between atoms: N_4  and  C_11
REMARK    5  A    between atoms: N_16  and  C_17
REMARK    6  A    between atoms: N_16  and  N_19
REMARK    7  A    between atoms: N_18  and  C_21
REMARK    8  A    between atoms: N_18  and  C_25
REMARK                            x       y       z     vdW  Elec       q    Type
REMARK                         _______ _______ _______ _____ _____    ______ ____
ROOT
ATOM      1  N   UNL     1     -36.137  21.802   2.954  0.00  0.00    -0.178 NA
ATOM      2  C   UNL     1     -35.738  21.205   1.875  0.00  0.00    +0.076 C 
ATOM      3  C   UNL     1     -34.734  20.095   1.761  0.00  0.00    +0.051 C 
ENDROOT
BRANCH   1   4
ATOM      4  N   UNL     1     -35.592  21.387   4.121  0.00  0.00    -0.247 N 
ATOM      5  N   UNL     1     -34.938  21.499   6.303  0.00  0.00    -0.369 N 
ATOM      6  C   UNL     1     -35.550  22.169   5.264  0.00  0.00    +0.212 C 
ATOM      7  H   UNL     1     -35.204  20.484   4.159  0.00  0.00    +0.192 HD
ATOM      8  H   UNL     1     -34.839  21.936   7.180  0.00  0.00    +0.159 HD
ATOM      9  H   UNL     1     -34.602  20.584   6.168  0.00  0.00    +0.159 HD
BRANCH   6  10
ATOM     10  N   UNL     1     -36.040  23.374   5.293  0.00  0.00    -0.241 NA
BRANCH  10  11
ATOM     11  C   UNL     1     -35.119  24.463   5.590  0.00  0.00    +0.106 C 
ATOM     12  C   UNL     1     -35.858  25.791   5.535  0.00  0.00    +0.024 C 
ATOM     13  C   UNL     1     -34.093  24.591   4.475  0.00  0.00    +0.024 C 
ATOM     14  C   UNL     1     -35.944  26.129   4.049  0.00  0.00    +0.002 C 
ATOM     15  C   UNL     1     -34.814  25.357   3.368  0.00  0.00    +0.002 C 
ENDBRANCH  10  11
ENDBRANCH   6  10
ENDBRANCH   1   4
BRANCH   2  16
ATOM     16  C   UNL     1     -36.359  21.662   0.594  0.00  0.00    +0.157 C 
BRANCH  16  17
ATOM     17  N   UNL     1     -37.434  21.083   0.189  0.00  0.00    -0.116 NA
BRANCH  17  18
ATOM     18  N   UNL     1     -38.310  20.818   1.186  0.00  0.00    -0.273 N 
ATOM     19  N   UNL     1     -40.136  21.092   2.525  0.00  0.00    -0.369 N 
ATOM     20  C   UNL     1     -39.425  21.595   1.456  0.00  0.00    +0.207 C 
ATOM     21  H   UNL     1     -38.146  20.030   1.752  0.00  0.00    +0.185 HD
ATOM     22  H   UNL     1     -40.956  21.545   2.828  0.00  0.00    +0.159 HD
ATOM     23  H   UNL     1     -39.824  20.279   2.984  0.00  0.00    +0.159 HD
BRANCH  20  24
ATOM     24  N   UNL     1     -39.712  22.653   0.755  0.00  0.00    -0.241 NA
BRANCH  24  25
ATOM     25  C   UNL     1     -39.947  23.892   1.483  0.00  0.00    +0.106 C 
ATOM     26  C   UNL     1     -38.662  24.347   2.158  0.00  0.00    +0.024 C 
ATOM     27  C   UNL     1     -40.239  25.017   0.502  0.00  0.00    +0.024 C 
ATOM     28  C   UNL     1     -37.857  25.020   1.049  0.00  0.00    +0.002 C 
ATOM     29  C   UNL     1     -38.869  25.455  -0.010  0.00  0.00    +0.002 C 
ENDBRANCH  24  25
ENDBRANCH  20  24
ENDBRANCH  17  18
ENDBRANCH  16  17
ENDBRANCH   2  16
TORSDOF 8
ENDMDL
