MODEL 1
REMARK VINA RESULT:      -6.7      0.000      0.000
REMARK  Name = 50907655
REMARK  7 active torsions:
REMARK  status: ('A' for Active; 'I' for Inactive)
REMARK    1  A    between atoms: C_3  and  N_13
REMARK    2  A    between atoms: C_8  and  C_22
REMARK    3  A    between atoms: C_10  and  O_25
REMARK    4  A    between atoms: C_11  and  O_27
REMARK    5  A    between atoms: C_14  and  C_16
REMARK    6  A    between atoms: C_17  and  C_19
REMARK    7  A    between atoms: C_19  and  O_20
REMARK                            x       y       z     vdW  Elec       q    Type
REMARK                         _______ _______ _______ _____ _____    ______ ____
ROOT
ATOM      1  O   UNL     1     -34.864  25.274   5.483  0.00  0.00    -0.423 OA
ATOM      2  O   UNL     1     -34.994  27.332   4.454  0.00  0.00    -0.248 OA
ATOM      3  C   UNL     1     -35.299  25.306   3.106  0.00  0.00    +0.169 C 
ATOM      4  C   UNL     1     -35.339  23.930   3.648  0.00  0.00    +0.042 C 
ATOM      5  C   UNL     1     -35.077  23.992   5.005  0.00  0.00    +0.150 C 
ATOM      6  C   UNL     1     -35.037  26.111   4.380  0.00  0.00    +0.341 C 
ATOM      7  C   UNL     1     -34.167  25.545   2.110  0.00  0.00    +0.036 C 
ATOM      8  C   UNL     1     -35.571  22.716   3.027  0.00  0.00    +0.037 C 
ATOM      9  C   UNL     1     -35.035  22.860   5.798  0.00  0.00    +0.077 C 
ATOM     10  C   UNL     1     -35.536  21.557   3.807  0.00  0.00    +0.167 C 
ATOM     11  C   UNL     1     -35.269  21.629   5.184  0.00  0.00    +0.171 C 
ENDROOT
BRANCH   3  13
ATOM     12  O   UNL     1     -37.918  24.771   4.215  0.00  0.00    -0.270 OA
ATOM     13  N   UNL     1     -36.568  25.761   2.601  0.00  0.00    -0.292 N 
ATOM     14  C   UNL     1     -37.779  25.452   3.204  0.00  0.00    +0.247 C 
ATOM     15  H   UNL     1     -36.577  26.318   1.790  0.00  0.00    +0.150 HD
BRANCH  14  16
ATOM     16  C   UNL     1     -38.934  26.048   2.476  0.00  0.00    +0.064 C 
ATOM     17  C   UNL     1     -40.181  25.799   2.892  0.00  0.00    +0.086 C 
BRANCH  17  19
ATOM     18  O   UNL     1     -41.970  25.864   1.280  0.00  0.00    -0.245 OA
ATOM     19  C   UNL     1     -41.318  26.395   2.163  0.00  0.00    +0.338 C 
BRANCH  19  20
ATOM     20  O   UNL     1     -41.528  27.646   2.634  0.00  0.00    -0.477 OA
ATOM     21  H   UNL     1     -41.014  27.971   3.347  0.00  0.00    +0.295 HD
ENDBRANCH  19  20
ENDBRANCH  17  19
ENDBRANCH  14  16
ENDBRANCH   3  13
BRANCH   8  22
ATOM     22  C   UNL     1     -35.864  22.636   1.603  0.00  0.00    -0.002 C 
ATOM     23  C   UNL     1     -37.097  22.581   1.051  0.00  0.00    -0.026 C 
ATOM     24  C   UNL     1     -37.351  22.490  -0.419  0.00  0.00    +0.031 C 
ENDBRANCH   8  22
BRANCH  10  25
ATOM     25  O   UNL     1     -35.764  20.333   3.241  0.00  0.00    -0.503 OA
ATOM     26  H   UNL     1     -35.228  19.601   3.476  0.00  0.00    +0.292 HD
ENDBRANCH  10  25
BRANCH  11  27
ATOM     27  O   UNL     1     -35.237  20.494   5.939  0.00  0.00    -0.503 OA
ATOM     28  H   UNL     1     -35.105  19.662   5.528  0.00  0.00    +0.292 HD
ENDBRANCH  11  27
TORSDOF 7
ENDMDL
MODEL 2
REMARK VINA RESULT:      -6.2      1.203      1.402
REMARK  Name = 50907655
REMARK  7 active torsions:
REMARK  status: ('A' for Active; 'I' for Inactive)
REMARK    1  A    between atoms: C_3  and  N_13
REMARK    2  A    between atoms: C_8  and  C_22
REMARK    3  A    between atoms: C_10  and  O_25
REMARK    4  A    between atoms: C_11  and  O_27
REMARK    5  A    between atoms: C_14  and  C_16
REMARK    6  A    between atoms: C_17  and  C_19
REMARK    7  A    between atoms: C_19  and  O_20
REMARK                            x       y       z     vdW  Elec       q    Type
REMARK                         _______ _______ _______ _____ _____    ______ ____
ROOT
ATOM      1  O   UNL     1     -34.708  25.372   5.513  0.00  0.00    -0.423 OA
ATOM      2  O   UNL     1     -34.737  27.431   4.477  0.00  0.00    -0.248 OA
ATOM      3  C   UNL     1     -35.152  25.418   3.138  0.00  0.00    +0.169 C 
ATOM      4  C   UNL     1     -35.260  24.049   3.685  0.00  0.00    +0.042 C 
ATOM      5  C   UNL     1     -34.989  24.102   5.041  0.00  0.00    +0.150 C 
ATOM      6  C   UNL     1     -34.843  26.213   4.408  0.00  0.00    +0.341 C 
ATOM      7  C   UNL     1     -34.014  25.596   2.136  0.00  0.00    +0.036 C 
ATOM      8  C   UNL     1     -35.558  22.845   3.069  0.00  0.00    +0.037 C 
ATOM      9  C   UNL     1     -35.002  22.971   5.837  0.00  0.00    +0.077 C 
ATOM     10  C   UNL     1     -35.578  21.689   3.853  0.00  0.00    +0.167 C 
ATOM     11  C   UNL     1     -35.302  21.751   5.229  0.00  0.00    +0.171 C 
ENDROOT
BRANCH   3  13
ATOM     12  O   UNL     1     -35.717  26.333   0.451  0.00  0.00    -0.270 OA
ATOM     13  N   UNL     1     -36.399  25.936   2.638  0.00  0.00    -0.292 N 
ATOM     14  C   UNL     1     -36.576  26.352   1.326  0.00  0.00    +0.247 C 
ATOM     15  H   UNL     1     -37.162  25.998   3.256  0.00  0.00    +0.150 HD
BRANCH  14  16
ATOM     16  C   UNL     1     -37.959  26.845   1.078  0.00  0.00    +0.064 C 
ATOM     17  C   UNL     1     -39.006  26.133   1.510  0.00  0.00    +0.086 C 
BRANCH  17  19
ATOM     18  O   UNL     1     -40.674  27.743   0.855  0.00  0.00    -0.245 OA
ATOM     19  C   UNL     1     -40.372  26.633   1.258  0.00  0.00    +0.338 C 
BRANCH  19  20
ATOM     20  O   UNL     1     -41.255  25.648   1.548  0.00  0.00    -0.477 OA
ATOM     21  H   UNL     1     -41.273  24.868   1.030  0.00  0.00    +0.295 HD
ENDBRANCH  19  20
ENDBRANCH  17  19
ENDBRANCH  14  16
ENDBRANCH   3  13
BRANCH   8  22
ATOM     22  C   UNL     1     -35.861  22.776   1.648  0.00  0.00    -0.002 C 
ATOM     23  C   UNL     1     -37.096  22.822   1.099  0.00  0.00    -0.026 C 
ATOM     24  C   UNL     1     -37.362  22.738  -0.369  0.00  0.00    +0.031 C 
ENDBRANCH   8  22
BRANCH  10  25
ATOM     25  O   UNL     1     -35.872  20.477   3.293  0.00  0.00    -0.503 OA
ATOM     26  H   UNL     1     -35.444  19.702   3.601  0.00  0.00    +0.292 HD
ENDBRANCH  10  25
BRANCH  11  27
ATOM     27  O   UNL     1     -35.324  20.618   5.988  0.00  0.00    -0.503 OA
ATOM     28  H   UNL     1     -35.596  19.807   5.609  0.00  0.00    +0.292 HD
ENDBRANCH  11  27
TORSDOF 7
ENDMDL
MODEL 3
REMARK VINA RESULT:      -6.2      2.187      5.717
REMARK  Name = 50907655
REMARK  7 active torsions:
REMARK  status: ('A' for Active; 'I' for Inactive)
REMARK    1  A    between atoms: C_3  and  N_13
REMARK    2  A    between atoms: C_8  and  C_22
REMARK    3  A    between atoms: C_10  and  O_25
REMARK    4  A    between atoms: C_11  and  O_27
REMARK    5  A    between atoms: C_14  and  C_16
REMARK    6  A    between atoms: C_17  and  C_19
REMARK    7  A    between atoms: C_19  and  O_20
REMARK                            x       y       z     vdW  Elec       q    Type
REMARK                         _______ _______ _______ _____ _____    ______ ____
ROOT
ATOM      1  O   UNL     1     -33.723  27.098   3.459  0.00  0.00    -0.423 OA
ATOM      2  O   UNL     1     -33.234  25.548   5.094  0.00  0.00    -0.248 OA
ATOM      3  C   UNL     1     -35.499  25.612   4.154  0.00  0.00    +0.169 C 
ATOM      4  C   UNL     1     -35.924  26.483   3.037  0.00  0.00    +0.042 C 
ATOM      5  C   UNL     1     -34.862  27.304   2.700  0.00  0.00    +0.150 C 
ATOM      6  C   UNL     1     -34.042  26.048   4.322  0.00  0.00    +0.341 C 
ATOM      7  C   UNL     1     -36.258  25.860   5.455  0.00  0.00    +0.036 C 
ATOM      8  C   UNL     1     -37.130  26.575   2.365  0.00  0.00    +0.037 C 
ATOM      9  C   UNL     1     -34.952  28.245   1.690  0.00  0.00    +0.077 C 
ATOM     10  C   UNL     1     -37.246  27.517   1.339  0.00  0.00    +0.167 C 
ATOM     11  C   UNL     1     -36.163  28.346   1.003  0.00  0.00    +0.171 C 
ENDROOT
BRANCH   3  13
ATOM     12  O   UNL     1     -35.845  23.358   5.935  0.00  0.00    -0.270 OA
ATOM     13  N   UNL     1     -35.459  24.215   3.809  0.00  0.00    -0.292 N 
ATOM     14  C   UNL     1     -35.638  23.199   4.737  0.00  0.00    +0.247 C 
ATOM     15  H   UNL     1     -35.298  23.969   2.869  0.00  0.00    +0.150 HD
BRANCH  14  16
ATOM     16  C   UNL     1     -35.545  21.849   4.113  0.00  0.00    +0.064 C 
ATOM     17  C   UNL     1     -35.741  21.711   2.796  0.00  0.00    +0.086 C 
BRANCH  17  19
ATOM     18  O   UNL     1     -34.716  19.935   1.533  0.00  0.00    -0.245 OA
ATOM     19  C   UNL     1     -35.647  20.369   2.190  0.00  0.00    +0.338 C 
BRANCH  19  20
ATOM     20  O   UNL     1     -36.774  19.680   2.483  0.00  0.00    -0.477 OA
ATOM     21  H   UNL     1     -37.490  19.673   1.879  0.00  0.00    +0.295 HD
ENDBRANCH  19  20
ENDBRANCH  17  19
ENDBRANCH  14  16
ENDBRANCH   3  13
BRANCH   8  22
ATOM     22  C   UNL     1     -38.251  25.707   2.697  0.00  0.00    -0.002 C 
ATOM     23  C   UNL     1     -38.511  24.503   2.140  0.00  0.00    -0.026 C 
ATOM     24  C   UNL     1     -39.681  23.648   2.506  0.00  0.00    +0.031 C 
ENDBRANCH   8  22
BRANCH  10  25
ATOM     25  O   UNL     1     -38.415  27.642   0.642  0.00  0.00    -0.503 OA
ATOM     26  H   UNL     1     -38.516  27.214  -0.185  0.00  0.00    +0.292 HD
ENDBRANCH  10  25
BRANCH  11  27
ATOM     27  O   UNL     1     -36.283  29.263   0.001  0.00  0.00    -0.503 OA
ATOM     28  H   UNL     1     -36.669  30.098   0.174  0.00  0.00    +0.292 HD
ENDBRANCH  11  27
TORSDOF 7
ENDMDL
MODEL 4
REMARK VINA RESULT:      -6.2      2.631      5.417
REMARK  Name = 50907655
REMARK  7 active torsions:
REMARK  status: ('A' for Active; 'I' for Inactive)
REMARK    1  A    between atoms: C_3  and  N_13
REMARK    2  A    between atoms: C_8  and  C_22
REMARK    3  A    between atoms: C_10  and  O_25
REMARK    4  A    between atoms: C_11  and  O_27
REMARK    5  A    between atoms: C_14  and  C_16
REMARK    6  A    between atoms: C_17  and  C_19
REMARK    7  A    between atoms: C_19  and  O_20
REMARK                            x       y       z     vdW  Elec       q    Type
REMARK                         _______ _______ _______ _____ _____    ______ ____
ROOT
ATOM      1  O   UNL     1     -35.106  25.025   0.365  0.00  0.00    -0.423 OA
ATOM      2  O   UNL     1     -35.564  27.029   1.407  0.00  0.00    -0.248 OA
ATOM      3  C   UNL     1     -35.807  24.945   2.677  0.00  0.00    +0.169 C 
ATOM      4  C   UNL     1     -35.454  23.602   2.169  0.00  0.00    +0.042 C 
ATOM      5  C   UNL     1     -35.070  23.727   0.845  0.00  0.00    +0.150 C 
ATOM      6  C   UNL     1     -35.499  25.808   1.452  0.00  0.00    +0.341 C 
ATOM      7  C   UNL     1     -37.279  25.098   3.050  0.00  0.00    +0.036 C 
ATOM      8  C   UNL     1     -35.470  22.364   2.786  0.00  0.00    +0.037 C 
ATOM      9  C   UNL     1     -34.688  22.637   0.084  0.00  0.00    +0.077 C 
ATOM     10  C   UNL     1     -35.086  21.247   2.039  0.00  0.00    +0.167 C 
ATOM     11  C   UNL     1     -34.698  21.383   0.696  0.00  0.00    +0.171 C 
ENDROOT
BRANCH   3  13
ATOM     12  O   UNL     1     -36.492  25.434   5.446  0.00  0.00    -0.270 OA
ATOM     13  N   UNL     1     -34.933  25.411   3.722  0.00  0.00    -0.292 N 
ATOM     14  C   UNL     1     -35.353  25.617   5.028  0.00  0.00    +0.247 C 
ATOM     15  H   UNL     1     -33.991  25.591   3.499  0.00  0.00    +0.150 HD
BRANCH  14  16
ATOM     16  C   UNL     1     -34.249  26.102   5.901  0.00  0.00    +0.064 C 
ATOM     17  C   UNL     1     -33.351  26.969   5.418  0.00  0.00    +0.086 C 
BRANCH  17  19
ATOM     18  O   UNL     1     -31.196  27.912   5.935  0.00  0.00    -0.245 OA
ATOM     19  C   UNL     1     -32.261  27.442   6.294  0.00  0.00    +0.338 C 
BRANCH  19  20
ATOM     20  O   UNL     1     -32.636  27.271   7.583  0.00  0.00    -0.477 OA
ATOM     21  H   UNL     1     -33.494  26.954   7.784  0.00  0.00    +0.295 HD
ENDBRANCH  19  20
ENDBRANCH  17  19
ENDBRANCH  14  16
ENDBRANCH   3  13
BRANCH   8  22
ATOM     22  C   UNL     1     -35.855  22.218   4.182  0.00  0.00    -0.002 C 
ATOM     23  C   UNL     1     -35.008  22.150   5.234  0.00  0.00    -0.026 C 
ATOM     24  C   UNL     1     -35.449  21.991   6.653  0.00  0.00    +0.031 C 
ENDBRANCH   8  22
BRANCH  10  25
ATOM     25  O   UNL     1     -35.080  20.003   2.606  0.00  0.00    -0.503 OA
ATOM     26  H   UNL     1     -35.832  19.449   2.529  0.00  0.00    +0.292 HD
ENDBRANCH  10  25
BRANCH  11  27
ATOM     27  O   UNL     1     -34.325  20.289  -0.027  0.00  0.00    -0.503 OA
ATOM     28  H   UNL     1     -33.944  19.550   0.405  0.00  0.00    +0.292 HD
ENDBRANCH  11  27
TORSDOF 7
ENDMDL
MODEL 5
REMARK VINA RESULT:      -6.1      1.960      4.226
REMARK  Name = 50907655
REMARK  7 active torsions:
REMARK  status: ('A' for Active; 'I' for Inactive)
REMARK    1  A    between atoms: C_3  and  N_13
REMARK    2  A    between atoms: C_8  and  C_22
REMARK    3  A    between atoms: C_10  and  O_25
REMARK    4  A    between atoms: C_11  and  O_27
REMARK    5  A    between atoms: C_14  and  C_16
REMARK    6  A    between atoms: C_17  and  C_19
REMARK    7  A    between atoms: C_19  and  O_20
REMARK                            x       y       z     vdW  Elec       q    Type
REMARK                         _______ _______ _______ _____ _____    ______ ____
ROOT
ATOM      1  O   UNL     1     -34.458  27.063   1.313  0.00  0.00    -0.423 OA
ATOM      2  O   UNL     1     -36.026  25.951   0.040  0.00  0.00    -0.248 OA
ATOM      3  C   UNL     1     -35.665  25.250   2.363  0.00  0.00    +0.169 C 
ATOM      4  C   UNL     1     -34.768  25.932   3.320  0.00  0.00    +0.042 C 
ATOM      5  C   UNL     1     -34.111  26.949   2.648  0.00  0.00    +0.150 C 
ATOM      6  C   UNL     1     -35.434  26.087   1.103  0.00  0.00    +0.341 C 
ATOM      7  C   UNL     1     -35.285  23.798   2.086  0.00  0.00    +0.036 C 
ATOM      8  C   UNL     1     -34.522  25.696   4.661  0.00  0.00    +0.037 C 
ATOM      9  C   UNL     1     -33.190  27.768   3.275  0.00  0.00    +0.077 C 
ATOM     10  C   UNL     1     -33.597  26.512   5.318  0.00  0.00    +0.167 C 
ATOM     11  C   UNL     1     -32.935  27.542   4.628  0.00  0.00    +0.171 C 
ENDROOT
BRANCH   3  13
ATOM     12  O   UNL     1     -37.464  23.188   3.304  0.00  0.00    -0.270 OA
ATOM     13  N   UNL     1     -37.061  25.392   2.684  0.00  0.00    -0.292 N 
ATOM     14  C   UNL     1     -37.848  24.340   3.131  0.00  0.00    +0.247 C 
ATOM     15  H   UNL     1     -37.478  26.278   2.582  0.00  0.00    +0.150 HD
BRANCH  14  16
ATOM     16  C   UNL     1     -39.253  24.761   3.387  0.00  0.00    +0.064 C 
ATOM     17  C   UNL     1     -39.715  25.895   2.847  0.00  0.00    +0.086 C 
BRANCH  17  19
ATOM     18  O   UNL     1     -42.098  25.936   2.494  0.00  0.00    -0.245 OA
ATOM     19  C   UNL     1     -41.110  26.302   3.107  0.00  0.00    +0.338 C 
BRANCH  19  20
ATOM     20  O   UNL     1     -41.124  27.160   4.153  0.00  0.00    -0.477 OA
ATOM     21  H   UNL     1     -41.739  27.866   4.173  0.00  0.00    +0.295 HD
ENDBRANCH  19  20
ENDBRANCH  17  19
ENDBRANCH  14  16
ENDBRANCH   3  13
BRANCH   8  22
ATOM     22  C   UNL     1     -35.217  24.642   5.385  0.00  0.00    -0.002 C 
ATOM     23  C   UNL     1     -34.782  23.371   5.543  0.00  0.00    -0.026 C 
ATOM     24  C   UNL     1     -35.535  22.317   6.288  0.00  0.00    +0.031 C 
ENDBRANCH   8  22
BRANCH  10  25
ATOM     25  O   UNL     1     -33.324  26.322   6.644  0.00  0.00    -0.503 OA
ATOM     26  H   UNL     1     -33.097  27.053   7.185  0.00  0.00    +0.292 HD
ENDBRANCH  10  25
BRANCH  11  27
ATOM     27  O   UNL     1     -32.033  28.334   5.275  0.00  0.00    -0.503 OA
ATOM     28  H   UNL     1     -31.855  28.195   6.185  0.00  0.00    +0.292 HD
ENDBRANCH  11  27
TORSDOF 7
ENDMDL
MODEL 6
REMARK VINA RESULT:      -6.1      2.286      6.196
REMARK  Name = 50907655
REMARK  7 active torsions:
REMARK  status: ('A' for Active; 'I' for Inactive)
REMARK    1  A    between atoms: C_3  and  N_13
REMARK    2  A    between atoms: C_8  and  C_22
REMARK    3  A    between atoms: C_10  and  O_25
REMARK    4  A    between atoms: C_11  and  O_27
REMARK    5  A    between atoms: C_14  and  C_16
REMARK    6  A    between atoms: C_17  and  C_19
REMARK    7  A    between atoms: C_19  and  O_20
REMARK                            x       y       z     vdW  Elec       q    Type
REMARK                         _______ _______ _______ _____ _____    ______ ____
ROOT
ATOM      1  O   UNL     1     -37.511  23.072   3.733  0.00  0.00    -0.423 OA
ATOM      2  O   UNL     1     -35.569  22.006   4.368  0.00  0.00    -0.248 OA
ATOM      3  C   UNL     1     -35.418  24.088   3.081  0.00  0.00    +0.169 C 
ATOM      4  C   UNL     1     -36.573  24.926   2.693  0.00  0.00    +0.042 C 
ATOM      5  C   UNL     1     -37.730  24.279   3.093  0.00  0.00    +0.150 C 
ATOM      6  C   UNL     1     -36.124  22.934   3.795  0.00  0.00    +0.341 C 
ATOM      7  C   UNL     1     -34.623  23.544   1.896  0.00  0.00    +0.036 C 
ATOM      8  C   UNL     1     -36.634  26.144   2.039  0.00  0.00    +0.037 C 
ATOM      9  C   UNL     1     -38.986  24.810   2.861  0.00  0.00    +0.077 C 
ATOM     10  C   UNL     1     -37.892  26.702   1.795  0.00  0.00    +0.167 C 
ATOM     11  C   UNL     1     -39.061  26.039   2.204  0.00  0.00    +0.171 C 
ENDROOT
BRANCH   3  13
ATOM     12  O   UNL     1     -36.242  25.570   5.426  0.00  0.00    -0.270 OA
ATOM     13  N   UNL     1     -34.567  24.705   4.065  0.00  0.00    -0.292 N 
ATOM     14  C   UNL     1     -35.056  25.398   5.163  0.00  0.00    +0.247 C 
ATOM     15  H   UNL     1     -33.592  24.630   3.954  0.00  0.00    +0.150 HD
BRANCH  14  16
ATOM     16  C   UNL     1     -33.961  25.935   6.018  0.00  0.00    +0.064 C 
ATOM     17  C   UNL     1     -33.264  27.002   5.612  0.00  0.00    +0.086 C 
BRANCH  17  19
ATOM     18  O   UNL     1     -31.074  27.879   6.102  0.00  0.00    -0.245 OA
ATOM     19  C   UNL     1     -32.181  27.525   6.469  0.00  0.00    +0.338 C 
BRANCH  19  20
ATOM     20  O   UNL     1     -32.616  27.552   7.750  0.00  0.00    -0.477 OA
ATOM     21  H   UNL     1     -32.151  27.082   8.414  0.00  0.00    +0.295 HD
ENDBRANCH  19  20
ENDBRANCH  17  19
ENDBRANCH  14  16
ENDBRANCH   3  13
BRANCH   8  22
ATOM     22  C   UNL     1     -35.426  26.843   1.627  0.00  0.00    -0.002 C 
ATOM     23  C   UNL     1     -34.794  27.812   2.328  0.00  0.00    -0.026 C 
ATOM     24  C   UNL     1     -33.559  28.511   1.861  0.00  0.00    +0.031 C 
ENDBRANCH   8  22
BRANCH  10  25
ATOM     25  O   UNL     1     -38.003  27.906   1.156  0.00  0.00    -0.503 OA
ATOM     26  H   UNL     1     -37.799  28.698   1.613  0.00  0.00    +0.292 HD
ENDBRANCH  10  25
BRANCH  11  27
ATOM     27  O   UNL     1     -40.284  26.590   1.963  0.00  0.00    -0.503 OA
ATOM     28  H   UNL     1     -41.062  26.122   2.196  0.00  0.00    +0.292 HD
ENDBRANCH  11  27
TORSDOF 7
ENDMDL
MODEL 7
REMARK VINA RESULT:      -5.9      2.991      5.301
REMARK  Name = 50907655
REMARK  7 active torsions:
REMARK  status: ('A' for Active; 'I' for Inactive)
REMARK    1  A    between atoms: C_3  and  N_13
REMARK    2  A    between atoms: C_8  and  C_22
REMARK    3  A    between atoms: C_10  and  O_25
REMARK    4  A    between atoms: C_11  and  O_27
REMARK    5  A    between atoms: C_14  and  C_16
REMARK    6  A    between atoms: C_17  and  C_19
REMARK    7  A    between atoms: C_19  and  O_20
REMARK                            x       y       z     vdW  Elec       q    Type
REMARK                         _______ _______ _______ _____ _____    ______ ____
ROOT
ATOM      1  O   UNL     1     -32.534  29.845   2.841  0.00  0.00    -0.423 OA
ATOM      2  O   UNL     1     -33.547  29.285   0.848  0.00  0.00    -0.248 OA
ATOM      3  C   UNL     1     -33.581  27.671   2.695  0.00  0.00    +0.169 C 
ATOM      4  C   UNL     1     -33.060  27.934   4.054  0.00  0.00    +0.042 C 
ATOM      5  C   UNL     1     -32.474  29.188   4.058  0.00  0.00    +0.150 C 
ATOM      6  C   UNL     1     -33.240  28.988   1.995  0.00  0.00    +0.341 C 
ATOM      7  C   UNL     1     -32.885  26.518   1.978  0.00  0.00    +0.036 C 
ATOM      8  C   UNL     1     -33.076  27.157   5.199  0.00  0.00    +0.037 C 
ATOM      9  C   UNL     1     -31.883  29.719   5.190  0.00  0.00    +0.077 C 
ATOM     10  C   UNL     1     -32.487  27.673   6.356  0.00  0.00    +0.167 C 
ATOM     11  C   UNL     1     -31.894  28.946   6.351  0.00  0.00    +0.171 C 
ENDROOT
BRANCH   3  13
ATOM     12  O   UNL     1     -35.121  25.336   1.954  0.00  0.00    -0.270 OA
ATOM     13  N   UNL     1     -35.015  27.553   2.643  0.00  0.00    -0.292 N 
ATOM     14  C   UNL     1     -35.668  26.386   2.275  0.00  0.00    +0.247 C 
ATOM     15  H   UNL     1     -35.559  28.339   2.881  0.00  0.00    +0.150 HD
BRANCH  14  16
ATOM     16  C   UNL     1     -37.149  26.540   2.304  0.00  0.00    +0.064 C 
ATOM     17  C   UNL     1     -37.894  25.669   2.996  0.00  0.00    +0.086 C 
BRANCH  17  19
ATOM     18  O   UNL     1     -40.015  26.593   2.325  0.00  0.00    -0.245 OA
ATOM     19  C   UNL     1     -39.361  25.833   3.017  0.00  0.00    +0.338 C 
BRANCH  19  20
ATOM     20  O   UNL     1     -39.878  24.990   3.941  0.00  0.00    -0.477 OA
ATOM     21  H   UNL     1     -40.711  25.173   4.329  0.00  0.00    +0.295 HD
ENDBRANCH  19  20
ENDBRANCH  17  19
ENDBRANCH  14  16
ENDBRANCH   3  13
BRANCH   8  22
ATOM     22  C   UNL     1     -33.703  25.844   5.215  0.00  0.00    -0.002 C 
ATOM     23  C   UNL     1     -34.983  25.582   5.564  0.00  0.00    -0.026 C 
ATOM     24  C   UNL     1     -35.583  24.214   5.574  0.00  0.00    +0.031 C 
ENDBRANCH   8  22
BRANCH  10  25
ATOM     25  O   UNL     1     -32.482  26.946   7.514  0.00  0.00    -0.503 OA
ATOM     26  H   UNL     1     -31.757  27.010   8.104  0.00  0.00    +0.292 HD
ENDBRANCH  10  25
BRANCH  11  27
ATOM     27  O   UNL     1     -31.321  29.443   7.485  0.00  0.00    -0.503 OA
ATOM     28  H   UNL     1     -30.766  30.196   7.437  0.00  0.00    +0.292 HD
ENDBRANCH  11  27
TORSDOF 7
ENDMDL
MODEL 8
REMARK VINA RESULT:      -5.9      2.634      5.357
REMARK  Name = 50907655
REMARK  7 active torsions:
REMARK  status: ('A' for Active; 'I' for Inactive)
REMARK    1  A    between atoms: C_3  and  N_13
REMARK    2  A    between atoms: C_8  and  C_22
REMARK    3  A    between atoms: C_10  and  O_25
REMARK    4  A    between atoms: C_11  and  O_27
REMARK    5  A    between atoms: C_14  and  C_16
REMARK    6  A    between atoms: C_17  and  C_19
REMARK    7  A    between atoms: C_19  and  O_20
REMARK                            x       y       z     vdW  Elec       q    Type
REMARK                         _______ _______ _______ _____ _____    ______ ____
ROOT
ATOM      1  O   UNL     1     -37.951  24.747   4.000  0.00  0.00    -0.423 OA
ATOM      2  O   UNL     1     -36.144  25.564   5.174  0.00  0.00    -0.248 OA
ATOM      3  C   UNL     1     -35.926  23.427   3.991  0.00  0.00    +0.169 C 
ATOM      4  C   UNL     1     -36.966  22.834   3.122  0.00  0.00    +0.042 C 
ATOM      5  C   UNL     1     -38.091  23.639   3.183  0.00  0.00    +0.150 C 
ATOM      6  C   UNL     1     -36.640  24.691   4.474  0.00  0.00    +0.341 C 
ATOM      7  C   UNL     1     -35.556  22.560   5.192  0.00  0.00    +0.036 C 
ATOM      8  C   UNL     1     -36.957  21.688   2.346  0.00  0.00    +0.037 C 
ATOM      9  C   UNL     1     -39.245  23.342   2.481  0.00  0.00    +0.077 C 
ATOM     10  C   UNL     1     -38.111  21.368   1.626  0.00  0.00    +0.167 C 
ATOM     11  C   UNL     1     -39.248  22.190   1.693  0.00  0.00    +0.171 C 
ENDROOT
BRANCH   3  13
ATOM     12  O   UNL     1     -35.872  24.929   1.518  0.00  0.00    -0.270 OA
ATOM     13  N   UNL     1     -34.764  23.876   3.270  0.00  0.00    -0.292 N 
ATOM     14  C   UNL     1     -34.837  24.596   2.086  0.00  0.00    +0.247 C 
ATOM     15  H   UNL     1     -33.875  23.664   3.635  0.00  0.00    +0.150 HD
BRANCH  14  16
ATOM     16  C   UNL     1     -33.488  24.931   1.551  0.00  0.00    +0.064 C 
ATOM     17  C   UNL     1     -32.801  25.953   2.076  0.00  0.00    +0.086 C 
BRANCH  17  19
ATOM     18  O   UNL     1     -31.222  26.769   0.449  0.00  0.00    -0.245 OA
ATOM     19  C   UNL     1     -31.465  26.276   1.537  0.00  0.00    +0.338 C 
BRANCH  19  20
ATOM     20  O   UNL     1     -30.532  25.933   2.456  0.00  0.00    -0.477 OA
ATOM     21  H   UNL     1     -29.790  26.486   2.600  0.00  0.00    +0.295 HD
ENDBRANCH  19  20
ENDBRANCH  17  19
ENDBRANCH  14  16
ENDBRANCH   3  13
BRANCH   8  22
ATOM     22  C   UNL     1     -35.776  20.841   2.259  0.00  0.00    -0.002 C 
ATOM     23  C   UNL     1     -34.860  20.860   1.265  0.00  0.00    -0.026 C 
ATOM     24  C   UNL     1     -33.665  19.964   1.212  0.00  0.00    +0.031 C 
ENDBRANCH   8  22
BRANCH  10  25
ATOM     25  O   UNL     1     -38.149  20.250   0.840  0.00  0.00    -0.503 OA
ATOM     26  H   UNL     1     -37.647  19.494   1.077  0.00  0.00    +0.292 HD
ENDBRANCH  10  25
BRANCH  11  27
ATOM     27  O   UNL     1     -40.370  21.871   0.987  0.00  0.00    -0.503 OA
ATOM     28  H   UNL     1     -40.367  21.132   0.412  0.00  0.00    +0.292 HD
ENDBRANCH  11  27
TORSDOF 7
ENDMDL
MODEL 9
REMARK VINA RESULT:      -5.9      2.495      5.937
REMARK  Name = 50907655
REMARK  7 active torsions:
REMARK  status: ('A' for Active; 'I' for Inactive)
REMARK    1  A    between atoms: C_3  and  N_13
REMARK    2  A    between atoms: C_8  and  C_22
REMARK    3  A    between atoms: C_10  and  O_25
REMARK    4  A    between atoms: C_11  and  O_27
REMARK    5  A    between atoms: C_14  and  C_16
REMARK    6  A    between atoms: C_17  and  C_19
REMARK    7  A    between atoms: C_19  and  O_20
REMARK                            x       y       z     vdW  Elec       q    Type
REMARK                         _______ _______ _______ _____ _____    ______ ____
ROOT
ATOM      1  O   UNL     1     -37.733  24.281   4.121  0.00  0.00    -0.423 OA
ATOM      2  O   UNL     1     -38.867  22.948   2.622  0.00  0.00    -0.248 OA
ATOM      3  C   UNL     1     -36.608  23.720   2.057  0.00  0.00    +0.169 C 
ATOM      4  C   UNL     1     -35.731  24.495   2.960  0.00  0.00    +0.042 C 
ATOM      5  C   UNL     1     -36.442  24.782   4.113  0.00  0.00    +0.150 C 
ATOM      6  C   UNL     1     -37.866  23.587   2.918  0.00  0.00    +0.341 C 
ATOM      7  C   UNL     1     -36.955  24.446   0.759  0.00  0.00    +0.036 C 
ATOM      8  C   UNL     1     -34.427  24.931   2.807  0.00  0.00    +0.037 C 
ATOM      9  C   UNL     1     -35.893  25.509   5.153  0.00  0.00    +0.077 C 
ATOM     10  C   UNL     1     -33.849  25.666   3.845  0.00  0.00    +0.167 C 
ATOM     11  C   UNL     1     -34.578  25.953   5.011  0.00  0.00    +0.171 C 
ENDROOT
BRANCH   3  13
ATOM     12  O   UNL     1     -35.598  21.843   4.014  0.00  0.00    -0.270 OA
ATOM     13  N   UNL     1     -36.145  22.378   1.819  0.00  0.00    -0.292 N 
ATOM     14  C   UNL     1     -35.676  21.547   2.826  0.00  0.00    +0.247 C 
ATOM     15  H   UNL     1     -36.162  22.033   0.897  0.00  0.00    +0.150 HD
BRANCH  14  16
ATOM     16  C   UNL     1     -35.259  20.216   2.305  0.00  0.00    +0.064 C 
ATOM     17  C   UNL     1     -34.139  20.107   1.582  0.00  0.00    +0.086 C 
BRANCH  17  19
ATOM     18  O   UNL     1     -32.614  18.306   1.096  0.00  0.00    -0.245 OA
ATOM     19  C   UNL     1     -33.736  18.781   1.071  0.00  0.00    +0.338 C 
BRANCH  19  20
ATOM     20  O   UNL     1     -34.827  18.163   0.561  0.00  0.00    -0.477 OA
ATOM     21  H   UNL     1     -35.157  18.412  -0.279  0.00  0.00    +0.295 HD
ENDBRANCH  19  20
ENDBRANCH  17  19
ENDBRANCH  14  16
ENDBRANCH   3  13
BRANCH   8  22
ATOM     22  C   UNL     1     -33.661  24.623   1.608  0.00  0.00    -0.002 C 
ATOM     23  C   UNL     1     -33.479  25.447   0.552  0.00  0.00    -0.026 C 
ATOM     24  C   UNL     1     -32.690  25.085  -0.665  0.00  0.00    +0.031 C 
ENDBRANCH   8  22
BRANCH  10  25
ATOM     25  O   UNL     1     -32.561  26.115   3.743  0.00  0.00    -0.503 OA
ATOM     26  H   UNL     1     -32.392  27.029   3.627  0.00  0.00    +0.292 HD
ENDBRANCH  10  25
BRANCH  11  27
ATOM     27  O   UNL     1     -34.007  26.671   6.021  0.00  0.00    -0.503 OA
ATOM     28  H   UNL     1     -34.433  26.729   6.853  0.00  0.00    +0.292 HD
ENDBRANCH  11  27
TORSDOF 7
ENDMDL
