MODEL 1
REMARK VINA RESULT:      -6.5      0.000      0.000
REMARK  Name = 5328112
REMARK  2 active torsions:
REMARK  status: ('A' for Active; 'I' for Inactive)
REMARK    1  A    between atoms: C_5  and  C_16
REMARK    2  A    between atoms: N_23  and  C_28
REMARK                            x       y       z     vdW  Elec       q    Type
REMARK                         _______ _______ _______ _____ _____    ______ ____
ROOT
ATOM      1  N   UNL     1     -33.829  25.645   4.532  0.00  0.00    -0.324 NA
ATOM      2  N   UNL     1     -34.870  23.782   5.432  0.00  0.00    -0.272 NA
ATOM      3  N   UNL     1     -36.273  22.354   4.092  0.00  0.00    -0.169 NA
ATOM      4  N   UNL     1     -35.917  21.898   6.361  0.00  0.00    -0.292 N 
ATOM      5  C   UNL     1     -34.111  26.228   2.206  0.00  0.00    +0.047 C 
ATOM      6  C   UNL     1     -33.594  26.432   3.462  0.00  0.00    +0.199 C 
ATOM      7  C   UNL     1     -34.934  25.128   2.043  0.00  0.00    +0.018 C 
ATOM      8  C   UNL     1     -35.195  24.291   3.138  0.00  0.00    +0.106 C 
ATOM      9  C   UNL     1     -34.624  24.576   4.383  0.00  0.00    +0.152 C 
ATOM     10  C   UNL     1     -36.011  23.166   3.053  0.00  0.00    +0.124 C 
ATOM     11  C   UNL     1     -35.676  22.717   5.237  0.00  0.00    +0.152 C 
ATOM     12  H   UNL     1     -35.505  22.118   7.227  0.00  0.00    +0.155 HD
ATOM     13  H   UNL     1     -36.498  21.108   6.278  0.00  0.00    +0.155 HD
ATOM     14  O   UNL     1     -32.194  27.371   5.946  0.00  0.00    -0.252 OA
ATOM     15  N   UNL     1     -31.372  29.094   4.644  0.00  0.00    -0.292 N 
ATOM     16  N   UNL     1     -32.749  27.548   3.671  0.00  0.00    -0.243 N 
ATOM     17  C   UNL     1     -32.121  27.937   4.857  0.00  0.00    +0.306 C 
ATOM     18  H   UNL     1     -31.363  29.489   3.742  0.00  0.00    +0.151 HD
ATOM     19  H   UNL     1     -32.582  28.118   2.885  0.00  0.00    +0.159 HD
ENDROOT
BRANCH   5  22
ATOM     20 CL   UNL     1     -31.715  25.469   0.472  0.00  0.00    -0.082 Cl
ATOM     21 CL   UNL     1     -35.999  28.603   1.841  0.00  0.00    -0.082 Cl
ATOM     22  C   UNL     1     -33.837  27.096   1.078  0.00  0.00    +0.025 C 
ATOM     23  C   UNL     1     -32.760  26.827   0.228  0.00  0.00    +0.059 C 
ATOM     24  C   UNL     1     -34.648  28.208   0.832  0.00  0.00    +0.059 C 
ATOM     25  C   UNL     1     -32.496  27.663  -0.857  0.00  0.00    +0.011 C 
ATOM     26  C   UNL     1     -34.384  29.044  -0.254  0.00  0.00    +0.011 C 
ATOM     27  C   UNL     1     -33.308  28.770  -1.098  0.00  0.00    +0.002 C 
ENDBRANCH   5  22
BRANCH  15  28
ATOM     28  C   UNL     1     -30.605  29.739   5.693  0.00  0.00    +0.058 C 
ATOM     29  C   UNL     1     -29.456  28.819   6.121  0.00  0.00    +0.020 C 
ATOM     30  C   UNL     1     -30.038  31.060   5.159  0.00  0.00    +0.020 C 
ATOM     31  C   UNL     1     -31.517  30.015   6.894  0.00  0.00    +0.020 C 
ENDBRANCH  15  28
TORSDOF 2
ENDMDL
MODEL 2
REMARK VINA RESULT:      -6.4      3.656      7.498
REMARK  Name = 5328112
REMARK  2 active torsions:
REMARK  status: ('A' for Active; 'I' for Inactive)
REMARK    1  A    between atoms: C_5  and  C_16
REMARK    2  A    between atoms: N_23  and  C_28
REMARK                            x       y       z     vdW  Elec       q    Type
REMARK                         _______ _______ _______ _____ _____    ______ ____
ROOT
ATOM      1  N   UNL     1     -35.820  27.160   2.635  0.00  0.00    -0.324 NA
ATOM      2  N   UNL     1     -34.551  29.044   3.092  0.00  0.00    -0.272 NA
ATOM      3  N   UNL     1     -32.261  28.872   3.815  0.00  0.00    -0.169 NA
ATOM      4  N   UNL     1     -33.281  30.962   3.550  0.00  0.00    -0.292 N 
ATOM      5  C   UNL     1     -34.889  24.944   2.868  0.00  0.00    +0.047 C 
ATOM      6  C   UNL     1     -35.908  25.815   2.569  0.00  0.00    +0.199 C 
ATOM      7  C   UNL     1     -33.688  25.504   3.265  0.00  0.00    +0.018 C 
ATOM      8  C   UNL     1     -33.568  26.899   3.343  0.00  0.00    +0.106 C 
ATOM      9  C   UNL     1     -34.660  27.711   3.019  0.00  0.00    +0.152 C 
ATOM     10  C   UNL     1     -32.393  27.537   3.735  0.00  0.00    +0.124 C 
ATOM     11  C   UNL     1     -33.365  29.555   3.483  0.00  0.00    +0.152 C 
ATOM     12  H   UNL     1     -34.062  31.514   3.317  0.00  0.00    +0.155 HD
ATOM     13  H   UNL     1     -32.441  31.392   3.829  0.00  0.00    +0.155 HD
ATOM     14  O   UNL     1     -38.456  27.203   1.798  0.00  0.00    -0.252 OA
ATOM     15  N   UNL     1     -39.325  25.088   1.463  0.00  0.00    -0.292 N 
ATOM     16  N   UNL     1     -37.153  25.283   2.159  0.00  0.00    -0.243 N 
ATOM     17  C   UNL     1     -38.312  25.982   1.809  0.00  0.00    +0.306 C 
ATOM     18  H   UNL     1     -39.132  24.123   1.497  0.00  0.00    +0.151 HD
ATOM     19  H   UNL     1     -37.210  24.301   2.113  0.00  0.00    +0.159 HD
ENDROOT
BRANCH   5  22
ATOM     20 CL   UNL     1     -34.322  23.693   0.141  0.00  0.00    -0.082 Cl
ATOM     21 CL   UNL     1     -35.700  23.514   5.442  0.00  0.00    -0.082 Cl
ATOM     22  C   UNL     1     -35.020  23.503   2.785  0.00  0.00    +0.025 C 
ATOM     23  C   UNL     1     -34.780  22.842   1.577  0.00  0.00    +0.059 C 
ATOM     24  C   UNL     1     -35.388  22.764   3.914  0.00  0.00    +0.059 C 
ATOM     25  C   UNL     1     -34.906  21.456   1.497  0.00  0.00    +0.011 C 
ATOM     26  C   UNL     1     -35.513  21.376   3.834  0.00  0.00    +0.011 C 
ATOM     27  C   UNL     1     -35.272  20.723   2.626  0.00  0.00    +0.002 C 
ENDBRANCH   5  22
BRANCH  15  28
ATOM     28  C   UNL     1     -40.649  25.518   1.054  0.00  0.00    +0.058 C 
ATOM     29  C   UNL     1     -40.524  26.492  -0.124  0.00  0.00    +0.020 C 
ATOM     30  C   UNL     1     -41.463  24.292   0.626  0.00  0.00    +0.020 C 
ATOM     31  C   UNL     1     -41.342  26.217   2.229  0.00  0.00    +0.020 C 
ENDBRANCH  15  28
TORSDOF 2
ENDMDL
MODEL 3
REMARK VINA RESULT:      -6.4      3.656      7.583
REMARK  Name = 5328112
REMARK  2 active torsions:
REMARK  status: ('A' for Active; 'I' for Inactive)
REMARK    1  A    between atoms: C_5  and  C_16
REMARK    2  A    between atoms: N_23  and  C_28
REMARK                            x       y       z     vdW  Elec       q    Type
REMARK                         _______ _______ _______ _____ _____    ______ ____
ROOT
ATOM      1  N   UNL     1     -35.821  27.161   2.634  0.00  0.00    -0.324 NA
ATOM      2  N   UNL     1     -34.553  29.045   3.093  0.00  0.00    -0.272 NA
ATOM      3  N   UNL     1     -32.262  28.874   3.815  0.00  0.00    -0.169 NA
ATOM      4  N   UNL     1     -33.284  30.964   3.554  0.00  0.00    -0.292 N 
ATOM      5  C   UNL     1     -34.888  24.946   2.863  0.00  0.00    +0.047 C 
ATOM      6  C   UNL     1     -35.908  25.817   2.566  0.00  0.00    +0.199 C 
ATOM      7  C   UNL     1     -33.687  25.506   3.261  0.00  0.00    +0.018 C 
ATOM      8  C   UNL     1     -33.568  26.901   3.341  0.00  0.00    +0.106 C 
ATOM      9  C   UNL     1     -34.661  27.713   3.019  0.00  0.00    +0.152 C 
ATOM     10  C   UNL     1     -32.394  27.539   3.733  0.00  0.00    +0.124 C 
ATOM     11  C   UNL     1     -33.367  29.557   3.485  0.00  0.00    +0.152 C 
ATOM     12  H   UNL     1     -34.065  31.516   3.322  0.00  0.00    +0.155 HD
ATOM     13  H   UNL     1     -32.444  31.394   3.833  0.00  0.00    +0.155 HD
ATOM     14  O   UNL     1     -38.457  27.204   1.798  0.00  0.00    -0.252 OA
ATOM     15  N   UNL     1     -39.324  25.088   1.460  0.00  0.00    -0.292 N 
ATOM     16  N   UNL     1     -37.153  25.284   2.156  0.00  0.00    -0.243 N 
ATOM     17  C   UNL     1     -38.312  25.983   1.808  0.00  0.00    +0.306 C 
ATOM     18  H   UNL     1     -39.130  24.123   1.493  0.00  0.00    +0.151 HD
ATOM     19  H   UNL     1     -37.209  24.302   2.108  0.00  0.00    +0.159 HD
ENDROOT
BRANCH   5  22
ATOM     20 CL   UNL     1     -35.713  23.514   5.431  0.00  0.00    -0.082 Cl
ATOM     21 CL   UNL     1     -34.305  23.696   0.137  0.00  0.00    -0.082 Cl
ATOM     22  C   UNL     1     -35.018  23.505   2.779  0.00  0.00    +0.025 C 
ATOM     23  C   UNL     1     -35.392  22.764   3.905  0.00  0.00    +0.059 C 
ATOM     24  C   UNL     1     -34.771  22.845   1.571  0.00  0.00    +0.059 C 
ATOM     25  C   UNL     1     -35.517  21.378   3.823  0.00  0.00    +0.011 C 
ATOM     26  C   UNL     1     -34.896  21.458   1.490  0.00  0.00    +0.011 C 
ATOM     27  C   UNL     1     -35.269  20.725   2.616  0.00  0.00    +0.002 C 
ENDBRANCH   5  22
BRANCH  15  28
ATOM     28  C   UNL     1     -40.648  25.518   1.052  0.00  0.00    +0.058 C 
ATOM     29  C   UNL     1     -40.525  26.495  -0.123  0.00  0.00    +0.020 C 
ATOM     30  C   UNL     1     -41.462  24.292   0.622  0.00  0.00    +0.020 C 
ATOM     31  C   UNL     1     -41.342  26.214   2.229  0.00  0.00    +0.020 C 
ENDBRANCH  15  28
TORSDOF 2
ENDMDL
MODEL 4
REMARK VINA RESULT:      -6.2      4.027      6.361
REMARK  Name = 5328112
REMARK  2 active torsions:
REMARK  status: ('A' for Active; 'I' for Inactive)
REMARK    1  A    between atoms: C_5  and  C_16
REMARK    2  A    between atoms: N_23  and  C_28
REMARK                            x       y       z     vdW  Elec       q    Type
REMARK                         _______ _______ _______ _____ _____    ______ ____
ROOT
ATOM      1  N   UNL     1     -37.272  26.499   1.527  0.00  0.00    -0.324 NA
ATOM      2  N   UNL     1     -39.306  27.297   0.757  0.00  0.00    -0.272 NA
ATOM      3  N   UNL     1     -41.392  26.369   1.523  0.00  0.00    -0.169 NA
ATOM      4  N   UNL     1     -41.357  28.118  -0.033  0.00  0.00    -0.292 N 
ATOM      5  C   UNL     1     -37.167  24.698   3.133  0.00  0.00    +0.047 C 
ATOM      6  C   UNL     1     -36.592  25.638   2.313  0.00  0.00    +0.199 C 
ATOM      7  C   UNL     1     -38.549  24.643   3.142  0.00  0.00    +0.018 C 
ATOM      8  C   UNL     1     -39.283  25.525   2.335  0.00  0.00    +0.106 C 
ATOM      9  C   UNL     1     -38.612  26.452   1.529  0.00  0.00    +0.152 C 
ATOM     10  C   UNL     1     -40.674  25.531   2.290  0.00  0.00    +0.124 C 
ATOM     11  C   UNL     1     -40.653  27.215   0.791  0.00  0.00    +0.152 C 
ATOM     12  H   UNL     1     -40.865  28.761  -0.592  0.00  0.00    +0.155 HD
ATOM     13  H   UNL     1     -42.341  28.104  -0.050  0.00  0.00    +0.155 HD
ATOM     14  O   UNL     1     -34.803  27.464   0.739  0.00  0.00    -0.252 OA
ATOM     15  N   UNL     1     -33.044  26.369   1.763  0.00  0.00    -0.292 N 
ATOM     16  N   UNL     1     -35.180  25.727   2.273  0.00  0.00    -0.243 N 
ATOM     17  C   UNL     1     -34.397  26.603   1.517  0.00  0.00    +0.306 C 
ATOM     18  H   UNL     1     -32.798  25.661   2.401  0.00  0.00    +0.151 HD
ATOM     19  H   UNL     1     -34.691  25.096   2.849  0.00  0.00    +0.159 HD
ENDROOT
BRANCH   5  22
ATOM     20 CL   UNL     1     -36.120  25.837   5.766  0.00  0.00    -0.082 Cl
ATOM     21 CL   UNL     1     -36.793  21.868   2.046  0.00  0.00    -0.082 Cl
ATOM     22  C   UNL     1     -36.404  23.790   3.964  0.00  0.00    +0.025 C 
ATOM     23  C   UNL     1     -35.885  24.222   5.188  0.00  0.00    +0.059 C 
ATOM     24  C   UNL     1     -36.181  22.473   3.548  0.00  0.00    +0.059 C 
ATOM     25  C   UNL     1     -35.150  23.348   5.988  0.00  0.00    +0.011 C 
ATOM     26  C   UNL     1     -35.447  21.598   4.349  0.00  0.00    +0.011 C 
ATOM     27  C   UNL     1     -34.932  22.036   5.569  0.00  0.00    +0.002 C 
ENDBRANCH   5  22
BRANCH  15  28
ATOM     28  C   UNL     1     -31.985  27.126   1.122  0.00  0.00    +0.058 C 
ATOM     29  C   UNL     1     -32.189  28.620   1.398  0.00  0.00    +0.020 C 
ATOM     30  C   UNL     1     -30.634  26.675   1.689  0.00  0.00    +0.020 C 
ATOM     31  C   UNL     1     -32.024  26.872  -0.390  0.00  0.00    +0.020 C 
ENDBRANCH  15  28
TORSDOF 2
ENDMDL
MODEL 5
REMARK VINA RESULT:      -6.2      4.036      6.215
REMARK  Name = 5328112
REMARK  2 active torsions:
REMARK  status: ('A' for Active; 'I' for Inactive)
REMARK    1  A    between atoms: C_5  and  C_16
REMARK    2  A    between atoms: N_23  and  C_28
REMARK                            x       y       z     vdW  Elec       q    Type
REMARK                         _______ _______ _______ _____ _____    ______ ____
ROOT
ATOM      1  N   UNL     1     -37.302  26.490   1.530  0.00  0.00    -0.324 NA
ATOM      2  N   UNL     1     -39.341  27.288   0.773  0.00  0.00    -0.272 NA
ATOM      3  N   UNL     1     -41.422  26.362   1.556  0.00  0.00    -0.169 NA
ATOM      4  N   UNL     1     -41.398  28.108  -0.003  0.00  0.00    -0.292 N 
ATOM      5  C   UNL     1     -37.186  24.692   3.138  0.00  0.00    +0.047 C 
ATOM      6  C   UNL     1     -36.616  25.631   2.312  0.00  0.00    +0.199 C 
ATOM      7  C   UNL     1     -38.568  24.637   3.157  0.00  0.00    +0.018 C 
ATOM      8  C   UNL     1     -39.307  25.519   2.354  0.00  0.00    +0.106 C 
ATOM      9  C   UNL     1     -38.642  26.444   1.542  0.00  0.00    +0.152 C 
ATOM     10  C   UNL     1     -40.699  25.525   2.319  0.00  0.00    +0.124 C 
ATOM     11  C   UNL     1     -40.688  27.206   0.818  0.00  0.00    +0.152 C 
ATOM     12  H   UNL     1     -40.909  28.751  -0.567  0.00  0.00    +0.155 HD
ATOM     13  H   UNL     1     -42.382  28.095  -0.013  0.00  0.00    +0.155 HD
ATOM     14  O   UNL     1     -34.838  27.454   0.723  0.00  0.00    -0.252 OA
ATOM     15  N   UNL     1     -33.072  26.360   1.736  0.00  0.00    -0.292 N 
ATOM     16  N   UNL     1     -35.205  25.719   2.262  0.00  0.00    -0.243 N 
ATOM     17  C   UNL     1     -34.427  26.594   1.499  0.00  0.00    +0.306 C 
ATOM     18  H   UNL     1     -32.822  25.653   2.373  0.00  0.00    +0.151 HD
ATOM     19  H   UNL     1     -34.712  25.089   2.836  0.00  0.00    +0.159 HD
ENDROOT
BRANCH   5  22
ATOM     20 CL   UNL     1     -36.818  21.862   2.052  0.00  0.00    -0.082 Cl
ATOM     21 CL   UNL     1     -36.122  25.834   5.764  0.00  0.00    -0.082 Cl
ATOM     22  C   UNL     1     -36.417  23.785   3.965  0.00  0.00    +0.025 C 
ATOM     23  C   UNL     1     -36.196  22.468   3.549  0.00  0.00    +0.059 C 
ATOM     24  C   UNL     1     -35.890  24.219   5.185  0.00  0.00    +0.059 C 
ATOM     25  C   UNL     1     -35.457  21.594   4.345  0.00  0.00    +0.011 C 
ATOM     26  C   UNL     1     -35.149  23.345   5.981  0.00  0.00    +0.011 C 
ATOM     27  C   UNL     1     -34.933  22.033   5.561  0.00  0.00    +0.002 C 
ENDBRANCH   5  22
BRANCH  15  28
ATOM     28  C   UNL     1     -32.018  27.115   1.086  0.00  0.00    +0.058 C 
ATOM     29  C   UNL     1     -30.661  26.689   1.658  0.00  0.00    +0.020 C 
ATOM     30  C   UNL     1     -32.055  26.833  -0.420  0.00  0.00    +0.020 C 
ATOM     31  C   UNL     1     -32.235  28.612   1.338  0.00  0.00    +0.020 C 
ENDBRANCH  15  28
TORSDOF 2
ENDMDL
MODEL 6
REMARK VINA RESULT:      -6.1      3.242      7.447
REMARK  Name = 5328112
REMARK  2 active torsions:
REMARK  status: ('A' for Active; 'I' for Inactive)
REMARK    1  A    between atoms: C_5  and  C_16
REMARK    2  A    between atoms: N_23  and  C_28
REMARK                            x       y       z     vdW  Elec       q    Type
REMARK                         _______ _______ _______ _____ _____    ______ ____
ROOT
ATOM      1  N   UNL     1     -33.871  29.750   3.251  0.00  0.00    -0.324 NA
ATOM      2  N   UNL     1     -34.752  31.640   2.243  0.00  0.00    -0.272 NA
ATOM      3  N   UNL     1     -33.451  33.650   1.984  0.00  0.00    -0.169 NA
ATOM      4  N   UNL     1     -35.661  33.546   1.219  0.00  0.00    -0.292 N 
ATOM      5  C   UNL     1     -31.604  29.724   4.084  0.00  0.00    +0.047 C 
ATOM      6  C   UNL     1     -32.826  29.142   3.852  0.00  0.00    +0.199 C 
ATOM      7  C   UNL     1     -31.448  31.033   3.664  0.00  0.00    +0.018 C 
ATOM      8  C   UNL     1     -32.517  31.690   3.037  0.00  0.00    +0.106 C 
ATOM      9  C   UNL     1     -33.728  31.019   2.841  0.00  0.00    +0.152 C 
ATOM     10  C   UNL     1     -32.437  33.006   2.587  0.00  0.00    +0.124 C 
ATOM     11  C   UNL     1     -34.565  32.917   1.846  0.00  0.00    +0.152 C 
ATOM     12  H   UNL     1     -36.504  33.054   1.091  0.00  0.00    +0.155 HD
ATOM     13  H   UNL     1     -35.583  34.477   0.908  0.00  0.00    +0.155 HD
ATOM     14  O   UNL     1     -35.242  27.377   3.616  0.00  0.00    -0.252 OA
ATOM     15  N   UNL     1     -33.970  25.759   4.669  0.00  0.00    -0.292 N 
ATOM     16  N   UNL     1     -33.027  27.804   4.267  0.00  0.00    -0.243 N 
ATOM     17  C   UNL     1     -34.180  27.028   4.129  0.00  0.00    +0.306 C 
ATOM     18  H   UNL     1     -33.091  25.555   5.062  0.00  0.00    +0.151 HD
ATOM     19  H   UNL     1     -32.261  27.367   4.704  0.00  0.00    +0.159 HD
ENDROOT
BRANCH   5  22
ATOM     20 CL   UNL     1     -31.591  29.785   7.137  0.00  0.00    -0.082 Cl
ATOM     21 CL   UNL     1     -29.569  28.389   2.238  0.00  0.00    -0.082 Cl
ATOM     22  C   UNL     1     -30.504  29.040   4.733  0.00  0.00    +0.025 C 
ATOM     23  C   UNL     1     -30.415  29.015   6.128  0.00  0.00    +0.059 C 
ATOM     24  C   UNL     1     -29.523  28.400   3.968  0.00  0.00    +0.059 C 
ATOM     25  C   UNL     1     -29.356  28.356   6.753  0.00  0.00    +0.011 C 
ATOM     26  C   UNL     1     -28.464  27.741   4.593  0.00  0.00    +0.011 C 
ATOM     27  C   UNL     1     -28.381  27.719   5.985  0.00  0.00    +0.002 C 
ENDBRANCH   5  22
BRANCH  15  28
ATOM     28  C   UNL     1     -34.990  24.726   4.673  0.00  0.00    +0.058 C 
ATOM     29  C   UNL     1     -36.291  25.301   5.244  0.00  0.00    +0.020 C 
ATOM     30  C   UNL     1     -35.223  24.247   3.235  0.00  0.00    +0.020 C 
ATOM     31  C   UNL     1     -34.521  23.553   5.541  0.00  0.00    +0.020 C 
ENDBRANCH  15  28
TORSDOF 2
ENDMDL
MODEL 7
REMARK VINA RESULT:      -6.0      3.276      7.185
REMARK  Name = 5328112
REMARK  2 active torsions:
REMARK  status: ('A' for Active; 'I' for Inactive)
REMARK    1  A    between atoms: C_5  and  C_16
REMARK    2  A    between atoms: N_23  and  C_28
REMARK                            x       y       z     vdW  Elec       q    Type
REMARK                         _______ _______ _______ _____ _____    ______ ____
ROOT
ATOM      1  N   UNL     1     -34.189  29.598   3.086  0.00  0.00    -0.324 NA
ATOM      2  N   UNL     1     -35.174  31.431   2.069  0.00  0.00    -0.272 NA
ATOM      3  N   UNL     1     -33.980  33.503   1.782  0.00  0.00    -0.169 NA
ATOM      4  N   UNL     1     -36.188  33.279   1.037  0.00  0.00    -0.292 N 
ATOM      5  C   UNL     1     -31.918  29.695   3.900  0.00  0.00    +0.047 C 
ATOM      6  C   UNL     1     -33.110  29.049   3.683  0.00  0.00    +0.199 C 
ATOM      7  C   UNL     1     -31.832  31.007   3.467  0.00  0.00    +0.018 C 
ATOM      8  C   UNL     1     -32.938  31.603   2.843  0.00  0.00    +0.106 C 
ATOM      9  C   UNL     1     -34.116  30.868   2.664  0.00  0.00    +0.152 C 
ATOM     10  C   UNL     1     -32.930  32.916   2.381  0.00  0.00    +0.124 C 
ATOM     11  C   UNL     1     -35.056  32.712   1.660  0.00  0.00    +0.152 C 
ATOM     12  H   UNL     1     -37.006  32.743   0.921  0.00  0.00    +0.155 HD
ATOM     13  H   UNL     1     -36.160  34.209   0.718  0.00  0.00    +0.155 HD
ATOM     14  O   UNL     1     -35.435  27.161   3.484  0.00  0.00    -0.252 OA
ATOM     15  N   UNL     1     -34.074  25.620   4.539  0.00  0.00    -0.292 N 
ATOM     16  N   UNL     1     -33.239  27.707   4.111  0.00  0.00    -0.243 N 
ATOM     17  C   UNL     1     -34.353  26.871   3.990  0.00  0.00    +0.306 C 
ATOM     18  H   UNL     1     -33.182  25.465   4.927  0.00  0.00    +0.151 HD
ATOM     19  H   UNL     1     -32.448  27.314   4.546  0.00  0.00    +0.159 HD
ENDROOT
BRANCH   5  22
ATOM     20 CL   UNL     1     -29.910  28.318   2.057  0.00  0.00    -0.082 Cl
ATOM     21 CL   UNL     1     -31.806  29.917   6.944  0.00  0.00    -0.082 Cl
ATOM     22  C   UNL     1     -30.779  29.074   4.545  0.00  0.00    +0.025 C 
ATOM     23  C   UNL     1     -29.807  28.419   3.781  0.00  0.00    +0.059 C 
ATOM     24  C   UNL     1     -30.643  29.124   5.936  0.00  0.00    +0.059 C 
ATOM     25  C   UNL     1     -28.711  27.821   4.402  0.00  0.00    +0.011 C 
ATOM     26  C   UNL     1     -29.546  28.526   6.557  0.00  0.00    +0.011 C 
ATOM     27  C   UNL     1     -28.581  27.875   5.790  0.00  0.00    +0.002 C 
ENDBRANCH   5  22
BRANCH  15  28
ATOM     28  C   UNL     1     -35.039  24.537   4.561  0.00  0.00    +0.058 C 
ATOM     29  C   UNL     1     -35.219  23.989   3.140  0.00  0.00    +0.020 C 
ATOM     30  C   UNL     1     -34.524  23.425   5.482  0.00  0.00    +0.020 C 
ATOM     31  C   UNL     1     -36.381  25.063   5.083  0.00  0.00    +0.020 C 
ENDBRANCH  15  28
TORSDOF 2
ENDMDL
MODEL 8
REMARK VINA RESULT:      -5.8      2.019      2.910
REMARK  Name = 5328112
REMARK  2 active torsions:
REMARK  status: ('A' for Active; 'I' for Inactive)
REMARK    1  A    between atoms: C_5  and  C_16
REMARK    2  A    between atoms: N_23  and  C_28
REMARK                            x       y       z     vdW  Elec       q    Type
REMARK                         _______ _______ _______ _____ _____    ______ ____
ROOT
ATOM      1  N   UNL     1     -33.106  26.964   4.749  0.00  0.00    -0.324 NA
ATOM      2  N   UNL     1     -34.425  25.149   5.324  0.00  0.00    -0.272 NA
ATOM      3  N   UNL     1     -36.469  24.657   4.148  0.00  0.00    -0.169 NA
ATOM      4  N   UNL     1     -35.750  23.307   5.921  0.00  0.00    -0.292 N 
ATOM      5  C   UNL     1     -33.733  28.437   2.940  0.00  0.00    +0.047 C 
ATOM      6  C   UNL     1     -32.899  28.037   3.956  0.00  0.00    +0.199 C 
ATOM      7  C   UNL     1     -34.866  27.672   2.727  0.00  0.00    +0.018 C 
ATOM      8  C   UNL     1     -35.107  26.552   3.535  0.00  0.00    +0.106 C 
ATOM      9  C   UNL     1     -34.201  26.217   4.549  0.00  0.00    +0.152 C 
ATOM     10  C   UNL     1     -36.223  25.734   3.383  0.00  0.00    +0.124 C 
ATOM     11  C   UNL     1     -35.540  24.427   5.088  0.00  0.00    +0.152 C 
ATOM     12  H   UNL     1     -35.100  23.090   6.627  0.00  0.00    +0.155 HD
ATOM     13  H   UNL     1     -36.546  22.742   5.795  0.00  0.00    +0.155 HD
ATOM     14  O   UNL     1     -30.740  27.651   6.005  0.00  0.00    -0.252 OA
ATOM     15  N   UNL     1     -29.759  29.538   5.100  0.00  0.00    -0.292 N 
ATOM     16  N   UNL     1     -31.730  28.793   4.207  0.00  0.00    -0.243 N 
ATOM     17  C   UNL     1     -30.754  28.564   5.181  0.00  0.00    +0.306 C 
ATOM     18  H   UNL     1     -29.841  30.237   4.411  0.00  0.00    +0.151 HD
ATOM     19  H   UNL     1     -31.586  29.573   3.625  0.00  0.00    +0.159 HD
ENDROOT
BRANCH   5  22
ATOM     20 CL   UNL     1     -35.187  31.005   3.724  0.00  0.00    -0.082 Cl
ATOM     21 CL   UNL     1     -31.804  28.025   0.607  0.00  0.00    -0.082 Cl
ATOM     22  C   UNL     1     -33.478  29.596   2.108  0.00  0.00    +0.025 C 
ATOM     23  C   UNL     1     -34.100  30.816   2.391  0.00  0.00    +0.059 C 
ATOM     24  C   UNL     1     -32.609  29.502   1.017  0.00  0.00    +0.059 C 
ATOM     25  C   UNL     1     -33.855  31.931   1.590  0.00  0.00    +0.011 C 
ATOM     26  C   UNL     1     -32.364  30.618   0.216  0.00  0.00    +0.011 C 
ATOM     27  C   UNL     1     -32.987  31.832   0.503  0.00  0.00    +0.002 C 
ENDBRANCH   5  22
BRANCH  15  28
ATOM     28  C   UNL     1     -28.609  29.564   5.984  0.00  0.00    +0.058 C 
ATOM     29  C   UNL     1     -27.698  28.372   5.667  0.00  0.00    +0.020 C 
ATOM     30  C   UNL     1     -27.841  30.873   5.768  0.00  0.00    +0.020 C 
ATOM     31  C   UNL     1     -29.084  29.476   7.439  0.00  0.00    +0.020 C 
ENDBRANCH  15  28
TORSDOF 2
ENDMDL
MODEL 9
REMARK VINA RESULT:      -5.7      9.728     11.284
REMARK  Name = 5328112
REMARK  2 active torsions:
REMARK  status: ('A' for Active; 'I' for Inactive)
REMARK    1  A    between atoms: C_5  and  C_16
REMARK    2  A    between atoms: N_23  and  C_28
REMARK                            x       y       z     vdW  Elec       q    Type
REMARK                         _______ _______ _______ _____ _____    ______ ____
ROOT
ATOM      1  N   UNL     1     -42.206  27.494   3.497  0.00  0.00    -0.324 NA
ATOM      2  N   UNL     1     -40.135  26.499   3.195  0.00  0.00    -0.272 NA
ATOM      3  N   UNL     1     -39.813  24.728   1.595  0.00  0.00    -0.169 NA
ATOM      4  N   UNL     1     -38.031  25.503   2.902  0.00  0.00    -0.292 N 
ATOM      5  C   UNL     1     -44.126  26.790   2.213  0.00  0.00    +0.047 C 
ATOM      6  C   UNL     1     -43.510  27.572   3.159  0.00  0.00    +0.199 C 
ATOM      7  C   UNL     1     -43.335  25.856   1.566  0.00  0.00    +0.018 C 
ATOM      8  C   UNL     1     -41.976  25.753   1.896  0.00  0.00    +0.106 C 
ATOM      9  C   UNL     1     -41.432  26.593   2.875  0.00  0.00    +0.152 C 
ATOM     10  C   UNL     1     -41.117  24.840   1.291  0.00  0.00    +0.124 C 
ATOM     11  C   UNL     1     -39.395  25.578   2.544  0.00  0.00    +0.152 C 
ATOM     12  H   UNL     1     -37.670  26.103   3.593  0.00  0.00    +0.155 HD
ATOM     13  H   UNL     1     -37.442  24.850   2.460  0.00  0.00    +0.155 HD
ATOM     14  O   UNL     1     -42.725  29.533   5.291  0.00  0.00    -0.252 OA
ATOM     15  N   UNL     1     -44.931  30.219   5.255  0.00  0.00    -0.292 N 
ATOM     16  N   UNL     1     -44.284  28.538   3.844  0.00  0.00    -0.243 N 
ATOM     17  C   UNL     1     -43.861  29.430   4.834  0.00  0.00    +0.306 C 
ATOM     18  H   UNL     1     -45.813  30.077   4.840  0.00  0.00    +0.151 HD
ATOM     19  H   UNL     1     -45.234  28.589   3.593  0.00  0.00    +0.159 HD
ENDROOT
BRANCH   5  22
ATOM     20 CL   UNL     1     -44.824  28.743  -0.028  0.00  0.00    -0.082 Cl
ATOM     21 CL   UNL     1     -46.043  25.043   3.828  0.00  0.00    -0.082 Cl
ATOM     22  C   UNL     1     -45.531  26.901   1.876  0.00  0.00    +0.025 C 
ATOM     23  C   UNL     1     -45.945  27.770   0.863  0.00  0.00    +0.059 C 
ATOM     24  C   UNL     1     -46.482  26.140   2.562  0.00  0.00    +0.059 C 
ATOM     25  C   UNL     1     -47.297  27.878   0.539  0.00  0.00    +0.011 C 
ATOM     26  C   UNL     1     -47.835  26.247   2.238  0.00  0.00    +0.011 C 
ATOM     27  C   UNL     1     -48.242  27.116   1.226  0.00  0.00    +0.002 C 
ENDBRANCH   5  22
BRANCH  15  28
ATOM     28  C   UNL     1     -44.801  31.241   6.277  0.00  0.00    +0.058 C 
ATOM     29  C   UNL     1     -43.996  32.419   5.717  0.00  0.00    +0.020 C 
ATOM     30  C   UNL     1     -46.199  31.719   6.687  0.00  0.00    +0.020 C 
ATOM     31  C   UNL     1     -44.076  30.654   7.493  0.00  0.00    +0.020 C 
ENDBRANCH  15  28
TORSDOF 2
ENDMDL
