MODEL 1
REMARK VINA RESULT:      -5.8      0.000      0.000
REMARK  Name = 193188
REMARK  5 active torsions:
REMARK  status: ('A' for Active; 'I' for Inactive)
REMARK    1  A    between atoms: C2*_2  and  O2*_16
REMARK    2  A    between atoms: C1*_3  and  N_7
REMARK    3  A    between atoms: C3*_4  and  O3*_18
REMARK    4  A    between atoms: C4*_5  and  C5*_20
REMARK    5  A    between atoms: C5*_20  and  O5*_21
REMARK                            x       y       z     vdW  Elec       q    Type
REMARK                         _______ _______ _______ _____ _____    ______ ____
ROOT
ATOM      1  O4* UNL     1     -38.096  24.221   1.706  0.00  0.00    -0.333 OA
ATOM      2  C2* UNL     1     -39.556  22.435   2.242  0.00  0.00    +0.187 C 
ATOM      3  C1* UNL     1     -38.157  22.782   1.756  0.00  0.00    +0.226 C 
ATOM      4  C3* UNL     1     -40.377  23.546   1.617  0.00  0.00    +0.171 C 
ATOM      5  C4* UNL     1     -39.443  24.746   1.736  0.00  0.00    +0.175 C 
ENDROOT
BRANCH   3   7
ATOM      6  F   UNL     1     -36.301  25.574   5.845  0.00  0.00    -0.109 F 
ATOM      7  N   UNL     1     -37.087  22.272   2.608  0.00  0.00    -0.236 N 
ATOM      8  N   UNL     1     -35.527  20.882   3.392  0.00  0.00    -0.246 NA
ATOM      9  N   UNL     1     -36.841  24.102   4.186  0.00  0.00    -0.310 NA
ATOM     10  N   UNL     1     -35.098  23.632   5.829  0.00  0.00    -0.179 NA
ATOM     11  C   UNL     1     -36.527  22.897   3.687  0.00  0.00    +0.215 C 
ATOM     12  C   UNL     1     -36.451  21.065   2.473  0.00  0.00    +0.223 C 
ATOM     13  C   UNL     1     -35.563  22.020   4.158  0.00  0.00    +0.126 C 
ATOM     14  C   UNL     1     -34.834  22.425   5.272  0.00  0.00    +0.188 C 
ATOM     15  C   UNL     1     -36.071  24.384   5.260  0.00  0.00    +0.238 C 
ENDBRANCH   3   7
BRANCH   2  16
ATOM     16  O2* UNL     1     -39.957  21.147   1.820  0.00  0.00    -0.378 OA
ATOM     17  H2* UNL     1     -39.315  20.804   1.179  0.00  0.00    +0.211 HD
ENDBRANCH   2  16
BRANCH   4  18
ATOM     18  O3* UNL     1     -40.589  23.263   0.234  0.00  0.00    -0.379 OA
ATOM     19  H3* UNL     1     -41.508  22.984   0.099  0.00  0.00    +0.211 HD
ENDBRANCH   4  18
BRANCH   5  20
ATOM     20  C5* UNL     1     -39.628  25.517   3.036  0.00  0.00    +0.169 C 
BRANCH  20  21
ATOM     21  O5* UNL     1     -38.516  26.376   3.216  0.00  0.00    -0.379 OA
ATOM     22  H5* UNL     1     -38.735  27.053   3.876  0.00  0.00    +0.211 HD
ENDBRANCH  20  21
ENDBRANCH   5  20
TORSDOF 5
ENDMDL
MODEL 2
REMARK VINA RESULT:      -5.8      3.903      5.599
REMARK  Name = 193188
REMARK  5 active torsions:
REMARK  status: ('A' for Active; 'I' for Inactive)
REMARK    1  A    between atoms: C2*_2  and  O2*_16
REMARK    2  A    between atoms: C1*_3  and  N_7
REMARK    3  A    between atoms: C3*_4  and  O3*_18
REMARK    4  A    between atoms: C4*_5  and  C5*_20
REMARK    5  A    between atoms: C5*_20  and  O5*_21
REMARK                            x       y       z     vdW  Elec       q    Type
REMARK                         _______ _______ _______ _____ _____    ______ ____
ROOT
ATOM      1  O4* UNL     1     -35.939  24.129   5.620  0.00  0.00    -0.333 OA
ATOM      2  C2* UNL     1     -35.231  23.699   3.401  0.00  0.00    +0.187 C 
ATOM      3  C1* UNL     1     -35.659  24.790   4.371  0.00  0.00    +0.226 C 
ATOM      4  C3* UNL     1     -36.090  22.537   3.858  0.00  0.00    +0.171 C 
ATOM      5  C4* UNL     1     -36.098  22.713   5.373  0.00  0.00    +0.175 C 
ENDROOT
BRANCH   3   7
ATOM      6  F   UNL     1     -34.434  28.255   0.570  0.00  0.00    -0.109 F 
ATOM      7  N   UNL     1     -34.654  25.830   4.577  0.00  0.00    -0.236 N 
ATOM      8  N   UNL     1     -33.100  27.055   5.610  0.00  0.00    -0.246 NA
ATOM      9  N   UNL     1     -34.697  26.949   2.422  0.00  0.00    -0.310 NA
ATOM     10  N   UNL     1     -33.113  28.805   2.351  0.00  0.00    -0.179 NA
ATOM     11  C   UNL     1     -34.254  26.777   3.676  0.00  0.00    +0.215 C 
ATOM     12  C   UNL     1     -33.932  26.040   5.723  0.00  0.00    +0.223 C 
ATOM     13  C   UNL     1     -33.292  27.525   4.335  0.00  0.00    +0.126 C 
ATOM     14  C   UNL     1     -32.713  28.572   3.625  0.00  0.00    +0.188 C 
ATOM     15  C   UNL     1     -34.066  27.990   1.836  0.00  0.00    +0.238 C 
ENDBRANCH   3   7
BRANCH   2  16
ATOM     16  O2* UNL     1     -35.467  24.066   2.057  0.00  0.00    -0.378 OA
ATOM     17  H2* UNL     1     -36.052  23.413   1.642  0.00  0.00    +0.211 HD
ENDBRANCH   2  16
BRANCH   4  18
ATOM     18  O3* UNL     1     -37.421  22.705   3.367  0.00  0.00    -0.379 OA
ATOM     19  H3* UNL     1     -37.890  21.858   3.410  0.00  0.00    +0.211 HD
ENDBRANCH   4  18
BRANCH   5  20
ATOM     20  C5* UNL     1     -34.961  21.974   6.063  0.00  0.00    +0.169 C 
BRANCH  20  21
ATOM     21  O5* UNL     1     -35.112  20.586   5.826  0.00  0.00    -0.379 OA
ATOM     22  H5* UNL     1     -35.087  20.417   4.870  0.00  0.00    +0.211 HD
ENDBRANCH  20  21
ENDBRANCH   5  20
TORSDOF 5
ENDMDL
MODEL 3
REMARK VINA RESULT:      -5.7      3.130      5.641
REMARK  Name = 193188
REMARK  5 active torsions:
REMARK  status: ('A' for Active; 'I' for Inactive)
REMARK    1  A    between atoms: C2*_2  and  O2*_16
REMARK    2  A    between atoms: C1*_3  and  N_7
REMARK    3  A    between atoms: C3*_4  and  O3*_18
REMARK    4  A    between atoms: C4*_5  and  C5*_20
REMARK    5  A    between atoms: C5*_20  and  O5*_21
REMARK                            x       y       z     vdW  Elec       q    Type
REMARK                         _______ _______ _______ _____ _____    ______ ____
ROOT
ATOM      1  O4* UNL     1     -35.568  22.870   4.020  0.00  0.00    -0.333 OA
ATOM      2  C2* UNL     1     -36.178  24.971   4.930  0.00  0.00    +0.187 C 
ATOM      3  C1* UNL     1     -36.198  24.118   3.671  0.00  0.00    +0.226 C 
ATOM      4  C3* UNL     1     -34.867  24.544   5.561  0.00  0.00    +0.171 C 
ATOM      5  C4* UNL     1     -34.826  23.051   5.249  0.00  0.00    +0.175 C 
ENDROOT
BRANCH   3   7
ATOM      6  F   UNL     1     -37.215  19.962   0.565  0.00  0.00    -0.109 F 
ATOM      7  N   UNL     1     -37.537  23.863   3.146  0.00  0.00    -0.236 N 
ATOM      8  N   UNL     1     -39.718  24.145   2.767  0.00  0.00    -0.246 NA
ATOM      9  N   UNL     1     -37.153  21.837   1.862  0.00  0.00    -0.310 NA
ATOM     10  N   UNL     1     -39.205  21.060   0.793  0.00  0.00    -0.179 NA
ATOM     11  C   UNL     1     -37.920  22.829   2.338  0.00  0.00    +0.215 C 
ATOM     12  C   UNL     1     -38.653  24.626   3.375  0.00  0.00    +0.223 C 
ATOM     13  C   UNL     1     -39.274  23.022   2.115  0.00  0.00    +0.126 C 
ATOM     14  C   UNL     1     -39.919  22.090   1.309  0.00  0.00    +0.188 C 
ATOM     15  C   UNL     1     -37.886  20.999   1.097  0.00  0.00    +0.238 C 
ENDBRANCH   3   7
BRANCH   2  16
ATOM     16  O2* UNL     1     -36.225  26.351   4.634  0.00  0.00    -0.378 OA
ATOM     17  H2* UNL     1     -36.903  26.776   5.182  0.00  0.00    +0.211 HD
ENDBRANCH   2  16
BRANCH   4  18
ATOM     18  O3* UNL     1     -33.783  25.185   4.889  0.00  0.00    -0.379 OA
ATOM     19  H3* UNL     1     -32.978  24.655   4.995  0.00  0.00    +0.211 HD
ENDBRANCH   4  18
BRANCH   5  20
ATOM     20  C5* UNL     1     -35.474  22.199   6.331  0.00  0.00    +0.169 C 
BRANCH  20  21
ATOM     21  O5* UNL     1     -35.437  20.843   5.923  0.00  0.00    -0.379 OA
ATOM     22  H5* UNL     1     -34.698  20.394   6.363  0.00  0.00    +0.211 HD
ENDBRANCH  20  21
ENDBRANCH   5  20
TORSDOF 5
ENDMDL
MODEL 4
REMARK VINA RESULT:      -5.6      2.989      5.368
REMARK  Name = 193188
REMARK  5 active torsions:
REMARK  status: ('A' for Active; 'I' for Inactive)
REMARK    1  A    between atoms: C2*_2  and  O2*_16
REMARK    2  A    between atoms: C1*_3  and  N_7
REMARK    3  A    between atoms: C3*_4  and  O3*_18
REMARK    4  A    between atoms: C4*_5  and  C5*_20
REMARK    5  A    between atoms: C5*_20  and  O5*_21
REMARK                            x       y       z     vdW  Elec       q    Type
REMARK                         _______ _______ _______ _____ _____    ______ ____
ROOT
ATOM      1  O4* UNL     1     -35.344  22.945   3.937  0.00  0.00    -0.333 OA
ATOM      2  C2* UNL     1     -36.583  24.780   4.779  0.00  0.00    +0.187 C 
ATOM      3  C1* UNL     1     -36.205  24.021   3.516  0.00  0.00    +0.226 C 
ATOM      4  C3* UNL     1     -35.316  24.646   5.601  0.00  0.00    +0.171 C 
ATOM      5  C4* UNL     1     -34.861  23.229   5.270  0.00  0.00    +0.175 C 
ENDROOT
BRANCH   3   7
ATOM      6  F   UNL     1     -39.553  27.165   0.897  0.00  0.00    -0.109 F 
ATOM      7  N   UNL     1     -37.346  23.482   2.781  0.00  0.00    -0.236 N 
ATOM      8  N   UNL     1     -38.768  21.978   1.946  0.00  0.00    -0.246 NA
ATOM      9  N   UNL     1     -38.333  25.519   1.900  0.00  0.00    -0.310 NA
ATOM     10  N   UNL     1     -40.325  25.040   0.573  0.00  0.00    -0.179 NA
ATOM     11  C   UNL     1     -38.275  24.189   2.071  0.00  0.00    +0.215 C 
ATOM     12  C   UNL     1     -37.686  22.158   2.675  0.00  0.00    +0.223 C 
ATOM     13  C   UNL     1     -39.147  23.240   1.562  0.00  0.00    +0.126 C 
ATOM     14  C   UNL     1     -40.204  23.707   0.788  0.00  0.00    +0.188 C 
ATOM     15  C   UNL     1     -39.396  25.850   1.135  0.00  0.00    +0.238 C 
ENDBRANCH   3   7
BRANCH   2  16
ATOM     16  O2* UNL     1     -36.926  26.123   4.505  0.00  0.00    -0.378 OA
ATOM     17  H2* UNL     1     -36.937  26.628   5.334  0.00  0.00    +0.211 HD
ENDBRANCH   2  16
BRANCH   4  18
ATOM     18  O3* UNL     1     -34.337  25.568   5.121  0.00  0.00    -0.379 OA
ATOM     19  H3* UNL     1     -34.735  26.449   5.039  0.00  0.00    +0.211 HD
ENDBRANCH   4  18
BRANCH   5  20
ATOM     20  C5* UNL     1     -35.431  22.184   6.220  0.00  0.00    +0.169 C 
BRANCH  20  21
ATOM     21  O5* UNL     1     -35.300  20.907   5.621  0.00  0.00    -0.379 OA
ATOM     22  H5* UNL     1     -35.950  20.818   4.907  0.00  0.00    +0.211 HD
ENDBRANCH  20  21
ENDBRANCH   5  20
TORSDOF 5
ENDMDL
MODEL 5
REMARK VINA RESULT:      -5.6      4.979      7.105
REMARK  Name = 193188
REMARK  5 active torsions:
REMARK  status: ('A' for Active; 'I' for Inactive)
REMARK    1  A    between atoms: C2*_2  and  O2*_16
REMARK    2  A    between atoms: C1*_3  and  N_7
REMARK    3  A    between atoms: C3*_4  and  O3*_18
REMARK    4  A    between atoms: C4*_5  and  C5*_20
REMARK    5  A    between atoms: C5*_20  and  O5*_21
REMARK                            x       y       z     vdW  Elec       q    Type
REMARK                         _______ _______ _______ _____ _____    ______ ____
ROOT
ATOM      1  O4* UNL     1     -32.955  28.530   5.136  0.00  0.00    -0.333 OA
ATOM      2  C2* UNL     1     -31.853  27.594   3.260  0.00  0.00    +0.187 C 
ATOM      3  C1* UNL     1     -32.837  27.307   4.384  0.00  0.00    +0.226 C 
ATOM      4  C3* UNL     1     -30.901  28.563   3.934  0.00  0.00    +0.171 C 
ATOM      5  C4* UNL     1     -31.841  29.391   4.804  0.00  0.00    +0.175 C 
ENDROOT
BRANCH   3   7
ATOM      6  F   UNL     1     -35.178  22.978   6.317  0.00  0.00    -0.109 F 
ATOM      7  N   UNL     1     -34.156  26.881   3.926  0.00  0.00    -0.236 N 
ATOM      8  N   UNL     1     -36.071  26.891   2.779  0.00  0.00    -0.246 NA
ATOM      9  N   UNL     1     -34.488  24.881   5.265  0.00  0.00    -0.310 NA
ATOM     10  N   UNL     1     -36.641  23.836   4.786  0.00  0.00    -0.179 NA
ATOM     11  C   UNL     1     -34.859  25.787   4.348  0.00  0.00    +0.215 C 
ATOM     12  C   UNL     1     -34.927  27.511   2.983  0.00  0.00    +0.223 C 
ATOM     13  C   UNL     1     -36.042  25.811   3.625  0.00  0.00    +0.126 C 
ATOM     14  C   UNL     1     -36.950  24.787   3.871  0.00  0.00    +0.188 C 
ATOM     15  C   UNL     1     -35.446  23.941   5.417  0.00  0.00    +0.238 C 
ENDBRANCH   3   7
BRANCH   2  16
ATOM     16  O2* UNL     1     -31.215  26.418   2.805  0.00  0.00    -0.378 OA
ATOM     17  H2* UNL     1     -31.513  26.218   1.903  0.00  0.00    +0.211 HD
ENDBRANCH   2  16
BRANCH   4  18
ATOM     18  O3* UNL     1     -30.006  27.842   4.780  0.00  0.00    -0.379 OA
ATOM     19  H3* UNL     1     -29.447  28.467   5.266  0.00  0.00    +0.211 HD
ENDBRANCH   4  18
BRANCH   5  20
ATOM     20  C5* UNL     1     -32.382  30.622   4.090  0.00  0.00    +0.169 C 
BRANCH  20  21
ATOM     21  O5* UNL     1     -33.793  30.638   4.219  0.00  0.00    -0.379 OA
ATOM     22  H5* UNL     1     -34.078  29.867   4.735  0.00  0.00    +0.211 HD
ENDBRANCH  20  21
ENDBRANCH   5  20
TORSDOF 5
ENDMDL
MODEL 6
REMARK VINA RESULT:      -5.6      4.159      5.345
REMARK  Name = 193188
REMARK  5 active torsions:
REMARK  status: ('A' for Active; 'I' for Inactive)
REMARK    1  A    between atoms: C2*_2  and  O2*_16
REMARK    2  A    between atoms: C1*_3  and  N_7
REMARK    3  A    between atoms: C3*_4  and  O3*_18
REMARK    4  A    between atoms: C4*_5  and  C5*_20
REMARK    5  A    between atoms: C5*_20  and  O5*_21
REMARK                            x       y       z     vdW  Elec       q    Type
REMARK                         _______ _______ _______ _____ _____    ______ ____
ROOT
ATOM      1  O4* UNL     1     -36.413  25.079   4.340  0.00  0.00    -0.333 OA
ATOM      2  C2* UNL     1     -36.888  26.349   2.397  0.00  0.00    +0.187 C 
ATOM      3  C1* UNL     1     -36.123  26.343   3.712  0.00  0.00    +0.226 C 
ATOM      4  C3* UNL     1     -38.134  25.570   2.771  0.00  0.00    +0.171 C 
ATOM      5  C4* UNL     1     -37.582  24.504   3.712  0.00  0.00    +0.175 C 
ENDROOT
BRANCH   3   7
ATOM      6  F   UNL     1     -33.881  31.111   3.274  0.00  0.00    -0.109 F 
ATOM      7  N   UNL     1     -34.679  26.499   3.561  0.00  0.00    -0.236 N 
ATOM      8  N   UNL     1     -32.528  25.936   3.372  0.00  0.00    -0.246 NA
ATOM      9  N   UNL     1     -34.486  28.917   3.433  0.00  0.00    -0.310 NA
ATOM     10  N   UNL     1     -32.161  29.612   3.169  0.00  0.00    -0.179 NA
ATOM     11  C   UNL     1     -33.987  27.672   3.439  0.00  0.00    +0.215 C 
ATOM     12  C   UNL     1     -33.757  25.486   3.515  0.00  0.00    +0.223 C 
ATOM     13  C   UNL     1     -32.657  27.302   3.323  0.00  0.00    +0.126 C 
ATOM     14  C   UNL     1     -31.728  28.327   3.184  0.00  0.00    +0.188 C 
ATOM     15  C   UNL     1     -33.494  29.823   3.293  0.00  0.00    +0.238 C 
ENDBRANCH   3   7
BRANCH   2  16
ATOM     16  O2* UNL     1     -37.168  27.661   1.955  0.00  0.00    -0.378 OA
ATOM     17  H2* UNL     1     -36.924  27.746   1.020  0.00  0.00    +0.211 HD
ENDBRANCH   2  16
BRANCH   4  18
ATOM     18  O3* UNL     1     -39.023  26.415   3.502  0.00  0.00    -0.379 OA
ATOM     19  H3* UNL     1     -39.011  27.305   3.118  0.00  0.00    +0.211 HD
ENDBRANCH   4  18
BRANCH   5  20
ATOM     20  C5* UNL     1     -37.163  23.232   2.988  0.00  0.00    +0.169 C 
BRANCH  20  21
ATOM     21  O5* UNL     1     -36.777  22.268   3.952  0.00  0.00    -0.379 OA
ATOM     22  H5* UNL     1     -36.913  21.378   3.591  0.00  0.00    +0.211 HD
ENDBRANCH  20  21
ENDBRANCH   5  20
TORSDOF 5
ENDMDL
MODEL 7
REMARK VINA RESULT:      -5.5      2.802      4.421
REMARK  Name = 193188
REMARK  5 active torsions:
REMARK  status: ('A' for Active; 'I' for Inactive)
REMARK    1  A    between atoms: C2*_2  and  O2*_16
REMARK    2  A    between atoms: C1*_3  and  N_7
REMARK    3  A    between atoms: C3*_4  and  O3*_18
REMARK    4  A    between atoms: C4*_5  and  C5*_20
REMARK    5  A    between atoms: C5*_20  and  O5*_21
REMARK                            x       y       z     vdW  Elec       q    Type
REMARK                         _______ _______ _______ _____ _____    ______ ____
ROOT
ATOM      1  O4* UNL     1     -35.158  20.118   1.757  0.00  0.00    -0.333 OA
ATOM      2  C2* UNL     1     -37.211  20.330   0.594  0.00  0.00    +0.187 C 
ATOM      3  C1* UNL     1     -36.520  20.557   1.930  0.00  0.00    +0.226 C 
ATOM      4  C3* UNL     1     -36.518  19.074   0.105  0.00  0.00    +0.171 C 
ATOM      5  C4* UNL     1     -35.082  19.292   0.572  0.00  0.00    +0.175 C 
ENDROOT
BRANCH   3   7
ATOM      6  F   UNL     1     -34.872  21.919   6.765  0.00  0.00    -0.109 F 
ATOM      7  N   UNL     1     -36.537  21.945   2.382  0.00  0.00    -0.236 N 
ATOM      8  N   UNL     1     -36.857  24.154   2.328  0.00  0.00    -0.246 NA
ATOM      9  N   UNL     1     -35.653  21.710   4.632  0.00  0.00    -0.310 NA
ATOM     10  N   UNL     1     -35.517  23.869   5.764  0.00  0.00    -0.179 NA
ATOM     11  C   UNL     1     -36.140  22.418   3.601  0.00  0.00    +0.215 C 
ATOM     12  C   UNL     1     -36.960  23.027   1.653  0.00  0.00    +0.223 C 
ATOM     13  C   UNL     1     -36.345  23.787   3.547  0.00  0.00    +0.126 C 
ATOM     14  C   UNL     1     -36.015  24.518   4.683  0.00  0.00    +0.188 C 
ATOM     15  C   UNL     1     -35.369  22.525   5.672  0.00  0.00    +0.238 C 
ENDBRANCH   3   7
BRANCH   2  16
ATOM     16  O2* UNL     1     -38.607  20.169   0.742  0.00  0.00    -0.378 OA
ATOM     17  H2* UNL     1     -38.785  19.543   1.462  0.00  0.00    +0.211 HD
ENDBRANCH   2  16
BRANCH   4  18
ATOM     18  O3* UNL     1     -37.056  17.938   0.783  0.00  0.00    -0.379 OA
ATOM     19  H3* UNL     1     -36.459  17.182   0.669  0.00  0.00    +0.211 HD
ENDBRANCH   4  18
BRANCH   5  20
ATOM     20  C5* UNL     1     -34.224  20.010  -0.460  0.00  0.00    +0.169 C 
BRANCH  20  21
ATOM     21  O5* UNL     1     -33.431  20.977   0.204  0.00  0.00    -0.379 OA
ATOM     22  H5* UNL     1     -33.983  21.475   0.828  0.00  0.00    +0.211 HD
ENDBRANCH  20  21
ENDBRANCH   5  20
TORSDOF 5
ENDMDL
MODEL 8
REMARK VINA RESULT:      -5.5      3.324      4.347
REMARK  Name = 193188
REMARK  5 active torsions:
REMARK  status: ('A' for Active; 'I' for Inactive)
REMARK    1  A    between atoms: C2*_2  and  O2*_16
REMARK    2  A    between atoms: C1*_3  and  N_7
REMARK    3  A    between atoms: C3*_4  and  O3*_18
REMARK    4  A    between atoms: C4*_5  and  C5*_20
REMARK    5  A    between atoms: C5*_20  and  O5*_21
REMARK                            x       y       z     vdW  Elec       q    Type
REMARK                         _______ _______ _______ _____ _____    ______ ____
ROOT
ATOM      1  O4* UNL     1     -34.870  21.358   0.082  0.00  0.00    -0.333 OA
ATOM      2  C2* UNL     1     -36.556  20.318   1.381  0.00  0.00    +0.187 C 
ATOM      3  C1* UNL     1     -35.330  21.218   1.440  0.00  0.00    +0.226 C 
ATOM      4  C3* UNL     1     -36.188  19.383   0.245  0.00  0.00    +0.171 C 
ATOM      5  C4* UNL     1     -35.466  20.315  -0.723  0.00  0.00    +0.175 C 
ENDROOT
BRANCH   3   7
ATOM      6  F   UNL     1     -35.506  21.983   6.669  0.00  0.00    -0.109 F 
ATOM      7  N   UNL     1     -35.587  22.536   2.013  0.00  0.00    -0.236 N 
ATOM      8  N   UNL     1     -36.007  24.726   2.103  0.00  0.00    -0.246 NA
ATOM      9  N   UNL     1     -35.503  22.033   4.388  0.00  0.00    -0.310 NA
ATOM     10  N   UNL     1     -35.894  24.031   5.735  0.00  0.00    -0.179 NA
ATOM     11  C   UNL     1     -35.656  22.857   3.340  0.00  0.00    +0.215 C 
ATOM     12  C   UNL     1     -35.804  23.694   1.311  0.00  0.00    +0.223 C 
ATOM     13  C   UNL     1     -35.916  24.217   3.375  0.00  0.00    +0.126 C 
ATOM     14  C   UNL     1     -36.037  24.803   4.630  0.00  0.00    +0.188 C 
ATOM     15  C   UNL     1     -35.640  22.713   5.547  0.00  0.00    +0.238 C 
ENDBRANCH   3   7
BRANCH   2  16
ATOM     16  O2* UNL     1     -36.775  19.644   2.603  0.00  0.00    -0.378 OA
ATOM     17  H2* UNL     1     -37.206  20.246   3.231  0.00  0.00    +0.211 HD
ENDBRANCH   2  16
BRANCH   4  18
ATOM     18  O3* UNL     1     -35.265  18.402   0.716  0.00  0.00    -0.379 OA
ATOM     19  H3* UNL     1     -35.277  18.385   1.685  0.00  0.00    +0.211 HD
ENDBRANCH   4  18
BRANCH   5  20
ATOM     20  C5* UNL     1     -36.402  20.963  -1.734  0.00  0.00    +0.169 C 
BRANCH  20  21
ATOM     21  O5* UNL     1     -35.992  22.304  -1.936  0.00  0.00    -0.379 OA
ATOM     22  H5* UNL     1     -35.062  22.319  -2.213  0.00  0.00    +0.211 HD
ENDBRANCH  20  21
ENDBRANCH   5  20
TORSDOF 5
ENDMDL
MODEL 9
REMARK VINA RESULT:      -5.5      3.079      5.648
REMARK  Name = 193188
REMARK  5 active torsions:
REMARK  status: ('A' for Active; 'I' for Inactive)
REMARK    1  A    between atoms: C2*_2  and  O2*_16
REMARK    2  A    between atoms: C1*_3  and  N_7
REMARK    3  A    between atoms: C3*_4  and  O3*_18
REMARK    4  A    between atoms: C4*_5  and  C5*_20
REMARK    5  A    between atoms: C5*_20  and  O5*_21
REMARK                            x       y       z     vdW  Elec       q    Type
REMARK                         _______ _______ _______ _____ _____    ______ ____
ROOT
ATOM      1  O4* UNL     1     -35.529  24.246   2.961  0.00  0.00    -0.333 OA
ATOM      2  C2* UNL     1     -36.472  25.338   4.840  0.00  0.00    +0.187 C 
ATOM      3  C1* UNL     1     -36.190  25.466   3.350  0.00  0.00    +0.226 C 
ATOM      4  C3* UNL     1     -35.267  24.546   5.307  0.00  0.00    +0.171 C 
ATOM      5  C4* UNL     1     -35.042  23.580   4.149  0.00  0.00    +0.175 C 
ENDROOT
BRANCH   3   7
ATOM      6  F   UNL     1     -39.658  21.563   2.520  0.00  0.00    -0.109 F 
ATOM      7  N   UNL     1     -37.383  25.664   2.532  0.00  0.00    -0.236 N 
ATOM      8  N   UNL     1     -38.878  26.698   1.237  0.00  0.00    -0.246 NA
ATOM      9  N   UNL     1     -38.398  23.460   2.656  0.00  0.00    -0.310 NA
ATOM     10  N   UNL     1     -40.478  23.366   1.382  0.00  0.00    -0.179 NA
ATOM     11  C   UNL     1     -38.346  24.737   2.247  0.00  0.00    +0.215 C 
ATOM     12  C   UNL     1     -37.749  26.825   1.903  0.00  0.00    +0.223 C 
ATOM     13  C   UNL     1     -39.263  25.397   1.444  0.00  0.00    +0.126 C 
ATOM     14  C   UNL     1     -40.361  24.663   1.007  0.00  0.00    +0.188 C 
ATOM     15  C   UNL     1     -39.503  22.853   2.171  0.00  0.00    +0.238 C 
ENDBRANCH   3   7
BRANCH   2  16
ATOM     16  O2* UNL     1     -36.582  26.600   5.466  0.00  0.00    -0.378 OA
ATOM     17  H2* UNL     1     -36.891  26.482   6.378  0.00  0.00    +0.211 HD
ENDBRANCH   2  16
BRANCH   4  18
ATOM     18  O3* UNL     1     -34.137  25.413   5.411  0.00  0.00    -0.379 OA
ATOM     19  H3* UNL     1     -33.497  25.037   6.034  0.00  0.00    +0.211 HD
ENDBRANCH   4  18
BRANCH   5  20
ATOM     20  C5* UNL     1     -35.802  22.271   4.311  0.00  0.00    +0.169 C 
BRANCH  20  21
ATOM     21  O5* UNL     1     -36.079  22.074   5.686  0.00  0.00    -0.379 OA
ATOM     22  H5* UNL     1     -36.938  21.634   5.782  0.00  0.00    +0.211 HD
ENDBRANCH  20  21
ENDBRANCH   5  20
TORSDOF 5
ENDMDL
