MODEL 1
REMARK VINA RESULT:      -7.3      0.000      0.000
REMARK  Name = 5360621
REMARK  8 active torsions:
REMARK  status: ('A' for Active; 'I' for Inactive)
REMARK    1  A    between atoms: C_11  and  O_23
REMARK    2  A    between atoms: C_18  and  O_21
REMARK    3  A    between atoms: O_23  and  C_25
REMARK    4  A    between atoms: C_26  and  O_30
REMARK    5  A    between atoms: C_27  and  O_32
REMARK    6  A    between atoms: C_28  and  O_34
REMARK    7  A    between atoms: C_29  and  C_37
REMARK    8  A    between atoms: C_37  and  O_38
REMARK                            x       y       z     vdW  Elec       q    Type
REMARK                         _______ _______ _______ _____ _____    ______ ____
ROOT
ATOM      1  O   UNL     1     -39.839  26.606   2.448  0.00  0.00    -0.473 OA
ATOM      2  N   UNL     1     -42.225  24.990  -1.935  0.00  0.00    +0.387 N 
ATOM      3  C   UNL     1     -40.644  25.466   0.452  0.00  0.00    +0.061 C 
ATOM      4  C   UNL     1     -40.946  24.053  -0.073  0.00  0.00    +0.010 C 
ATOM      5  C   UNL     1     -39.447  25.633   1.418  0.00  0.00    +0.201 C 
ATOM      6  C   UNL     1     -42.356  24.114  -0.746  0.00  0.00    -0.049 C 
ATOM      7  C   UNL     1     -40.599  26.452  -0.732  0.00  0.00    -0.015 C 
ATOM      8  C   UNL     1     -41.725  25.855   1.406  0.00  0.00    +0.014 C 
ATOM      9  C   UNL     1     -43.488  24.528   0.256  0.00  0.00    +0.006 C 
ATOM     10  C   UNL     1     -41.852  26.373  -1.619  0.00  0.00    -0.077 C 
ATOM     11  C   UNL     1     -38.951  24.312   2.060  0.00  0.00    +0.180 C 
ATOM     12  C   UNL     1     -43.059  25.500   1.322  0.00  0.00    -0.025 C 
ATOM     13  C   UNL     1     -40.813  23.017   1.013  0.00  0.00    -0.030 C 
ATOM     14  C   UNL     1     -41.206  26.546   2.476  0.00  0.00    +0.168 C 
ATOM     15  C   UNL     1     -39.910  23.153   1.996  0.00  0.00    +0.002 C 
ATOM     16  C   UNL     1     -43.381  24.940  -2.824  0.00  0.00    -0.101 C 
ATOM     17  C   UNL     1     -43.910  25.982   2.317  0.00  0.00    -0.001 C 
ATOM     18  C   UNL     1     -42.027  27.040   3.467  0.00  0.00    +0.167 C 
ATOM     19  C   UNL     1     -43.397  26.764   3.371  0.00  0.00    +0.039 C 
ATOM     20  H   UNL     1     -41.438  24.592  -2.449  0.00  0.00    -0.080 HD
ENDROOT
BRANCH  18  21
ATOM     21  O   UNL     1     -41.532  27.738   4.517  0.00  0.00    -0.503 OA
ATOM     22  H   UNL     1     -41.445  27.327   5.355  0.00  0.00    +0.292 HD
ENDBRANCH  18  21
BRANCH  11  23
ATOM     23  O   UNL     1     -38.549  24.548   3.407  0.00  0.00    -0.323 OA
BRANCH  23  25
ATOM     24  O   UNL     1     -36.808  23.369   4.419  0.00  0.00    -0.317 OA
ATOM     25  C   UNL     1     -37.132  24.453   3.551  0.00  0.00    +0.266 C 
ATOM     26  C   UNL     1     -36.627  25.772   4.136  0.00  0.00    +0.196 C 
ATOM     27  C   UNL     1     -35.132  25.702   4.449  0.00  0.00    +0.172 C 
ATOM     28  C   UNL     1     -34.785  24.440   5.236  0.00  0.00    +0.178 C 
ATOM     29  C   UNL     1     -35.404  23.209   4.585  0.00  0.00    +0.245 C 
BRANCH  26  30
ATOM     30  O   UNL     1     -36.863  26.805   3.179  0.00  0.00    -0.378 OA
ATOM     31  H   UNL     1     -37.817  26.889   3.023  0.00  0.00    +0.211 HD
ENDBRANCH  26  30
BRANCH  27  32
ATOM     32  O   UNL     1     -34.757  26.832   5.238  0.00  0.00    -0.379 OA
ATOM     33  H   UNL     1     -33.830  26.742   5.513  0.00  0.00    +0.211 HD
ENDBRANCH  27  32
BRANCH  28  34
ATOM     34  O   UNL     1     -33.368  24.280   5.262  0.00  0.00    -0.379 OA
ATOM     35  H   UNL     1     -33.101  23.889   6.109  0.00  0.00    +0.211 HD
ENDBRANCH  28  34
BRANCH  29  37
ATOM     36  O   UNL     1     -35.164  22.064   6.695  0.00  0.00    -0.247 OA
ATOM     37  C   UNL     1     -35.296  22.018   5.480  0.00  0.00    +0.344 C 
BRANCH  37  38
ATOM     38  O   UNL     1     -35.362  20.870   4.763  0.00  0.00    -0.478 OA
ATOM     39  H   UNL     1     -35.717  20.880   3.896  0.00  0.00    +0.295 HD
ENDBRANCH  37  38
ENDBRANCH  29  37
ENDBRANCH  23  25
ENDBRANCH  11  23
TORSDOF 8
ENDMDL
MODEL 2
REMARK VINA RESULT:      -7.2      5.053      7.888
REMARK  Name = 5360621
REMARK  8 active torsions:
REMARK  status: ('A' for Active; 'I' for Inactive)
REMARK    1  A    between atoms: C_11  and  O_23
REMARK    2  A    between atoms: C_18  and  O_21
REMARK    3  A    between atoms: O_23  and  C_25
REMARK    4  A    between atoms: C_26  and  O_30
REMARK    5  A    between atoms: C_27  and  O_32
REMARK    6  A    between atoms: C_28  and  O_34
REMARK    7  A    between atoms: C_29  and  C_37
REMARK    8  A    between atoms: C_37  and  O_38
REMARK                            x       y       z     vdW  Elec       q    Type
REMARK                         _______ _______ _______ _____ _____    ______ ____
ROOT
ATOM      1  O   UNL     1     -37.204  20.682   2.172  0.00  0.00    -0.473 OA
ATOM      2  N   UNL     1     -34.889  24.579   4.811  0.00  0.00    +0.387 N 
ATOM      3  C   UNL     1     -35.766  22.433   3.065  0.00  0.00    +0.061 C 
ATOM      4  C   UNL     1     -34.805  23.538   2.600  0.00  0.00    +0.010 C 
ATOM      5  C   UNL     1     -35.803  21.120   2.248  0.00  0.00    +0.201 C 
ATOM      6  C   UNL     1     -35.194  24.834   3.382  0.00  0.00    -0.049 C 
ATOM      7  C   UNL     1     -35.574  22.191   4.576  0.00  0.00    -0.015 C 
ATOM      8  C   UNL     1     -37.165  22.878   2.789  0.00  0.00    +0.014 C 
ATOM      9  C   UNL     1     -36.664  25.297   3.094  0.00  0.00    +0.006 C 
ATOM     10  C   UNL     1     -35.667  23.485   5.401  0.00  0.00    -0.077 C 
ATOM     11  C   UNL     1     -35.176  21.227   0.834  0.00  0.00    +0.180 C 
ATOM     12  C   UNL     1     -37.639  24.176   2.851  0.00  0.00    -0.025 C 
ATOM     13  C   UNL     1     -34.811  23.683   1.100  0.00  0.00    -0.030 C 
ATOM     14  C   UNL     1     -37.933  21.826   2.346  0.00  0.00    +0.168 C 
ATOM     15  C   UNL     1     -35.001  22.624   0.299  0.00  0.00    +0.002 C 
ATOM     16  C   UNL     1     -34.945  25.780   5.639  0.00  0.00    -0.101 C 
ATOM     17  C   UNL     1     -38.990  24.375   2.564  0.00  0.00    -0.001 C 
ATOM     18  C   UNL     1     -39.272  21.996   2.065  0.00  0.00    +0.167 C 
ATOM     19  C   UNL     1     -39.803  23.286   2.193  0.00  0.00    +0.039 C 
ATOM     20  H   UNL     1     -33.917  24.269   4.804  0.00  0.00    -0.080 HD
ENDROOT
BRANCH  18  21
ATOM     21  O   UNL     1     -40.045  20.965   1.645  0.00  0.00    -0.503 OA
ATOM     22  H   UNL     1     -40.184  20.225   2.203  0.00  0.00    +0.292 HD
ENDBRANCH  18  21
BRANCH  11  23
ATOM     23  O   UNL     1     -35.919  20.434  -0.088  0.00  0.00    -0.323 OA
BRANCH  23  25
ATOM     24  O   UNL     1     -34.637  18.484  -0.103  0.00  0.00    -0.317 OA
ATOM     25  C   UNL     1     -35.890  19.053   0.272  0.00  0.00    +0.266 C 
ATOM     26  C   UNL     1     -37.034  18.350  -0.460  0.00  0.00    +0.196 C 
ATOM     27  C   UNL     1     -36.989  16.838  -0.234  0.00  0.00    +0.172 C 
ATOM     28  C   UNL     1     -35.588  16.279  -0.479  0.00  0.00    +0.178 C 
ATOM     29  C   UNL     1     -34.539  17.110   0.251  0.00  0.00    +0.245 C 
BRANCH  26  30
ATOM     30  O   UNL     1     -38.268  18.867   0.038  0.00  0.00    -0.378 OA
ATOM     31  H   UNL     1     -38.305  19.823  -0.121  0.00  0.00    +0.211 HD
ENDBRANCH  26  30
BRANCH  27  32
ATOM     32  O   UNL     1     -37.886  16.194  -1.140  0.00  0.00    -0.379 OA
ATOM     33  H   UNL     1     -37.504  15.350  -1.428  0.00  0.00    +0.211 HD
ENDBRANCH  27  32
BRANCH  28  34
ATOM     34  O   UNL     1     -35.530  14.939   0.006  0.00  0.00    -0.379 OA
ATOM     35  H   UNL     1     -34.635  14.587  -0.122  0.00  0.00    +0.211 HD
ENDBRANCH  28  34
BRANCH  29  37
ATOM     36  O   UNL     1     -32.164  16.777   0.518  0.00  0.00    -0.247 OA
ATOM     37  C   UNL     1     -33.161  16.738  -0.189  0.00  0.00    +0.344 C 
BRANCH  37  38
ATOM     38  O   UNL     1     -33.160  16.351  -1.488  0.00  0.00    -0.478 OA
ATOM     39  H   UNL     1     -32.775  16.902  -2.140  0.00  0.00    +0.295 HD
ENDBRANCH  37  38
ENDBRANCH  29  37
ENDBRANCH  23  25
ENDBRANCH  11  23
TORSDOF 8
ENDMDL
MODEL 3
REMARK VINA RESULT:      -7.1      4.792      9.291
REMARK  Name = 5360621
REMARK  8 active torsions:
REMARK  status: ('A' for Active; 'I' for Inactive)
REMARK    1  A    between atoms: C_11  and  O_23
REMARK    2  A    between atoms: C_18  and  O_21
REMARK    3  A    between atoms: O_23  and  C_25
REMARK    4  A    between atoms: C_26  and  O_30
REMARK    5  A    between atoms: C_27  and  O_32
REMARK    6  A    between atoms: C_28  and  O_34
REMARK    7  A    between atoms: C_29  and  C_37
REMARK    8  A    between atoms: C_37  and  O_38
REMARK                            x       y       z     vdW  Elec       q    Type
REMARK                         _______ _______ _______ _____ _____    ______ ____
ROOT
ATOM      1  O   UNL     1     -32.662  27.040   4.578  0.00  0.00    -0.473 OA
ATOM      2  N   UNL     1     -30.285  30.742   1.722  0.00  0.00    +0.387 N 
ATOM      3  C   UNL     1     -31.974  28.747   2.983  0.00  0.00    +0.061 C 
ATOM      4  C   UNL     1     -32.544  29.928   2.182  0.00  0.00    +0.010 C 
ATOM      5  C   UNL     1     -32.890  27.520   3.208  0.00  0.00    +0.201 C 
ATOM      6  C   UNL     1     -31.558  31.125   2.378  0.00  0.00    -0.049 C 
ATOM      7  C   UNL     1     -30.593  28.364   2.416  0.00  0.00    -0.015 C 
ATOM      8  C   UNL     1     -31.847  29.164   4.411  0.00  0.00    +0.014 C 
ATOM      9  C   UNL     1     -31.423  31.558   3.878  0.00  0.00    +0.006 C 
ATOM     10  C   UNL     1     -29.639  29.566   2.314  0.00  0.00    -0.077 C 
ATOM     11  C   UNL     1     -34.396  27.791   2.956  0.00  0.00    +0.180 C 
ATOM     12  C   UNL     1     -31.533  30.431   4.870  0.00  0.00    -0.025 C 
ATOM     13  C   UNL     1     -33.972  30.220   2.565  0.00  0.00    -0.030 C 
ATOM     14  C   UNL     1     -32.193  28.133   5.254  0.00  0.00    +0.168 C 
ATOM     15  C   UNL     1     -34.808  29.239   2.937  0.00  0.00    +0.002 C 
ATOM     16  C   UNL     1     -29.347  31.851   1.582  0.00  0.00    -0.101 C 
ATOM     17  C   UNL     1     -31.454  30.606   6.252  0.00  0.00    -0.001 C 
ATOM     18  C   UNL     1     -32.115  28.279   6.622  0.00  0.00    +0.167 C 
ATOM     19  C   UNL     1     -31.724  29.529   7.120  0.00  0.00    +0.039 C 
ATOM     20  H   UNL     1     -30.565  30.470   0.779  0.00  0.00    -0.080 HD
ENDROOT
BRANCH  18  21
ATOM     21  O   UNL     1     -32.435  27.267   7.464  0.00  0.00    -0.503 OA
ATOM     22  H   UNL     1     -33.241  26.802   7.353  0.00  0.00    +0.292 HD
ENDBRANCH  18  21
BRANCH  11  23
ATOM     23  O   UNL     1     -35.183  27.065   3.897  0.00  0.00    -0.323 OA
BRANCH  23  25
ATOM     24  O   UNL     1     -37.200  26.174   3.135  0.00  0.00    -0.317 OA
ATOM     25  C   UNL     1     -35.804  25.931   3.293  0.00  0.00    +0.266 C 
ATOM     26  C   UNL     1     -35.573  24.724   4.203  0.00  0.00    +0.196 C 
ATOM     27  C   UNL     1     -36.325  23.495   3.693  0.00  0.00    +0.172 C 
ATOM     28  C   UNL     1     -37.782  23.826   3.369  0.00  0.00    +0.178 C 
ATOM     29  C   UNL     1     -37.873  25.084   2.515  0.00  0.00    +0.245 C 
BRANCH  26  30
ATOM     30  O   UNL     1     -34.174  24.446   4.231  0.00  0.00    -0.378 OA
ATOM     31  H   UNL     1     -33.826  24.625   5.119  0.00  0.00    +0.211 HD
ENDBRANCH  26  30
BRANCH  27  32
ATOM     32  O   UNL     1     -36.316  22.479   4.697  0.00  0.00    -0.379 OA
ATOM     33  H   UNL     1     -37.110  22.563   5.250  0.00  0.00    +0.211 HD
ENDBRANCH  27  32
BRANCH  28  34
ATOM     34  O   UNL     1     -38.357  22.739   2.646  0.00  0.00    -0.379 OA
ATOM     35  H   UNL     1     -38.366  21.946   3.206  0.00  0.00    +0.211 HD
ENDBRANCH  28  34
BRANCH  29  37
ATOM     36  O   UNL     1     -40.129  25.104   1.658  0.00  0.00    -0.247 OA
ATOM     37  C   UNL     1     -39.285  25.562   2.415  0.00  0.00    +0.344 C 
BRANCH  37  38
ATOM     38  O   UNL     1     -39.509  26.582   3.280  0.00  0.00    -0.478 OA
ATOM     39  H   UNL     1     -40.229  26.539   3.877  0.00  0.00    +0.295 HD
ENDBRANCH  37  38
ENDBRANCH  29  37
ENDBRANCH  23  25
ENDBRANCH  11  23
TORSDOF 8
ENDMDL
MODEL 4
REMARK VINA RESULT:      -7.1      4.121      6.784
REMARK  Name = 5360621
REMARK  8 active torsions:
REMARK  status: ('A' for Active; 'I' for Inactive)
REMARK    1  A    between atoms: C_11  and  O_23
REMARK    2  A    between atoms: C_18  and  O_21
REMARK    3  A    between atoms: O_23  and  C_25
REMARK    4  A    between atoms: C_26  and  O_30
REMARK    5  A    between atoms: C_27  and  O_32
REMARK    6  A    between atoms: C_28  and  O_34
REMARK    7  A    between atoms: C_29  and  C_37
REMARK    8  A    between atoms: C_37  and  O_38
REMARK                            x       y       z     vdW  Elec       q    Type
REMARK                         _______ _______ _______ _____ _____    ______ ____
ROOT
ATOM      1  O   UNL     1     -34.730  26.712   2.216  0.00  0.00    -0.473 OA
ATOM      2  N   UNL     1     -35.446  21.517   2.331  0.00  0.00    +0.387 N 
ATOM      3  C   UNL     1     -34.792  24.323   2.684  0.00  0.00    +0.061 C 
ATOM      4  C   UNL     1     -34.894  23.341   3.863  0.00  0.00    +0.010 C 
ATOM      5  C   UNL     1     -34.004  25.635   2.907  0.00  0.00    +0.201 C 
ATOM      6  C   UNL     1     -35.982  22.287   3.479  0.00  0.00    -0.049 C 
ATOM      7  C   UNL     1     -34.338  23.560   1.423  0.00  0.00    -0.015 C 
ATOM      8  C   UNL     1     -36.137  24.932   2.461  0.00  0.00    +0.014 C 
ATOM      9  C   UNL     1     -37.392  22.930   3.241  0.00  0.00    +0.006 C 
ATOM     10  C   UNL     1     -35.205  22.325   1.131  0.00  0.00    -0.077 C 
ATOM     11  C   UNL     1     -33.764  25.994   4.396  0.00  0.00    +0.180 C 
ATOM     12  C   UNL     1     -37.359  24.311   2.643  0.00  0.00    -0.025 C 
ATOM     13  C   UNL     1     -35.146  24.061   5.162  0.00  0.00    -0.030 C 
ATOM     14  C   UNL     1     -36.021  26.266   2.142  0.00  0.00    +0.168 C 
ATOM     15  C   UNL     1     -34.642  25.282   5.391  0.00  0.00    +0.002 C 
ATOM     16  C   UNL     1     -36.222  20.320   2.021  0.00  0.00    -0.101 C 
ATOM     17  C   UNL     1     -38.502  25.061   2.366  0.00  0.00    -0.001 C 
ATOM     18  C   UNL     1     -37.135  27.026   1.856  0.00  0.00    +0.167 C 
ATOM     19  C   UNL     1     -38.387  26.404   1.955  0.00  0.00    +0.039 C 
ATOM     20  H   UNL     1     -34.530  21.201   2.652  0.00  0.00    -0.080 HD
ENDROOT
BRANCH  18  21
ATOM     21  O   UNL     1     -37.034  28.335   1.523  0.00  0.00    -0.503 OA
ATOM     22  H   UNL     1     -36.192  28.741   1.460  0.00  0.00    +0.292 HD
ENDBRANCH  18  21
BRANCH  11  23
ATOM     23  O   UNL     1     -33.853  27.405   4.577  0.00  0.00    -0.323 OA
BRANCH  23  25
ATOM     24  O   UNL     1     -31.784  28.055   5.435  0.00  0.00    -0.317 OA
ATOM     25  C   UNL     1     -32.615  28.048   4.277  0.00  0.00    +0.266 C 
ATOM     26  C   UNL     1     -32.921  29.479   3.833  0.00  0.00    +0.196 C 
ATOM     27  C   UNL     1     -31.635  30.279   3.623  0.00  0.00    +0.172 C 
ATOM     28  C   UNL     1     -30.686  30.131   4.811  0.00  0.00    +0.178 C 
ATOM     29  C   UNL     1     -30.522  28.665   5.193  0.00  0.00    +0.245 C 
BRANCH  26  30
ATOM     30  O   UNL     1     -33.648  29.420   2.606  0.00  0.00    -0.378 OA
ATOM     31  H   UNL     1     -33.519  28.550   2.195  0.00  0.00    +0.211 HD
ENDBRANCH  26  30
BRANCH  27  32
ATOM     32  O   UNL     1     -31.955  31.665   3.483  0.00  0.00    -0.379 OA
ATOM     33  H   UNL     1     -32.101  31.870   2.545  0.00  0.00    +0.211 HD
ENDBRANCH  27  32
BRANCH  28  34
ATOM     34  O   UNL     1     -29.408  30.658   4.456  0.00  0.00    -0.379 OA
ATOM     35  H   UNL     1     -28.979  31.026   5.244  0.00  0.00    +0.211 HD
ENDBRANCH  28  34
BRANCH  29  37
ATOM     36  O   UNL     1     -29.412  29.462   7.182  0.00  0.00    -0.247 OA
ATOM     37  C   UNL     1     -29.815  28.528   6.502  0.00  0.00    +0.344 C 
BRANCH  37  38
ATOM     38  O   UNL     1     -29.675  27.223   6.838  0.00  0.00    -0.478 OA
ATOM     39  H   UNL     1     -29.955  26.555   6.245  0.00  0.00    +0.295 HD
ENDBRANCH  37  38
ENDBRANCH  29  37
ENDBRANCH  23  25
ENDBRANCH  11  23
TORSDOF 8
ENDMDL
MODEL 5
REMARK VINA RESULT:      -6.8      4.379      7.982
REMARK  Name = 5360621
REMARK  8 active torsions:
REMARK  status: ('A' for Active; 'I' for Inactive)
REMARK    1  A    between atoms: C_11  and  O_23
REMARK    2  A    between atoms: C_18  and  O_21
REMARK    3  A    between atoms: O_23  and  C_25
REMARK    4  A    between atoms: C_26  and  O_30
REMARK    5  A    between atoms: C_27  and  O_32
REMARK    6  A    between atoms: C_28  and  O_34
REMARK    7  A    between atoms: C_29  and  C_37
REMARK    8  A    between atoms: C_37  and  O_38
REMARK                            x       y       z     vdW  Elec       q    Type
REMARK                         _______ _______ _______ _____ _____    ______ ____
ROOT
ATOM      1  O   UNL     1     -35.298  21.832   2.555  0.00  0.00    -0.473 OA
ATOM      2  N   UNL     1     -34.627  27.025   2.245  0.00  0.00    +0.387 N 
ATOM      3  C   UNL     1     -35.370  24.222   2.098  0.00  0.00    +0.061 C 
ATOM      4  C   UNL     1     -36.376  25.360   1.857  0.00  0.00    +0.010 C 
ATOM      5  C   UNL     1     -35.727  22.819   1.554  0.00  0.00    +0.201 C 
ATOM      6  C   UNL     1     -35.934  26.553   2.765  0.00  0.00    -0.049 C 
ATOM      7  C   UNL     1     -33.962  24.688   1.675  0.00  0.00    -0.015 C 
ATOM      8  C   UNL     1     -35.384  23.882   3.552  0.00  0.00    +0.014 C 
ATOM      9  C   UNL     1     -35.946  26.191   4.290  0.00  0.00    +0.006 C 
ATOM     10  C   UNL     1     -33.559  26.023   2.321  0.00  0.00    -0.077 C 
ATOM     11  C   UNL     1     -37.223  22.632   1.194  0.00  0.00    +0.180 C 
ATOM     12  C   UNL     1     -35.583  24.764   4.599  0.00  0.00    -0.025 C 
ATOM     13  C   UNL     1     -37.795  24.899   2.070  0.00  0.00    -0.030 C 
ATOM     14  C   UNL     1     -35.280  22.522   3.735  0.00  0.00    +0.168 C 
ATOM     15  C   UNL     1     -38.170  23.644   1.782  0.00  0.00    +0.002 C 
ATOM     16  C   UNL     1     -34.204  28.301   2.813  0.00  0.00    -0.101 C 
ATOM     17  C   UNL     1     -35.548  24.237   5.891  0.00  0.00    -0.001 C 
ATOM     18  C   UNL     1     -35.234  21.979   5.002  0.00  0.00    +0.167 C 
ATOM     19  C   UNL     1     -35.353  22.855   6.088  0.00  0.00    +0.039 C 
ATOM     20  H   UNL     1     -34.800  27.185   1.252  0.00  0.00    -0.080 HD
ENDROOT
BRANCH  18  21
ATOM     21  O   UNL     1     -35.113  20.644   5.197  0.00  0.00    -0.503 OA
ATOM     22  H   UNL     1     -34.684  20.112   4.555  0.00  0.00    +0.292 HD
ENDBRANCH  18  21
BRANCH  11  23
ATOM     23  O   UNL     1     -37.641  21.311   1.527  0.00  0.00    -0.323 OA
BRANCH  23  25
ATOM     24  O   UNL     1     -38.944  20.266  -0.102  0.00  0.00    -0.317 OA
ATOM     25  C   UNL     1     -37.618  20.454   0.385  0.00  0.00    +0.266 C 
ATOM     26  C   UNL     1     -37.013  19.116   0.811  0.00  0.00    +0.196 C 
ATOM     27  C   UNL     1     -37.078  18.094  -0.324  0.00  0.00    +0.172 C 
ATOM     28  C   UNL     1     -38.473  18.035  -0.944  0.00  0.00    +0.178 C 
ATOM     29  C   UNL     1     -38.985  19.436  -1.257  0.00  0.00    +0.245 C 
BRANCH  26  30
ATOM     30  O   UNL     1     -35.650  19.337   1.173  0.00  0.00    -0.378 OA
ATOM     31  H   UNL     1     -35.251  18.499   1.458  0.00  0.00    +0.211 HD
ENDBRANCH  26  30
BRANCH  27  32
ATOM     32  O   UNL     1     -36.766  16.796   0.185  0.00  0.00    -0.379 OA
ATOM     33  H   UNL     1     -37.031  16.122  -0.462  0.00  0.00    +0.211 HD
ENDBRANCH  27  32
BRANCH  28  34
ATOM     34  O   UNL     1     -38.414  17.287  -2.157  0.00  0.00    -0.379 OA
ATOM     35  H   UNL     1     -39.252  16.816  -2.288  0.00  0.00    +0.211 HD
ENDBRANCH  28  34
BRANCH  29  37
ATOM     36  O   UNL     1     -40.912  18.817  -2.570  0.00  0.00    -0.247 OA
ATOM     37  C   UNL     1     -40.436  19.410  -1.612  0.00  0.00    +0.344 C 
BRANCH  37  38
ATOM     38  O   UNL     1     -41.160  20.137  -0.728  0.00  0.00    -0.478 OA
ATOM     39  H   UNL     1     -41.364  19.782   0.114  0.00  0.00    +0.295 HD
ENDBRANCH  37  38
ENDBRANCH  29  37
ENDBRANCH  23  25
ENDBRANCH  11  23
TORSDOF 8
ENDMDL
MODEL 6
REMARK VINA RESULT:      -6.7      5.612      8.286
REMARK  Name = 5360621
REMARK  8 active torsions:
REMARK  status: ('A' for Active; 'I' for Inactive)
REMARK    1  A    between atoms: C_11  and  O_23
REMARK    2  A    between atoms: C_18  and  O_21
REMARK    3  A    between atoms: O_23  and  C_25
REMARK    4  A    between atoms: C_26  and  O_30
REMARK    5  A    between atoms: C_27  and  O_32
REMARK    6  A    between atoms: C_28  and  O_34
REMARK    7  A    between atoms: C_29  and  C_37
REMARK    8  A    between atoms: C_37  and  O_38
REMARK                            x       y       z     vdW  Elec       q    Type
REMARK                         _______ _______ _______ _____ _____    ______ ____
ROOT
ATOM      1  O   UNL     1     -37.101  20.436  -0.536  0.00  0.00    -0.473 OA
ATOM      2  N   UNL     1     -32.299  18.597  -1.573  0.00  0.00    +0.387 N 
ATOM      3  C   UNL     1     -34.738  19.854  -0.625  0.00  0.00    +0.061 C 
ATOM      4  C   UNL     1     -33.550  19.548   0.301  0.00  0.00    +0.010 C 
ATOM      5  C   UNL     1     -35.763  20.912  -0.155  0.00  0.00    +0.201 C 
ATOM      6  C   UNL     1     -32.871  18.252  -0.249  0.00  0.00    -0.049 C 
ATOM      7  C   UNL     1     -34.217  20.120  -2.052  0.00  0.00    -0.015 C 
ATOM      8  C   UNL     1     -35.653  18.675  -0.624  0.00  0.00    +0.014 C 
ATOM      9  C   UNL     1     -33.836  17.016  -0.250  0.00  0.00    +0.006 C 
ATOM     10  C   UNL     1     -33.298  19.001  -2.567  0.00  0.00    -0.077 C 
ATOM     11  C   UNL     1     -35.700  21.237   1.360  0.00  0.00    +0.180 C 
ATOM     12  C   UNL     1     -35.280  17.347  -0.517  0.00  0.00    -0.025 C 
ATOM     13  C   UNL     1     -33.978  19.469   1.743  0.00  0.00    -0.030 C 
ATOM     14  C   UNL     1     -36.969  19.078  -0.634  0.00  0.00    +0.168 C 
ATOM     15  C   UNL     1     -34.976  20.232   2.216  0.00  0.00    +0.002 C 
ATOM     16  C   UNL     1     -31.402  17.575  -2.102  0.00  0.00    -0.101 C 
ATOM     17  C   UNL     1     -36.299  16.394  -0.546  0.00  0.00    -0.001 C 
ATOM     18  C   UNL     1     -37.993  18.156  -0.673  0.00  0.00    +0.167 C 
ATOM     19  C   UNL     1     -37.645  16.799  -0.645  0.00  0.00    +0.039 C 
ATOM     20  H   UNL     1     -31.729  19.423  -1.387  0.00  0.00    -0.080 HD
ENDROOT
BRANCH  18  21
ATOM     21  O   UNL     1     -39.292  18.539  -0.702  0.00  0.00    -0.503 OA
ATOM     22  H   UNL     1     -39.561  19.322  -0.262  0.00  0.00    +0.292 HD
ENDBRANCH  18  21
BRANCH  11  23
ATOM     23  O   UNL     1     -37.014  21.461   1.864  0.00  0.00    -0.323 OA
BRANCH  23  25
ATOM     24  O   UNL     1     -36.885  23.320   3.267  0.00  0.00    -0.317 OA
ATOM     25  C   UNL     1     -37.295  22.855   1.983  0.00  0.00    +0.266 C 
ATOM     26  C   UNL     1     -38.802  23.050   1.803  0.00  0.00    +0.196 C 
ATOM     27  C   UNL     1     -39.205  24.504   2.053  0.00  0.00    +0.172 C 
ATOM     28  C   UNL     1     -38.608  25.032   3.357  0.00  0.00    +0.178 C 
ATOM     29  C   UNL     1     -37.120  24.713   3.439  0.00  0.00    +0.245 C 
BRANCH  26  30
ATOM     30  O   UNL     1     -39.142  22.687   0.466  0.00  0.00    -0.378 OA
ATOM     31  H   UNL     1     -39.857  23.261   0.147  0.00  0.00    +0.211 HD
ENDBRANCH  26  30
BRANCH  27  32
ATOM     32  O   UNL     1     -40.627  24.594   2.149  0.00  0.00    -0.379 OA
ATOM     33  H   UNL     1     -40.940  24.020   2.867  0.00  0.00    +0.211 HD
ENDBRANCH  27  32
BRANCH  28  34
ATOM     34  O   UNL     1     -38.777  26.448   3.406  0.00  0.00    -0.379 OA
ATOM     35  H   UNL     1     -39.699  26.672   3.206  0.00  0.00    +0.211 HD
ENDBRANCH  28  34
BRANCH  29  37
ATOM     36  O   UNL     1     -36.161  24.137   5.577  0.00  0.00    -0.247 OA
ATOM     37  C   UNL     1     -36.590  24.986   4.809  0.00  0.00    +0.344 C 
BRANCH  37  38
ATOM     38  O   UNL     1     -36.649  26.310   5.091  0.00  0.00    -0.478 OA
ATOM     39  H   UNL     1     -37.257  26.626   5.730  0.00  0.00    +0.295 HD
ENDBRANCH  37  38
ENDBRANCH  29  37
ENDBRANCH  23  25
ENDBRANCH  11  23
TORSDOF 8
ENDMDL
MODEL 7
REMARK VINA RESULT:      -6.6      4.342      7.334
REMARK  Name = 5360621
REMARK  8 active torsions:
REMARK  status: ('A' for Active; 'I' for Inactive)
REMARK    1  A    between atoms: C_11  and  O_23
REMARK    2  A    between atoms: C_18  and  O_21
REMARK    3  A    between atoms: O_23  and  C_25
REMARK    4  A    between atoms: C_26  and  O_30
REMARK    5  A    between atoms: C_27  and  O_32
REMARK    6  A    between atoms: C_28  and  O_34
REMARK    7  A    between atoms: C_29  and  C_37
REMARK    8  A    between atoms: C_37  and  O_38
REMARK                            x       y       z     vdW  Elec       q    Type
REMARK                         _______ _______ _______ _____ _____    ______ ____
ROOT
ATOM      1  O   UNL     1     -37.048  22.885   3.700  0.00  0.00    -0.473 OA
ATOM      2  N   UNL     1     -33.368  26.617   3.915  0.00  0.00    +0.387 N 
ATOM      3  C   UNL     1     -35.071  24.297   3.534  0.00  0.00    +0.061 C 
ATOM      4  C   UNL     1     -33.960  24.682   2.543  0.00  0.00    +0.010 C 
ATOM      5  C   UNL     1     -35.591  22.841   3.502  0.00  0.00    +0.201 C 
ATOM      6  C   UNL     1     -33.854  26.241   2.566  0.00  0.00    -0.049 C 
ATOM      7  C   UNL     1     -34.672  24.759   4.951  0.00  0.00    -0.015 C 
ATOM      8  C   UNL     1     -36.334  24.971   3.110  0.00  0.00    +0.014 C 
ATOM      9  C   UNL     1     -35.184  26.945   2.125  0.00  0.00    +0.006 C 
ATOM     10  C   UNL     1     -34.277  26.243   5.003  0.00  0.00    -0.077 C 
ATOM     11  C   UNL     1     -35.229  22.059   2.213  0.00  0.00    +0.180 C 
ATOM     12  C   UNL     1     -36.441  26.215   2.515  0.00  0.00    -0.025 C 
ATOM     13  C   UNL     1     -34.205  24.088   1.180  0.00  0.00    -0.030 C 
ATOM     14  C   UNL     1     -37.415  24.137   3.288  0.00  0.00    +0.168 C 
ATOM     15  C   UNL     1     -34.803  22.896   1.037  0.00  0.00    +0.002 C 
ATOM     16  C   UNL     1     -32.961  28.015   4.017  0.00  0.00    -0.101 C 
ATOM     17  C   UNL     1     -37.725  26.665   2.206  0.00  0.00    -0.001 C 
ATOM     18  C   UNL     1     -38.693  24.563   2.998  0.00  0.00    +0.167 C 
ATOM     19  C   UNL     1     -38.844  25.850   2.466  0.00  0.00    +0.039 C 
ATOM     20  H   UNL     1     -32.526  26.053   4.039  0.00  0.00    -0.080 HD
ENDROOT
BRANCH  18  21
ATOM     21  O   UNL     1     -39.768  23.759   3.186  0.00  0.00    -0.503 OA
ATOM     22  H   UNL     1     -40.212  23.754   4.011  0.00  0.00    +0.292 HD
ENDBRANCH  18  21
BRANCH  11  23
ATOM     23  O   UNL     1     -36.307  21.202   1.847  0.00  0.00    -0.323 OA
BRANCH  23  25
ATOM     24  O   UNL     1     -34.423  19.901   1.396  0.00  0.00    -0.317 OA
ATOM     25  C   UNL     1     -35.843  19.892   1.522  0.00  0.00    +0.266 C 
ATOM     26  C   UNL     1     -36.492  19.475   0.202  0.00  0.00    +0.196 C 
ATOM     27  C   UNL     1     -35.941  18.135  -0.287  0.00  0.00    +0.172 C 
ATOM     28  C   UNL     1     -34.413  18.113  -0.250  0.00  0.00    +0.178 C 
ATOM     29  C   UNL     1     -33.898  18.614   1.093  0.00  0.00    +0.245 C 
BRANCH  26  30
ATOM     30  O   UNL     1     -37.899  19.360   0.412  0.00  0.00    -0.378 OA
ATOM     31  H   UNL     1     -38.224  18.549  -0.010  0.00  0.00    +0.211 HD
ENDBRANCH  26  30
BRANCH  27  32
ATOM     32  O   UNL     1     -36.354  17.913  -1.636  0.00  0.00    -0.379 OA
ATOM     33  H   UNL     1     -37.238  18.291  -1.770  0.00  0.00    +0.211 HD
ENDBRANCH  27  32
BRANCH  28  34
ATOM     34  O   UNL     1     -33.961  16.774  -0.444  0.00  0.00    -0.379 OA
ATOM     35  H   UNL     1     -34.583  16.158  -0.024  0.00  0.00    +0.211 HD
ENDBRANCH  28  34
BRANCH  29  37
ATOM     36  O   UNL     1     -31.886  19.868   0.642  0.00  0.00    -0.247 OA
ATOM     37  C   UNL     1     -32.422  18.846   1.047  0.00  0.00    +0.344 C 
BRANCH  37  38
ATOM     38  O   UNL     1     -31.752  17.765   1.515  0.00  0.00    -0.478 OA
ATOM     39  H   UNL     1     -32.178  17.164   2.092  0.00  0.00    +0.295 HD
ENDBRANCH  37  38
ENDBRANCH  29  37
ENDBRANCH  23  25
ENDBRANCH  11  23
TORSDOF 8
ENDMDL
MODEL 8
REMARK VINA RESULT:      -6.6      6.394      9.114
REMARK  Name = 5360621
REMARK  8 active torsions:
REMARK  status: ('A' for Active; 'I' for Inactive)
REMARK    1  A    between atoms: C_11  and  O_23
REMARK    2  A    between atoms: C_18  and  O_21
REMARK    3  A    between atoms: O_23  and  C_25
REMARK    4  A    between atoms: C_26  and  O_30
REMARK    5  A    between atoms: C_27  and  O_32
REMARK    6  A    between atoms: C_28  and  O_34
REMARK    7  A    between atoms: C_29  and  C_37
REMARK    8  A    between atoms: C_37  and  O_38
REMARK                            x       y       z     vdW  Elec       q    Type
REMARK                         _______ _______ _______ _____ _____    ______ ____
ROOT
ATOM      1  O   UNL     1     -36.020  19.383  -0.928  0.00  0.00    -0.473 OA
ATOM      2  N   UNL     1     -31.399  17.040  -1.743  0.00  0.00    +0.387 N 
ATOM      3  C   UNL     1     -33.709  18.617  -0.968  0.00  0.00    +0.061 C 
ATOM      4  C   UNL     1     -32.517  18.378  -0.028  0.00  0.00    +0.010 C 
ATOM      5  C   UNL     1     -34.640  19.813  -0.658  0.00  0.00    +0.201 C 
ATOM      6  C   UNL     1     -31.951  16.961  -0.369  0.00  0.00    -0.049 C 
ATOM      7  C   UNL     1     -33.217  18.605  -2.429  0.00  0.00    -0.015 C 
ATOM      8  C   UNL     1     -34.706  17.527  -0.751  0.00  0.00    +0.014 C 
ATOM      9  C   UNL     1     -33.001  15.819  -0.144  0.00  0.00    +0.006 C 
ATOM     10  C   UNL     1     -32.398  17.350  -2.770  0.00  0.00    -0.077 C 
ATOM     11  C   UNL     1     -34.505  20.376   0.780  0.00  0.00    +0.180 C 
ATOM     12  C   UNL     1     -34.425  16.210  -0.433  0.00  0.00    -0.025 C 
ATOM     13  C   UNL     1     -32.902  18.570   1.416  0.00  0.00    -0.030 C 
ATOM     14  C   UNL     1     -35.989  18.022  -0.802  0.00  0.00    +0.168 C 
ATOM     15  C   UNL     1     -33.827  19.473   1.776  0.00  0.00    +0.002 C 
ATOM     16  C   UNL     1     -30.595  15.880  -2.113  0.00  0.00    -0.101 C 
ATOM     17  C   UNL     1     -35.510  15.346  -0.283  0.00  0.00    -0.001 C 
ATOM     18  C   UNL     1     -37.077  17.186  -0.666  0.00  0.00    +0.167 C 
ATOM     19  C   UNL     1     -36.827  15.830  -0.420  0.00  0.00    +0.039 C 
ATOM     20  H   UNL     1     -30.766  17.840  -1.708  0.00  0.00    -0.080 HD
ENDROOT
BRANCH  18  21
ATOM     21  O   UNL     1     -38.346  17.657  -0.732  0.00  0.00    -0.503 OA
ATOM     22  H   UNL     1     -39.019  17.269  -0.208  0.00  0.00    +0.292 HD
ENDBRANCH  18  21
BRANCH  11  23
ATOM     23  O   UNL     1     -35.783  20.779   1.266  0.00  0.00    -0.323 OA
BRANCH  23  25
ATOM     24  O   UNL     1     -35.558  21.507   3.471  0.00  0.00    -0.317 OA
ATOM     25  C   UNL     1     -35.681  21.923   2.113  0.00  0.00    +0.266 C 
ATOM     26  C   UNL     1     -36.945  22.763   1.925  0.00  0.00    +0.196 C 
ATOM     27  C   UNL     1     -36.976  23.941   2.901  0.00  0.00    +0.172 C 
ATOM     28  C   UNL     1     -36.672  23.490   4.329  0.00  0.00    +0.178 C 
ATOM     29  C   UNL     1     -35.430  22.607   4.365  0.00  0.00    +0.245 C 
BRANCH  26  30
ATOM     30  O   UNL     1     -36.958  23.257   0.586  0.00  0.00    -0.378 OA
ATOM     31  H   UNL     1     -36.572  24.147   0.566  0.00  0.00    +0.211 HD
ENDBRANCH  26  30
BRANCH  27  32
ATOM     32  O   UNL     1     -38.275  24.533   2.891  0.00  0.00    -0.379 OA
ATOM     33  H   UNL     1     -38.702  24.364   2.036  0.00  0.00    +0.211 HD
ENDBRANCH  27  32
BRANCH  28  34
ATOM     34  O   UNL     1     -36.440  24.640   5.141  0.00  0.00    -0.379 OA
ATOM     35  H   UNL     1     -36.860  25.414   4.734  0.00  0.00    +0.211 HD
ENDBRANCH  28  34
BRANCH  29  37
ATOM     36  O   UNL     1     -35.224  22.543   6.768  0.00  0.00    -0.247 OA
ATOM     37  C   UNL     1     -35.278  21.952   5.699  0.00  0.00    +0.344 C 
BRANCH  37  38
ATOM     38  O   UNL     1     -35.205  20.605   5.567  0.00  0.00    -0.478 OA
ATOM     39  H   UNL     1     -35.320  20.211   4.725  0.00  0.00    +0.295 HD
ENDBRANCH  37  38
ENDBRANCH  29  37
ENDBRANCH  23  25
ENDBRANCH  11  23
TORSDOF 8
ENDMDL
MODEL 9
REMARK VINA RESULT:      -6.6      5.170      7.645
REMARK  Name = 5360621
REMARK  8 active torsions:
REMARK  status: ('A' for Active; 'I' for Inactive)
REMARK    1  A    between atoms: C_11  and  O_23
REMARK    2  A    between atoms: C_18  and  O_21
REMARK    3  A    between atoms: O_23  and  C_25
REMARK    4  A    between atoms: C_26  and  O_30
REMARK    5  A    between atoms: C_27  and  O_32
REMARK    6  A    between atoms: C_28  and  O_34
REMARK    7  A    between atoms: C_29  and  C_37
REMARK    8  A    between atoms: C_37  and  O_38
REMARK                            x       y       z     vdW  Elec       q    Type
REMARK                         _______ _______ _______ _____ _____    ______ ____
ROOT
ATOM      1  O   UNL     1     -37.227  20.677   2.231  0.00  0.00    -0.473 OA
ATOM      2  N   UNL     1     -34.826  24.564   4.808  0.00  0.00    +0.387 N 
ATOM      3  C   UNL     1     -35.754  22.414   3.093  0.00  0.00    +0.061 C 
ATOM      4  C   UNL     1     -34.779  23.499   2.607  0.00  0.00    +0.010 C 
ATOM      5  C   UNL     1     -35.819  21.094   2.289  0.00  0.00    +0.201 C 
ATOM      6  C   UNL     1     -35.141  24.809   3.380  0.00  0.00    -0.049 C 
ATOM      7  C   UNL     1     -35.550  22.184   4.604  0.00  0.00    -0.015 C 
ATOM      8  C   UNL     1     -37.148  22.878   2.826  0.00  0.00    +0.014 C 
ATOM      9  C   UNL     1     -36.606  25.292   3.101  0.00  0.00    +0.006 C 
ATOM     10  C   UNL     1     -35.614  23.488   5.417  0.00  0.00    -0.077 C 
ATOM     11  C   UNL     1     -35.205  21.177   0.868  0.00  0.00    +0.180 C 
ATOM     12  C   UNL     1     -37.601  24.184   2.879  0.00  0.00    -0.025 C 
ATOM     13  C   UNL     1     -34.798  23.629   1.106  0.00  0.00    -0.030 C 
ATOM     14  C   UNL     1     -37.937  21.835   2.401  0.00  0.00    +0.168 C 
ATOM     15  C   UNL     1     -35.012  22.565   0.318  0.00  0.00    +0.002 C 
ATOM     16  C   UNL     1     -34.854  25.773   5.625  0.00  0.00    -0.101 C 
ATOM     17  C   UNL     1     -38.951  24.402   2.603  0.00  0.00    -0.001 C 
ATOM     18  C   UNL     1     -39.275  22.023   2.131  0.00  0.00    +0.167 C 
ATOM     19  C   UNL     1     -39.785  23.322   2.252  0.00  0.00    +0.039 C 
ATOM     20  H   UNL     1     -33.859  24.238   4.795  0.00  0.00    -0.080 HD
ENDROOT
BRANCH  18  21
ATOM     21  O   UNL     1     -40.069  21.000   1.730  0.00  0.00    -0.503 OA
ATOM     22  H   UNL     1     -40.297  20.910   0.825  0.00  0.00    +0.292 HD
ENDBRANCH  18  21
BRANCH  11  23
ATOM     23  O   UNL     1     -35.969  20.387  -0.038  0.00  0.00    -0.323 OA
BRANCH  23  25
ATOM     24  O   UNL     1     -34.220  18.864   0.218  0.00  0.00    -0.317 OA
ATOM     25  C   UNL     1     -35.154  19.422  -0.703  0.00  0.00    +0.266 C 
ATOM     26  C   UNL     1     -34.420  20.129  -1.843  0.00  0.00    +0.196 C 
ATOM     27  C   UNL     1     -33.420  19.192  -2.522  0.00  0.00    +0.172 C 
ATOM     28  C   UNL     1     -32.542  18.475  -1.496  0.00  0.00    +0.178 C 
ATOM     29  C   UNL     1     -33.391  17.876  -0.382  0.00  0.00    +0.245 C 
BRANCH  26  30
ATOM     30  O   UNL     1     -35.388  20.560  -2.798  0.00  0.00    -0.378 OA
ATOM     31  H   UNL     1     -35.258  20.079  -3.631  0.00  0.00    +0.211 HD
ENDBRANCH  26  30
BRANCH  27  32
ATOM     32  O   UNL     1     -32.567  19.948  -3.382  0.00  0.00    -0.379 OA
ATOM     33  H   UNL     1     -33.089  20.625  -3.843  0.00  0.00    +0.211 HD
ENDBRANCH  27  32
BRANCH  28  34
ATOM     34  O   UNL     1     -31.829  17.424  -2.146  0.00  0.00    -0.379 OA
ATOM     35  H   UNL     1     -32.458  16.833  -2.591  0.00  0.00    +0.211 HD
ENDBRANCH  28  34
BRANCH  29  37
ATOM     36  O   UNL     1     -32.391  18.000   1.810  0.00  0.00    -0.247 OA
ATOM     37  C   UNL     1     -32.536  17.408   0.750  0.00  0.00    +0.344 C 
BRANCH  37  38
ATOM     38  O   UNL     1     -31.934  16.233   0.443  0.00  0.00    -0.478 OA
ATOM     39  H   UNL     1     -31.574  15.701   1.124  0.00  0.00    +0.295 HD
ENDBRANCH  37  38
ENDBRANCH  29  37
ENDBRANCH  23  25
ENDBRANCH  11  23
TORSDOF 8
ENDMDL
