MODEL 1
REMARK VINA RESULT:      -7.1      0.000      0.000
REMARK  Name = 5748412
REMARK  9 active torsions:
REMARK  status: ('A' for Active; 'I' for Inactive)
REMARK    1  A    between atoms: CA_5  and  N_17
REMARK    2  A    between atoms: CA_6  and  C_34
REMARK    3  A    between atoms: N_17  and  CA_20
REMARK    4  A    between atoms: CA_20  and  C_22
REMARK    5  A    between atoms: CA_20  and  C_25
REMARK    6  A    between atoms: C_22  and  O_23
REMARK    7  A    between atoms: C_25  and  C_26
REMARK    8  A    between atoms: C_26  and  C_27
REMARK    9  A    between atoms: C_34  and  O_35
REMARK                            x       y       z     vdW  Elec       q    Type
REMARK                         _______ _______ _______ _____ _____    ______ ____
ROOT
ATOM      1  SG  UNL     1     -36.487  21.845   0.489  0.00  0.00    -0.136 S 
ATOM      2  O   UNL     1     -37.505  26.789   2.218  0.00  0.00    -0.277 OA
ATOM      3  N   UNL     1     -36.536  24.688   1.951  0.00  0.00    -0.269 N 
ATOM      4  C   UNL     1     -35.352  23.816   2.164  0.00  0.00    +0.109 C 
ATOM      5  CA  UNL     1     -35.403  26.402   3.333  0.00  0.00    +0.022 C 
ATOM      6  CA  UNL     1     -37.786  24.121   1.418  0.00  0.00    +0.185 C 
ATOM      7  C   UNL     1     -35.320  23.266   3.586  0.00  0.00    -0.007 C 
ATOM      8  C   UNL     1     -35.481  25.648   4.667  0.00  0.00    +0.014 C 
ATOM      9  C   UNL     1     -36.575  26.009   2.438  0.00  0.00    +0.206 C 
ATOM     10  C   UNL     1     -35.077  22.865   0.981  0.00  0.00    +0.082 C 
ATOM     11  C   UNL     1     -35.364  24.132   4.706  0.00  0.00    -0.026 C 
ATOM     12  CB  UNL     1     -37.648  23.201   0.214  0.00  0.00    +0.089 C 
ATOM     13  C   UNL     1     -35.211  21.880   3.824  0.00  0.00    -0.003 C 
ATOM     14  C   UNL     1     -35.326  23.574   6.004  0.00  0.00    -0.005 C 
ATOM     15  C   UNL     1     -35.171  21.354   5.116  0.00  0.00    -0.000 C 
ATOM     16  C   UNL     1     -35.230  22.202   6.209  0.00  0.00    -0.000 C 
ENDROOT
BRANCH   5  17
ATOM     17  N   UNL     1     -35.506  27.843   3.597  0.00  0.00    +0.399 N 
ATOM     18  H1  UNL     1     -35.443  28.007   4.601  0.00  0.00    -0.083 HD
ATOM     19  H2  UNL     1     -36.401  28.180   3.242  0.00  0.00    -0.083 HD
BRANCH  17  20
ATOM     20  CA  UNL     1     -34.435  28.560   2.927  0.00  0.00    +0.041 C 
BRANCH  20  22
ATOM     21  OXT UNL     1     -34.440  29.340   0.620  0.00  0.00    -0.253 OA
ATOM     22  C   UNL     1     -35.033  29.188   1.681  0.00  0.00    +0.293 C 
BRANCH  22  23
ATOM     23  O   UNL     1     -36.331  29.549   1.853  0.00  0.00    -0.482 OA
ATOM     24  H   UNL     1     -36.582  30.047   2.606  0.00  0.00    +0.295 HD
ENDBRANCH  22  23
ENDBRANCH  20  22
BRANCH  20  25
ATOM     25  C   UNL     1     -33.315  27.574   2.566  0.00  0.00    -0.006 C 
BRANCH  25  26
ATOM     26  C   UNL     1     -31.913  28.007   3.024  0.00  0.00    +0.025 C 
BRANCH  26  27
ATOM     27  C   UNL     1     -31.859  28.583   4.417  0.00  0.00    -0.022 C 
ATOM     28  C   UNL     1     -31.518  29.915   4.590  0.00  0.00    -0.004 C 
ATOM     29  C   UNL     1     -32.153  27.770   5.501  0.00  0.00    -0.004 C 
ATOM     30  C   UNL     1     -31.469  30.447   5.878  0.00  0.00    -0.000 C 
ATOM     31  C   UNL     1     -32.103  28.301   6.789  0.00  0.00    -0.000 C 
ATOM     32  C   UNL     1     -31.761  29.641   6.978  0.00  0.00    -0.000 C 
ENDBRANCH  26  27
ENDBRANCH  25  26
ENDBRANCH  20  25
ENDBRANCH  17  20
ENDBRANCH   5  17
BRANCH   6  34
ATOM     33  OXT UNL     1     -38.806  22.292   2.636  0.00  0.00    -0.248 OA
ATOM     34  C   UNL     1     -38.502  23.475   2.572  0.00  0.00    +0.333 C 
BRANCH  34  35
ATOM     35  O   UNL     1     -38.769  24.385   3.540  0.00  0.00    -0.479 OA
ATOM     36  H   UNL     1     -38.190  25.110   3.675  0.00  0.00    +0.295 HD
ENDBRANCH  34  35
ENDBRANCH   6  34
TORSDOF 9
ENDMDL
MODEL 2
REMARK VINA RESULT:      -6.9      2.279      3.327
REMARK  Name = 5748412
REMARK  9 active torsions:
REMARK  status: ('A' for Active; 'I' for Inactive)
REMARK    1  A    between atoms: CA_5  and  N_17
REMARK    2  A    between atoms: CA_6  and  C_34
REMARK    3  A    between atoms: N_17  and  CA_20
REMARK    4  A    between atoms: CA_20  and  C_22
REMARK    5  A    between atoms: CA_20  and  C_25
REMARK    6  A    between atoms: C_22  and  O_23
REMARK    7  A    between atoms: C_25  and  C_26
REMARK    8  A    between atoms: C_26  and  C_27
REMARK    9  A    between atoms: C_34  and  O_35
REMARK                            x       y       z     vdW  Elec       q    Type
REMARK                         _______ _______ _______ _____ _____    ______ ____
ROOT
ATOM      1  SG  UNL     1     -36.461  22.734   0.625  0.00  0.00    -0.136 S 
ATOM      2  O   UNL     1     -36.033  27.552   2.877  0.00  0.00    -0.277 OA
ATOM      3  N   UNL     1     -35.716  25.298   2.383  0.00  0.00    -0.269 N 
ATOM      4  C   UNL     1     -34.847  24.098   2.499  0.00  0.00    +0.109 C 
ATOM      5  CA  UNL     1     -34.171  26.449   3.939  0.00  0.00    +0.022 C 
ATOM      6  CA  UNL     1     -37.061  25.183   1.797  0.00  0.00    +0.185 C 
ATOM      7  C   UNL     1     -35.019  23.419   3.853  0.00  0.00    -0.007 C 
ATOM      8  C   UNL     1     -34.506  25.618   5.185  0.00  0.00    +0.014 C 
ATOM      9  C   UNL     1     -35.380  26.514   3.010  0.00  0.00    +0.206 C 
ATOM     10  C   UNL     1     -34.829  23.236   1.220  0.00  0.00    +0.082 C 
ATOM     11  C   UNL     1     -34.840  24.139   5.060  0.00  0.00    -0.026 C 
ATOM     12  CB  UNL     1     -37.165  24.393   0.500  0.00  0.00    +0.089 C 
ATOM     13  C   UNL     1     -35.329  22.046   3.941  0.00  0.00    -0.003 C 
ATOM     14  C   UNL     1     -35.005  23.464   6.291  0.00  0.00    -0.005 C 
ATOM     15  C   UNL     1     -35.482  21.401   5.169  0.00  0.00    -0.000 C 
ATOM     16  C   UNL     1     -35.322  22.111   6.347  0.00  0.00    -0.000 C 
ENDROOT
BRANCH   5  17
ATOM     17  N   UNL     1     -33.854  27.821   4.356  0.00  0.00    +0.399 N 
ATOM     18  H1  UNL     1     -34.091  27.936   5.341  0.00  0.00    -0.083 HD
ATOM     19  H2  UNL     1     -34.395  28.473   3.786  0.00  0.00    -0.083 HD
BRANCH  17  20
ATOM     20  CA  UNL     1     -32.440  28.096   4.168  0.00  0.00    +0.041 C 
BRANCH  20  22
ATOM     21  OXT UNL     1     -32.455  28.250   6.599  0.00  0.00    -0.253 OA
ATOM     22  C   UNL     1     -31.821  28.196   5.551  0.00  0.00    +0.293 C 
BRANCH  22  23
ATOM     23  O   UNL     1     -30.464  28.194   5.515  0.00  0.00    -0.482 OA
ATOM     24  H   UNL     1     -29.978  27.781   6.200  0.00  0.00    +0.295 HD
ENDBRANCH  22  23
ENDBRANCH  20  22
BRANCH  20  25
ATOM     25  C   UNL     1     -32.279  29.411   3.393  0.00  0.00    -0.006 C 
BRANCH  25  26
ATOM     26  C   UNL     1     -33.008  30.612   4.018  0.00  0.00    +0.025 C 
BRANCH  26  27
ATOM     27  C   UNL     1     -33.980  31.304   3.094  0.00  0.00    -0.022 C 
ATOM     28  C   UNL     1     -33.536  32.348   2.299  0.00  0.00    -0.004 C 
ATOM     29  C   UNL     1     -35.301  30.883   3.057  0.00  0.00    -0.004 C 
ATOM     30  C   UNL     1     -34.435  32.987   1.444  0.00  0.00    -0.000 C 
ATOM     31  C   UNL     1     -36.199  31.522   2.204  0.00  0.00    -0.000 C 
ATOM     32  C   UNL     1     -35.766  32.575   1.397  0.00  0.00    -0.000 C 
ENDBRANCH  26  27
ENDBRANCH  25  26
ENDBRANCH  20  25
ENDBRANCH  17  20
ENDBRANCH   5  17
BRANCH   6  34
ATOM     33  OXT UNL     1     -38.360  23.506   2.967  0.00  0.00    -0.248 OA
ATOM     34  C   UNL     1     -37.969  24.661   2.876  0.00  0.00    +0.333 C 
BRANCH  34  35
ATOM     35  O   UNL     1     -38.300  25.649   3.742  0.00  0.00    -0.479 OA
ATOM     36  H   UNL     1     -38.907  25.482   4.436  0.00  0.00    +0.295 HD
ENDBRANCH  34  35
ENDBRANCH   6  34
TORSDOF 9
ENDMDL
MODEL 3
REMARK VINA RESULT:      -6.9      3.688      7.795
REMARK  Name = 5748412
REMARK  9 active torsions:
REMARK  status: ('A' for Active; 'I' for Inactive)
REMARK    1  A    between atoms: CA_5  and  N_17
REMARK    2  A    between atoms: CA_6  and  C_34
REMARK    3  A    between atoms: N_17  and  CA_20
REMARK    4  A    between atoms: CA_20  and  C_22
REMARK    5  A    between atoms: CA_20  and  C_25
REMARK    6  A    between atoms: C_22  and  O_23
REMARK    7  A    between atoms: C_25  and  C_26
REMARK    8  A    between atoms: C_26  and  C_27
REMARK    9  A    between atoms: C_34  and  O_35
REMARK                            x       y       z     vdW  Elec       q    Type
REMARK                         _______ _______ _______ _____ _____    ______ ____
ROOT
ATOM      1  SG  UNL     1     -34.544  26.432   3.142  0.00  0.00    -0.136 S 
ATOM      2  O   UNL     1     -34.986  21.146   3.713  0.00  0.00    -0.277 OA
ATOM      3  N   UNL     1     -35.341  23.339   3.014  0.00  0.00    -0.269 N 
ATOM      4  C   UNL     1     -35.938  24.254   2.006  0.00  0.00    +0.109 C 
ATOM      5  CA  UNL     1     -36.508  21.476   1.873  0.00  0.00    +0.022 C 
ATOM      6  CA  UNL     1     -34.730  23.883   4.238  0.00  0.00    +0.185 C 
ATOM      7  C   UNL     1     -37.427  24.461   2.262  0.00  0.00    -0.007 C 
ATOM      8  C   UNL     1     -37.937  21.890   2.252  0.00  0.00    +0.014 C 
ATOM      9  C   UNL     1     -35.525  21.945   2.943  0.00  0.00    +0.206 C 
ATOM     10  C   UNL     1     -35.050  25.475   1.693  0.00  0.00    +0.082 C 
ATOM     11  C   UNL     1     -38.314  23.361   2.352  0.00  0.00    -0.026 C 
ATOM     12  CB  UNL     1     -33.789  25.066   4.051  0.00  0.00    +0.089 C 
ATOM     13  C   UNL     1     -37.968  25.758   2.382  0.00  0.00    -0.003 C 
ATOM     14  C   UNL     1     -39.687  23.605   2.584  0.00  0.00    -0.005 C 
ATOM     15  C   UNL     1     -39.328  25.974   2.607  0.00  0.00    -0.000 C 
ATOM     16  C   UNL     1     -40.190  24.895   2.710  0.00  0.00    -0.000 C 
ENDROOT
BRANCH   5  17
ATOM     17  N   UNL     1     -36.440  20.010   1.814  0.00  0.00    +0.399 N 
ATOM     18  H1  UNL     1     -37.314  19.619   2.165  0.00  0.00    -0.083 HD
ATOM     19  H2  UNL     1     -35.658  19.693   2.388  0.00  0.00    -0.083 HD
BRANCH  17  20
ATOM     20  CA  UNL     1     -36.231  19.566   0.447  0.00  0.00    +0.041 C 
BRANCH  20  22
ATOM     21  OXT UNL     1     -38.410  19.158  -0.560  0.00  0.00    -0.253 OA
ATOM     22  C   UNL     1     -37.442  18.736   0.062  0.00  0.00    +0.293 C 
BRANCH  22  23
ATOM     23  O   UNL     1     -37.334  17.442   0.460  0.00  0.00    -0.482 OA
ATOM     24  H   UNL     1     -37.733  16.762  -0.046  0.00  0.00    +0.295 HD
ENDBRANCH  22  23
ENDBRANCH  20  22
BRANCH  20  25
ATOM     25  C   UNL     1     -34.944  18.732   0.378  0.00  0.00    -0.006 C 
BRANCH  25  26
ATOM     26  C   UNL     1     -33.858  19.152   1.382  0.00  0.00    +0.025 C 
BRANCH  26  27
ATOM     27  C   UNL     1     -32.457  19.163   0.820  0.00  0.00    -0.022 C 
ATOM     28  C   UNL     1     -31.616  18.092   1.073  0.00  0.00    -0.004 C 
ATOM     29  C   UNL     1     -32.037  20.243   0.060  0.00  0.00    -0.004 C 
ATOM     30  C   UNL     1     -30.321  18.101   0.554  0.00  0.00    -0.000 C 
ATOM     31  C   UNL     1     -30.743  20.253  -0.459  0.00  0.00    -0.000 C 
ATOM     32  C   UNL     1     -29.884  19.181  -0.212  0.00  0.00    -0.000 C 
ENDBRANCH  26  27
ENDBRANCH  25  26
ENDBRANCH  20  25
ENDBRANCH  17  20
ENDBRANCH   5  17
BRANCH   6  34
ATOM     33  OXT UNL     1     -36.326  25.276   5.412  0.00  0.00    -0.248 OA
ATOM     34  C   UNL     1     -35.850  24.171   5.199  0.00  0.00    +0.333 C 
BRANCH  34  35
ATOM     35  O   UNL     1     -36.265  23.031   5.804  0.00  0.00    -0.479 OA
ATOM     36  H   UNL     1     -36.549  22.303   5.287  0.00  0.00    +0.295 HD
ENDBRANCH  34  35
ENDBRANCH   6  34
TORSDOF 9
ENDMDL
MODEL 4
REMARK VINA RESULT:      -6.8      2.192      3.577
REMARK  Name = 5748412
REMARK  9 active torsions:
REMARK  status: ('A' for Active; 'I' for Inactive)
REMARK    1  A    between atoms: CA_5  and  N_17
REMARK    2  A    between atoms: CA_6  and  C_34
REMARK    3  A    between atoms: N_17  and  CA_20
REMARK    4  A    between atoms: CA_20  and  C_22
REMARK    5  A    between atoms: CA_20  and  C_25
REMARK    6  A    between atoms: C_22  and  O_23
REMARK    7  A    between atoms: C_25  and  C_26
REMARK    8  A    between atoms: C_26  and  C_27
REMARK    9  A    between atoms: C_34  and  O_35
REMARK                            x       y       z     vdW  Elec       q    Type
REMARK                         _______ _______ _______ _____ _____    ______ ____
ROOT
ATOM      1  SG  UNL     1     -36.601  22.063   0.679  0.00  0.00    -0.136 S 
ATOM      2  O   UNL     1     -37.008  27.086   2.432  0.00  0.00    -0.277 OA
ATOM      3  N   UNL     1     -36.297  24.885   2.148  0.00  0.00    -0.269 N 
ATOM      4  C   UNL     1     -35.223  23.878   2.347  0.00  0.00    +0.109 C 
ATOM      5  CA  UNL     1     -34.956  26.448   3.524  0.00  0.00    +0.022 C 
ATOM      6  CA  UNL     1     -37.612  24.473   1.628  0.00  0.00    +0.185 C 
ATOM      7  C   UNL     1     -35.242  23.323   3.767  0.00  0.00    -0.007 C 
ATOM      8  C   UNL     1     -35.110  25.703   4.857  0.00  0.00    +0.014 C 
ATOM      9  C   UNL     1     -36.175  26.199   2.640  0.00  0.00    +0.206 C 
ATOM     10  C   UNL     1     -35.075  22.906   1.160  0.00  0.00    +0.082 C 
ATOM     11  C   UNL     1     -35.173  24.183   4.890  0.00  0.00    -0.026 C 
ATOM     12  CB  UNL     1     -37.596  23.548   0.419  0.00  0.00    +0.089 C 
ATOM     13  C   UNL     1     -35.297  21.933   4.001  0.00  0.00    -0.003 C 
ATOM     14  C   UNL     1     -35.188  23.620   6.187  0.00  0.00    -0.005 C 
ATOM     15  C   UNL     1     -35.306  21.401   5.291  0.00  0.00    -0.000 C 
ATOM     16  C   UNL     1     -35.254  22.245   6.387  0.00  0.00    -0.000 C 
ENDROOT
BRANCH   5  17
ATOM     17  N   UNL     1     -34.885  27.890   3.792  0.00  0.00    +0.399 N 
ATOM     18  H1  UNL     1     -34.887  28.045   4.800  0.00  0.00    -0.083 HD
ATOM     19  H2  UNL     1     -35.692  28.345   3.365  0.00  0.00    -0.083 HD
BRANCH  17  20
ATOM     20  CA  UNL     1     -33.672  28.453   3.225  0.00  0.00    +0.041 C 
BRANCH  20  22
ATOM     21  OXT UNL     1     -31.613  27.463   4.068  0.00  0.00    -0.253 OA
ATOM     22  C   UNL     1     -32.561  28.221   4.234  0.00  0.00    +0.293 C 
BRANCH  22  23
ATOM     23  O   UNL     1     -32.711  28.973   5.354  0.00  0.00    -0.482 OA
ATOM     24  H   UNL     1     -33.292  29.708   5.350  0.00  0.00    +0.295 HD
ENDBRANCH  22  23
ENDBRANCH  20  22
BRANCH  20  25
ATOM     25  C   UNL     1     -33.882  29.952   2.970  0.00  0.00    -0.006 C 
BRANCH  25  26
ATOM     26  C   UNL     1     -35.353  30.400   2.982  0.00  0.00    +0.025 C 
BRANCH  26  27
ATOM     27  C   UNL     1     -35.632  31.655   2.193  0.00  0.00    -0.022 C 
ATOM     28  C   UNL     1     -36.933  31.946   1.816  0.00  0.00    -0.004 C 
ATOM     29  C   UNL     1     -34.582  32.496   1.858  0.00  0.00    -0.004 C 
ATOM     30  C   UNL     1     -37.191  33.107   1.087  0.00  0.00    -0.000 C 
ATOM     31  C   UNL     1     -34.839  33.656   1.128  0.00  0.00    -0.000 C 
ATOM     32  C   UNL     1     -36.144  33.961   0.742  0.00  0.00    -0.000 C 
ENDBRANCH  26  27
ENDBRANCH  25  26
ENDBRANCH  20  25
ENDBRANCH  17  20
ENDBRANCH   5  17
BRANCH   6  34
ATOM     33  OXT UNL     1     -38.669  22.732   2.937  0.00  0.00    -0.248 OA
ATOM     34  C   UNL     1     -38.388  23.911   2.787  0.00  0.00    +0.333 C 
BRANCH  34  35
ATOM     35  O   UNL     1     -38.737  24.896   3.650  0.00  0.00    -0.479 OA
ATOM     36  H   UNL     1     -38.772  24.722   4.570  0.00  0.00    +0.295 HD
ENDBRANCH  34  35
ENDBRANCH   6  34
TORSDOF 9
ENDMDL
MODEL 5
REMARK VINA RESULT:      -6.6      3.748      7.844
REMARK  Name = 5748412
REMARK  9 active torsions:
REMARK  status: ('A' for Active; 'I' for Inactive)
REMARK    1  A    between atoms: CA_5  and  N_17
REMARK    2  A    between atoms: CA_6  and  C_34
REMARK    3  A    between atoms: N_17  and  CA_20
REMARK    4  A    between atoms: CA_20  and  C_22
REMARK    5  A    between atoms: CA_20  and  C_25
REMARK    6  A    between atoms: C_22  and  O_23
REMARK    7  A    between atoms: C_25  and  C_26
REMARK    8  A    between atoms: C_26  and  C_27
REMARK    9  A    between atoms: C_34  and  O_35
REMARK                            x       y       z     vdW  Elec       q    Type
REMARK                         _______ _______ _______ _____ _____    ______ ____
ROOT
ATOM      1  SG  UNL     1     -34.468  25.964   3.504  0.00  0.00    -0.136 S 
ATOM      2  O   UNL     1     -35.209  20.681   3.560  0.00  0.00    -0.277 OA
ATOM      3  N   UNL     1     -35.430  22.947   3.068  0.00  0.00    -0.269 N 
ATOM      4  C   UNL     1     -35.954  23.985   2.143  0.00  0.00    +0.109 C 
ATOM      5  CA  UNL     1     -36.672  21.269   1.736  0.00  0.00    +0.022 C 
ATOM      6  CA  UNL     1     -34.816  23.338   4.348  0.00  0.00    +0.185 C 
ATOM      7  C   UNL     1     -37.435  24.250   2.393  0.00  0.00    -0.007 C 
ATOM      8  C   UNL     1     -38.083  21.724   2.130  0.00  0.00    +0.014 C 
ATOM      9  C   UNL     1     -35.687  21.578   2.861  0.00  0.00    +0.206 C 
ATOM     10  C   UNL     1     -34.994  25.178   1.963  0.00  0.00    +0.082 C 
ATOM     11  C   UNL     1     -38.382  23.198   2.363  0.00  0.00    -0.026 C 
ATOM     12  CB  UNL     1     -33.809  24.478   4.290  0.00  0.00    +0.089 C 
ATOM     13  C   UNL     1     -37.906  25.558   2.628  0.00  0.00    -0.003 C 
ATOM     14  C   UNL     1     -39.744  23.495   2.596  0.00  0.00    -0.005 C 
ATOM     15  C   UNL     1     -39.257  25.828   2.850  0.00  0.00    -0.000 C 
ATOM     16  C   UNL     1     -40.179  24.794   2.836  0.00  0.00    -0.000 C 
ENDROOT
BRANCH   5  17
ATOM     17  N   UNL     1     -36.682  19.813   1.539  0.00  0.00    +0.399 N 
ATOM     18  H1  UNL     1     -37.366  19.393   2.168  0.00  0.00    -0.083 HD
ATOM     19  H2  UNL     1     -35.750  19.447   1.737  0.00  0.00    -0.083 HD
BRANCH  17  20
ATOM     20  CA  UNL     1     -37.031  19.489   0.167  0.00  0.00    +0.041 C 
BRANCH  20  22
ATOM     21  OXT UNL     1     -35.645  17.717  -0.766  0.00  0.00    -0.253 OA
ATOM     22  C   UNL     1     -36.598  18.054  -0.073  0.00  0.00    +0.293 C 
BRANCH  22  23
ATOM     23  O   UNL     1     -37.373  17.159   0.592  0.00  0.00    -0.482 OA
ATOM     24  H   UNL     1     -37.301  16.245   0.402  0.00  0.00    +0.295 HD
ENDBRANCH  22  23
ENDBRANCH  20  22
BRANCH  20  25
ATOM     25  C   UNL     1     -36.304  20.452  -0.782  0.00  0.00    -0.006 C 
BRANCH  25  26
ATOM     26  C   UNL     1     -37.180  21.015  -1.913  0.00  0.00    +0.025 C 
BRANCH  26  27
ATOM     27  C   UNL     1     -37.904  22.293  -1.567  0.00  0.00    -0.022 C 
ATOM     28  C   UNL     1     -39.277  22.268  -1.382  0.00  0.00    -0.004 C 
ATOM     29  C   UNL     1     -37.183  23.471  -1.439  0.00  0.00    -0.004 C 
ATOM     30  C   UNL     1     -39.946  23.449  -1.062  0.00  0.00    -0.000 C 
ATOM     31  C   UNL     1     -37.851  24.652  -1.119  0.00  0.00    -0.000 C 
ATOM     32  C   UNL     1     -39.234  24.641  -0.931  0.00  0.00    -0.000 C 
ENDBRANCH  26  27
ENDBRANCH  25  26
ENDBRANCH  20  25
ENDBRANCH  17  20
ENDBRANCH   5  17
BRANCH   6  34
ATOM     33  OXT UNL     1     -36.475  24.679   5.495  0.00  0.00    -0.248 OA
ATOM     34  C   UNL     1     -35.939  23.595   5.314  0.00  0.00    +0.333 C 
BRANCH  34  35
ATOM     35  O   UNL     1     -36.280  22.456   5.965  0.00  0.00    -0.479 OA
ATOM     36  H   UNL     1     -36.777  22.500   6.759  0.00  0.00    +0.295 HD
ENDBRANCH  34  35
ENDBRANCH   6  34
TORSDOF 9
ENDMDL
MODEL 6
REMARK VINA RESULT:      -6.6      3.435      5.675
REMARK  Name = 5748412
REMARK  9 active torsions:
REMARK  status: ('A' for Active; 'I' for Inactive)
REMARK    1  A    between atoms: CA_5  and  N_17
REMARK    2  A    between atoms: CA_6  and  C_34
REMARK    3  A    between atoms: N_17  and  CA_20
REMARK    4  A    between atoms: CA_20  and  C_22
REMARK    5  A    between atoms: CA_20  and  C_25
REMARK    6  A    between atoms: C_22  and  O_23
REMARK    7  A    between atoms: C_25  and  C_26
REMARK    8  A    between atoms: C_26  and  C_27
REMARK    9  A    between atoms: C_34  and  O_35
REMARK                            x       y       z     vdW  Elec       q    Type
REMARK                         _______ _______ _______ _____ _____    ______ ____
ROOT
ATOM      1  SG  UNL     1     -36.340  20.379  -3.142  0.00  0.00    -0.136 S 
ATOM      2  O   UNL     1     -38.171  20.772   1.854  0.00  0.00    -0.277 OA
ATOM      3  N   UNL     1     -36.747  20.708   0.012  0.00  0.00    -0.269 N 
ATOM      4  C   UNL     1     -35.414  21.037  -0.556  0.00  0.00    +0.109 C 
ATOM      5  CA  UNL     1     -35.879  21.424   2.218  0.00  0.00    +0.022 C 
ATOM      6  CA  UNL     1     -37.705  19.905  -0.766  0.00  0.00    +0.185 C 
ATOM      7  C   UNL     1     -34.370  20.002  -0.150  0.00  0.00    -0.007 C 
ATOM      8  C   UNL     1     -34.878  20.277   2.406  0.00  0.00    +0.014 C 
ATOM      9  C   UNL     1     -37.055  20.960   1.363  0.00  0.00    +0.206 C 
ATOM     10  C   UNL     1     -35.478  21.508  -2.023  0.00  0.00    +0.082 C 
ATOM     11  C   UNL     1     -34.139  19.691   1.212  0.00  0.00    -0.026 C 
ATOM     12  CB  UNL     1     -37.893  20.307  -2.222  0.00  0.00    +0.089 C 
ATOM     13  C   UNL     1     -33.581  19.351  -1.121  0.00  0.00    -0.003 C 
ATOM     14  C   UNL     1     -33.157  18.729   1.538  0.00  0.00    -0.005 C 
ATOM     15  C   UNL     1     -32.614  18.407  -0.774  0.00  0.00    -0.000 C 
ATOM     16  C   UNL     1     -32.401  18.093   0.558  0.00  0.00    -0.000 C 
ENDROOT
BRANCH   5  17
ATOM     17  N   UNL     1     -36.407  21.813   3.532  0.00  0.00    +0.399 N 
ATOM     18  H1  UNL     1     -36.635  20.973   4.064  0.00  0.00    -0.083 HD
ATOM     19  H2  UNL     1     -37.245  22.380   3.396  0.00  0.00    -0.083 HD
BRANCH  17  20
ATOM     20  CA  UNL     1     -35.425  22.592   4.265  0.00  0.00    +0.041 C 
BRANCH  20  22
ATOM     21  OXT UNL     1     -35.357  22.662   6.698  0.00  0.00    -0.253 OA
ATOM     22  C   UNL     1     -35.348  22.006   5.663  0.00  0.00    +0.293 C 
BRANCH  22  23
ATOM     23  O   UNL     1     -35.294  20.649   5.655  0.00  0.00    -0.482 OA
ATOM     24  H   UNL     1     -34.811  20.196   6.317  0.00  0.00    +0.295 HD
ENDBRANCH  22  23
ENDBRANCH  20  22
BRANCH  20  25
ATOM     25  C   UNL     1     -35.872  24.060   4.304  0.00  0.00    -0.006 C 
BRANCH  25  26
ATOM     26  C   UNL     1     -34.978  25.020   3.501  0.00  0.00    +0.025 C 
BRANCH  26  27
ATOM     27  C   UNL     1     -34.126  25.935   4.344  0.00  0.00    -0.022 C 
ATOM     28  C   UNL     1     -34.137  25.796   5.723  0.00  0.00    -0.004 C 
ATOM     29  C   UNL     1     -33.346  26.900   3.726  0.00  0.00    -0.004 C 
ATOM     30  C   UNL     1     -33.348  26.642   6.503  0.00  0.00    -0.000 C 
ATOM     31  C   UNL     1     -32.558  27.747   4.505  0.00  0.00    -0.000 C 
ATOM     32  C   UNL     1     -32.559  27.618   5.894  0.00  0.00    -0.000 C 
ENDBRANCH  26  27
ENDBRANCH  25  26
ENDBRANCH  20  25
ENDBRANCH  17  20
ENDBRANCH   5  17
BRANCH   6  34
ATOM     33  OXT UNL     1     -37.046  17.699  -1.519  0.00  0.00    -0.248 OA
ATOM     34  C   UNL     1     -37.308  18.464  -0.602  0.00  0.00    +0.333 C 
BRANCH  34  35
ATOM     35  O   UNL     1     -37.278  18.123   0.709  0.00  0.00    -0.479 OA
ATOM     36  H   UNL     1     -36.858  18.685   1.331  0.00  0.00    +0.295 HD
ENDBRANCH  34  35
ENDBRANCH   6  34
TORSDOF 9
ENDMDL
MODEL 7
REMARK VINA RESULT:      -6.5      3.326      7.483
REMARK  Name = 5748412
REMARK  9 active torsions:
REMARK  status: ('A' for Active; 'I' for Inactive)
REMARK    1  A    between atoms: CA_5  and  N_17
REMARK    2  A    between atoms: CA_6  and  C_34
REMARK    3  A    between atoms: N_17  and  CA_20
REMARK    4  A    between atoms: CA_20  and  C_22
REMARK    5  A    between atoms: CA_20  and  C_25
REMARK    6  A    between atoms: C_22  and  O_23
REMARK    7  A    between atoms: C_25  and  C_26
REMARK    8  A    between atoms: C_26  and  C_27
REMARK    9  A    between atoms: C_34  and  O_35
REMARK                            x       y       z     vdW  Elec       q    Type
REMARK                         _______ _______ _______ _____ _____    ______ ____
ROOT
ATOM      1  SG  UNL     1     -34.547  26.161   5.012  0.00  0.00    -0.136 S 
ATOM      2  O   UNL     1     -38.364  22.893   3.221  0.00  0.00    -0.277 OA
ATOM      3  N   UNL     1     -36.298  23.912   3.566  0.00  0.00    -0.269 N 
ATOM      4  C   UNL     1     -34.820  23.820   3.457  0.00  0.00    +0.109 C 
ATOM      5  CA  UNL     1     -36.429  21.788   2.300  0.00  0.00    +0.022 C 
ATOM      6  CA  UNL     1     -36.933  25.175   3.980  0.00  0.00    +0.185 C 
ATOM      7  C   UNL     1     -34.349  24.136   2.041  0.00  0.00    -0.007 C 
ATOM      8  C   UNL     1     -35.919  22.337   0.960  0.00  0.00    +0.014 C 
ATOM      9  C   UNL     1     -37.138  22.890   3.082  0.00  0.00    +0.206 C 
ATOM     10  C   UNL     1     -34.081  24.451   4.655  0.00  0.00    +0.082 C 
ATOM     11  C   UNL     1     -34.859  23.428   0.925  0.00  0.00    -0.026 C 
ATOM     12  CB  UNL     1     -36.321  25.871   5.187  0.00  0.00    +0.089 C 
ATOM     13  C   UNL     1     -33.366  25.120   1.807  0.00  0.00    -0.003 C 
ATOM     14  C   UNL     1     -34.388  23.754  -0.367  0.00  0.00    -0.005 C 
ATOM     15  C   UNL     1     -32.913  25.420   0.522  0.00  0.00    -0.000 C 
ATOM     16  C   UNL     1     -33.426  24.738  -0.568  0.00  0.00    -0.000 C 
ENDROOT
BRANCH   5  17
ATOM     17  N   UNL     1     -37.409  20.727   2.034  0.00  0.00    +0.399 N 
ATOM     18  H1  UNL     1     -38.296  20.971   2.476  0.00  0.00    -0.083 HD
ATOM     19  H2  UNL     1     -37.057  19.849   2.416  0.00  0.00    -0.083 HD
BRANCH  17  20
ATOM     20  CA  UNL     1     -37.614  20.570   0.605  0.00  0.00    +0.041 C 
BRANCH  20  22
ATOM     21  OXT UNL     1     -39.613  20.794  -0.767  0.00  0.00    -0.253 OA
ATOM     22  C   UNL     1     -39.094  20.786   0.343  0.00  0.00    +0.293 C 
BRANCH  22  23
ATOM     23  O   UNL     1     -39.806  20.946   1.487  0.00  0.00    -0.482 OA
ATOM     24  H   UNL     1     -39.887  21.795   1.874  0.00  0.00    +0.295 HD
ENDBRANCH  22  23
ENDBRANCH  20  22
BRANCH  20  25
ATOM     25  C   UNL     1     -37.178  19.159   0.184  0.00  0.00    -0.006 C 
BRANCH  25  26
ATOM     26  C   UNL     1     -36.124  19.126  -0.934  0.00  0.00    +0.025 C 
BRANCH  26  27
ATOM     27  C   UNL     1     -34.718  19.431  -0.479  0.00  0.00    -0.022 C 
ATOM     28  C   UNL     1     -34.260  18.901   0.716  0.00  0.00    -0.004 C 
ATOM     29  C   UNL     1     -33.909  20.238  -1.265  0.00  0.00    -0.004 C 
ATOM     30  C   UNL     1     -32.960  19.184   1.137  0.00  0.00    -0.000 C 
ATOM     31  C   UNL     1     -32.609  20.521  -0.844  0.00  0.00    -0.000 C 
ATOM     32  C   UNL     1     -32.135  19.994   0.357  0.00  0.00    -0.000 C 
ENDBRANCH  26  27
ENDBRANCH  25  26
ENDBRANCH  20  25
ENDBRANCH  17  20
ENDBRANCH   5  17
BRANCH   6  34
ATOM     33  OXT UNL     1     -36.250  27.003   2.544  0.00  0.00    -0.248 OA
ATOM     34  C   UNL     1     -36.992  26.057   2.763  0.00  0.00    +0.333 C 
BRANCH  34  35
ATOM     35  O   UNL     1     -37.988  25.660   1.933  0.00  0.00    -0.479 OA
ATOM     36  H   UNL     1     -38.798  26.130   1.914  0.00  0.00    +0.295 HD
ENDBRANCH  34  35
ENDBRANCH   6  34
TORSDOF 9
ENDMDL
MODEL 8
REMARK VINA RESULT:      -6.5      3.582      6.341
REMARK  Name = 5748412
REMARK  9 active torsions:
REMARK  status: ('A' for Active; 'I' for Inactive)
REMARK    1  A    between atoms: CA_5  and  N_17
REMARK    2  A    between atoms: CA_6  and  C_34
REMARK    3  A    between atoms: N_17  and  CA_20
REMARK    4  A    between atoms: CA_20  and  C_22
REMARK    5  A    between atoms: CA_20  and  C_25
REMARK    6  A    between atoms: C_22  and  O_23
REMARK    7  A    between atoms: C_25  and  C_26
REMARK    8  A    between atoms: C_26  and  C_27
REMARK    9  A    between atoms: C_34  and  O_35
REMARK                            x       y       z     vdW  Elec       q    Type
REMARK                         _______ _______ _______ _____ _____    ______ ____
ROOT
ATOM      1  SG  UNL     1     -38.255  26.123  -2.292  0.00  0.00    -0.136 S 
ATOM      2  O   UNL     1     -38.862  26.538   2.993  0.00  0.00    -0.277 OA
ATOM      3  N   UNL     1     -38.382  25.697   0.874  0.00  0.00    -0.269 N 
ATOM      4  C   UNL     1     -37.685  24.668   0.061  0.00  0.00    +0.109 C 
ATOM      5  CA  UNL     1     -37.727  24.413   2.888  0.00  0.00    +0.022 C 
ATOM      6  CA  UNL     1     -39.299  26.653   0.230  0.00  0.00    +0.185 C 
ATOM      7  C   UNL     1     -38.479  23.367   0.016  0.00  0.00    -0.007 C 
ATOM      8  C   UNL     1     -38.617  23.191   2.628  0.00  0.00    +0.014 C 
ATOM      9  C   UNL     1     -38.361  25.662   2.282  0.00  0.00    +0.206 C 
ATOM     10  C   UNL     1     -37.083  25.229  -1.244  0.00  0.00    +0.082 C 
ATOM     11  C   UNL     1     -38.875  22.710   1.207  0.00  0.00    -0.026 C 
ATOM     12  CB  UNL     1     -38.795  27.313  -1.045  0.00  0.00    +0.089 C 
ATOM     13  C   UNL     1     -38.814  22.764  -1.214  0.00  0.00    -0.003 C 
ATOM     14  C   UNL     1     -39.606  21.504   1.114  0.00  0.00    -0.005 C 
ATOM     15  C   UNL     1     -39.532  21.570  -1.280  0.00  0.00    -0.000 C 
ATOM     16  C   UNL     1     -39.932  20.939  -0.115  0.00  0.00    -0.000 C 
ENDROOT
BRANCH   5  17
ATOM     17  N   UNL     1     -37.623  24.623   4.337  0.00  0.00    +0.399 N 
ATOM     18  H1  UNL     1     -38.267  23.994   4.816  0.00  0.00    -0.083 HD
ATOM     19  H2  UNL     1     -37.858  25.594   4.548  0.00  0.00    -0.083 HD
BRANCH  17  20
ATOM     20  CA  UNL     1     -36.269  24.358   4.793  0.00  0.00    +0.041 C 
BRANCH  20  22
ATOM     21  OXT UNL     1     -34.560  25.842   5.692  0.00  0.00    -0.253 OA
ATOM     22  C   UNL     1     -35.716  25.669   5.323  0.00  0.00    +0.293 C 
BRANCH  22  23
ATOM     23  O   UNL     1     -36.642  26.662   5.322  0.00  0.00    -0.482 OA
ATOM     24  H   UNL     1     -37.291  26.697   5.996  0.00  0.00    +0.295 HD
ENDBRANCH  22  23
ENDBRANCH  20  22
BRANCH  20  25
ATOM     25  C   UNL     1     -35.432  23.840   3.616  0.00  0.00    -0.006 C 
BRANCH  25  26
ATOM     26  C   UNL     1     -35.193  22.321   3.624  0.00  0.00    +0.025 C 
BRANCH  26  27
ATOM     27  C   UNL     1     -35.449  21.640   2.302  0.00  0.00    -0.022 C 
ATOM     28  C   UNL     1     -36.093  20.413   2.282  0.00  0.00    -0.004 C 
ATOM     29  C   UNL     1     -35.036  22.254   1.129  0.00  0.00    -0.004 C 
ATOM     30  C   UNL     1     -36.330  19.784   1.060  0.00  0.00    -0.000 C 
ATOM     31  C   UNL     1     -35.272  21.625  -0.093  0.00  0.00    -0.000 C 
ATOM     32  C   UNL     1     -35.919  20.389  -0.127  0.00  0.00    -0.000 C 
ENDBRANCH  26  27
ENDBRANCH  25  26
ENDBRANCH  20  25
ENDBRANCH  17  20
ENDBRANCH   5  17
BRANCH   6  34
ATOM     33  OXT UNL     1     -41.029  25.505  -1.016  0.00  0.00    -0.248 OA
ATOM     34  C   UNL     1     -40.613  25.945   0.045  0.00  0.00    +0.333 C 
BRANCH  34  35
ATOM     35  O   UNL     1     -41.280  25.861   1.222  0.00  0.00    -0.479 OA
ATOM     36  H   UNL     1     -42.024  25.297   1.300  0.00  0.00    +0.295 HD
ENDBRANCH  34  35
ENDBRANCH   6  34
TORSDOF 9
ENDMDL
MODEL 9
REMARK VINA RESULT:      -6.4      4.391      7.115
REMARK  Name = 5748412
REMARK  9 active torsions:
REMARK  status: ('A' for Active; 'I' for Inactive)
REMARK    1  A    between atoms: CA_5  and  N_17
REMARK    2  A    between atoms: CA_6  and  C_34
REMARK    3  A    between atoms: N_17  and  CA_20
REMARK    4  A    between atoms: CA_20  and  C_22
REMARK    5  A    between atoms: CA_20  and  C_25
REMARK    6  A    between atoms: C_22  and  O_23
REMARK    7  A    between atoms: C_25  and  C_26
REMARK    8  A    between atoms: C_26  and  C_27
REMARK    9  A    between atoms: C_34  and  O_35
REMARK                            x       y       z     vdW  Elec       q    Type
REMARK                         _______ _______ _______ _____ _____    ______ ____
ROOT
ATOM      1  SG  UNL     1     -31.729  22.472  -2.766  0.00  0.00    -0.136 S 
ATOM      2  O   UNL     1     -36.144  20.033  -1.026  0.00  0.00    -0.277 OA
ATOM      3  N   UNL     1     -33.988  20.908  -1.132  0.00  0.00    -0.269 N 
ATOM      4  C   UNL     1     -32.775  21.349  -0.395  0.00  0.00    +0.109 C 
ATOM      5  CA  UNL     1     -34.873  20.063   1.022  0.00  0.00    +0.022 C 
ATOM      6  CA  UNL     1     -33.978  20.845  -2.603  0.00  0.00    +0.185 C 
ATOM      7  C   UNL     1     -31.900  20.161  -0.009  0.00  0.00    -0.007 C 
ATOM      8  C   UNL     1     -33.866  18.920   1.202  0.00  0.00    +0.014 C 
ATOM      9  C   UNL     1     -35.091  20.341  -0.463  0.00  0.00    +0.206 C 
ATOM     10  C   UNL     1     -32.117  22.603  -1.005  0.00  0.00    +0.082 C 
ATOM     11  C   UNL     1     -32.426  19.076   0.735  0.00  0.00    -0.026 C 
ATOM     12  CB  UNL     1     -33.395  22.053  -3.323  0.00  0.00    +0.089 C 
ATOM     13  C   UNL     1     -30.534  20.126  -0.354  0.00  0.00    -0.003 C 
ATOM     14  C   UNL     1     -31.574  18.000   1.073  0.00  0.00    -0.005 C 
ATOM     15  C   UNL     1     -29.711  19.054  -0.004  0.00  0.00    -0.000 C 
ATOM     16  C   UNL     1     -30.232  17.988   0.709  0.00  0.00    -0.000 C 
ENDROOT
BRANCH   5  17
ATOM     17  N   UNL     1     -36.162  19.654   1.593  0.00  0.00    +0.399 N 
ATOM     18  H1  UNL     1     -36.054  18.751   2.055  0.00  0.00    -0.083 HD
ATOM     19  H2  UNL     1     -36.849  19.585   0.842  0.00  0.00    -0.083 HD
BRANCH  17  20
ATOM     20  CA  UNL     1     -36.622  20.634   2.562  0.00  0.00    +0.041 C 
BRANCH  20  22
ATOM     21  OXT UNL     1     -37.550  22.347   1.102  0.00  0.00    -0.253 OA
ATOM     22  C   UNL     1     -37.729  21.431   1.895  0.00  0.00    +0.293 C 
BRANCH  22  23
ATOM     23  O   UNL     1     -38.966  21.000   2.251  0.00  0.00    -0.482 OA
ATOM     24  H   UNL     1     -39.309  20.208   1.887  0.00  0.00    +0.295 HD
ENDBRANCH  22  23
ENDBRANCH  20  22
BRANCH  20  25
ATOM     25  C   UNL     1     -35.449  21.542   2.959  0.00  0.00    -0.006 C 
BRANCH  25  26
ATOM     26  C   UNL     1     -35.422  21.934   4.446  0.00  0.00    +0.025 C 
BRANCH  26  27
ATOM     27  C   UNL     1     -35.506  23.418   4.703  0.00  0.00    -0.022 C 
ATOM     28  C   UNL     1     -34.476  24.049   5.383  0.00  0.00    -0.004 C 
ATOM     29  C   UNL     1     -36.611  24.126   4.254  0.00  0.00    -0.004 C 
ATOM     30  C   UNL     1     -34.553  25.422   5.620  0.00  0.00    -0.000 C 
ATOM     31  C   UNL     1     -36.688  25.498   4.492  0.00  0.00    -0.000 C 
ATOM     32  C   UNL     1     -35.659  26.146   5.175  0.00  0.00    -0.000 C 
ENDBRANCH  26  27
ENDBRANCH  25  26
ENDBRANCH  20  25
ENDBRANCH  17  20
ENDBRANCH   5  17
BRANCH   6  34
ATOM     33  OXT UNL     1     -32.193  19.461  -3.477  0.00  0.00    -0.248 OA
ATOM     34  C   UNL     1     -33.308  19.554  -2.984  0.00  0.00    +0.333 C 
BRANCH  34  35
ATOM     35  O   UNL     1     -34.111  18.498  -2.707  0.00  0.00    -0.479 OA
ATOM     36  H   UNL     1     -33.888  17.644  -3.020  0.00  0.00    +0.295 HD
ENDBRANCH  34  35
ENDBRANCH   6  34
TORSDOF 9
ENDMDL
