MODEL 1
REMARK VINA RESULT:      -6.6      0.000      0.000
REMARK  Name = 5282337
REMARK  6 active torsions:
REMARK  status: ('A' for Active; 'I' for Inactive)
REMARK    1  A    between atoms: N_2  and  S_17
REMARK    2  A    between atoms: C_5  and  C_8
REMARK    3  A    between atoms: C_11  and  N_16
REMARK    4  A    between atoms: S_17  and  C_20
REMARK    5  A    between atoms: C_23  and  O_26
REMARK    6  A    between atoms: C_24  and  O_28
REMARK                            x       y       z     vdW  Elec       q    Type
REMARK                         _______ _______ _______ _____ _____    ______ ____
ROOT
ATOM      1  S   UNL     1     -33.401  31.214   3.294  0.00  0.00    -0.058 S 
ATOM      2  N   UNL     1     -33.735  28.461   3.414  0.00  0.00    -0.184 N 
ATOM      3  N   UNL     1     -31.702  29.503   4.227  0.00  0.00    -0.383 NA
ATOM      4  C   UNL     1     -32.892  29.621   3.680  0.00  0.00    +0.226 C 
ATOM      5  C   UNL     1     -31.144  30.759   4.355  0.00  0.00    +0.123 C 
ATOM      6  C   UNL     1     -31.914  31.811   3.906  0.00  0.00    +0.125 C 
ATOM      7  H   UNL     1     -34.469  28.487   2.760  0.00  0.00    +0.177 HD
ENDROOT
BRANCH   5   8
ATOM      8  C   UNL     1     -29.840  30.948   4.926  0.00  0.00    +0.028 C 
ATOM      9  C   UNL     1     -29.453  30.205   6.042  0.00  0.00    +0.026 C 
ATOM     10  C   UNL     1     -28.960  31.872   4.364  0.00  0.00    +0.002 C 
ATOM     11  C   UNL     1     -28.186  30.389   6.596  0.00  0.00    +0.143 C 
ATOM     12  C   UNL     1     -27.693  32.055   4.917  0.00  0.00    +0.002 C 
ATOM     13  C   UNL     1     -27.306  31.313   6.033  0.00  0.00    +0.024 C 
BRANCH  11  16
ATOM     14  O   UNL     1     -27.866  28.382   7.686  0.00  0.00    -0.126 OA
ATOM     15  O   UNL     1     -27.372  30.238   8.747  0.00  0.00    -0.126 OA
ATOM     16  N   UNL     1     -27.789  29.633   7.730  0.00  0.00    +0.058 N 
ENDBRANCH  11  16
ENDBRANCH   5   8
BRANCH   2  17
ATOM     17  S   UNL     1     -33.364  27.040   4.318  0.00  0.00    +0.076 S 
ATOM     18  O   UNL     1     -33.268  27.379   5.725  0.00  0.00    -0.150 OA
ATOM     19  O   UNL     1     -32.298  26.305   3.665  0.00  0.00    -0.150 OA
BRANCH  17  20
ATOM     20  C   UNL     1     -34.847  26.103   4.093  0.00  0.00    +0.128 C 
ATOM     21  C   UNL     1     -35.021  24.933   4.811  0.00  0.00    +0.060 C 
ATOM     22  C   UNL     1     -35.805  26.558   3.206  0.00  0.00    +0.024 C 
ATOM     23  C   UNL     1     -36.190  24.193   4.634  0.00  0.00    +0.174 C 
ATOM     24  C   UNL     1     -37.167  24.637   3.743  0.00  0.00    +0.172 C 
ATOM     25  C   UNL     1     -36.975  25.819   3.028  0.00  0.00    +0.041 C 
BRANCH  23  26
ATOM     26  O   UNL     1     -36.367  23.040   5.337  0.00  0.00    -0.468 OA
ATOM     27  C   UNL     1     -35.194  22.400   5.837  0.00  0.00    +0.253 C 
ENDBRANCH  23  26
BRANCH  24  28
ATOM     28  O   UNL     1     -38.314  23.924   3.561  0.00  0.00    -0.468 OA
ATOM     29  C   UNL     1     -39.486  24.659   3.216  0.00  0.00    +0.253 C 
ENDBRANCH  24  28
ENDBRANCH  17  20
ENDBRANCH   2  17
TORSDOF 6
ENDMDL
MODEL 2
REMARK VINA RESULT:      -6.4      2.743      9.303
REMARK  Name = 5282337
REMARK  6 active torsions:
REMARK  status: ('A' for Active; 'I' for Inactive)
REMARK    1  A    between atoms: N_2  and  S_17
REMARK    2  A    between atoms: C_5  and  C_8
REMARK    3  A    between atoms: C_11  and  N_16
REMARK    4  A    between atoms: S_17  and  C_20
REMARK    5  A    between atoms: C_23  and  O_26
REMARK    6  A    between atoms: C_24  and  O_28
REMARK                            x       y       z     vdW  Elec       q    Type
REMARK                         _______ _______ _______ _____ _____    ______ ____
ROOT
ATOM      1  S   UNL     1     -35.639  27.607   2.180  0.00  0.00    -0.058 S 
ATOM      2  N   UNL     1     -33.675  28.789   3.745  0.00  0.00    -0.184 N 
ATOM      3  N   UNL     1     -34.303  26.471   4.079  0.00  0.00    -0.383 NA
ATOM      4  C   UNL     1     -34.460  27.603   3.427  0.00  0.00    +0.226 C 
ATOM      5  C   UNL     1     -35.175  25.534   3.562  0.00  0.00    +0.123 C 
ATOM      6  C   UNL     1     -35.979  25.963   2.528  0.00  0.00    +0.125 C 
ATOM      7  H   UNL     1     -33.967  29.694   3.490  0.00  0.00    +0.177 HD
ENDROOT
BRANCH   5   8
ATOM      8  C   UNL     1     -35.230  24.195   4.077  0.00  0.00    +0.028 C 
ATOM      9  C   UNL     1     -35.413  23.120   3.206  0.00  0.00    +0.026 C 
ATOM     10  C   UNL     1     -35.101  23.968   5.447  0.00  0.00    +0.002 C 
ATOM     11  C   UNL     1     -35.466  21.819   3.706  0.00  0.00    +0.143 C 
ATOM     12  C   UNL     1     -35.153  22.667   5.946  0.00  0.00    +0.002 C 
ATOM     13  C   UNL     1     -35.335  21.592   5.076  0.00  0.00    +0.024 C 
BRANCH  11  16
ATOM     14  O   UNL     1     -36.756  20.583   2.249  0.00  0.00    -0.126 OA
ATOM     15  O   UNL     1     -34.698  19.927   2.635  0.00  0.00    -0.126 OA
ATOM     16  N   UNL     1     -35.649  20.724   2.821  0.00  0.00    +0.058 N 
ENDBRANCH  11  16
ENDBRANCH   5   8
BRANCH   2  17
ATOM     17  S   UNL     1     -32.202  28.510   4.597  0.00  0.00    +0.076 S 
ATOM     18  O   UNL     1     -31.453  27.463   3.929  0.00  0.00    -0.150 OA
ATOM     19  O   UNL     1     -32.465  28.431   6.022  0.00  0.00    -0.150 OA
BRANCH  17  20
ATOM     20  C   UNL     1     -31.356  30.037   4.315  0.00  0.00    +0.128 C 
ATOM     21  C   UNL     1     -30.186  30.297   5.007  0.00  0.00    +0.060 C 
ATOM     22  C   UNL     1     -31.879  30.941   3.409  0.00  0.00    +0.024 C 
ATOM     23  C   UNL     1     -29.519  31.502   4.785  0.00  0.00    +0.174 C 
ATOM     24  C   UNL     1     -30.032  32.426   3.874  0.00  0.00    +0.172 C 
ATOM     25  C   UNL     1     -31.212  32.146   3.187  0.00  0.00    +0.041 C 
BRANCH  23  26
ATOM     26  O   UNL     1     -28.367  31.765   5.463  0.00  0.00    -0.468 OA
ATOM     27  C   UNL     1     -27.743  30.669   6.129  0.00  0.00    +0.253 C 
ENDBRANCH  23  26
BRANCH  24  28
ATOM     28  O   UNL     1     -29.389  33.606   3.647  0.00  0.00    -0.468 OA
ATOM     29  C   UNL     1     -30.044  34.549   2.802  0.00  0.00    +0.253 C 
ENDBRANCH  24  28
ENDBRANCH  17  20
ENDBRANCH   2  17
TORSDOF 6
ENDMDL
MODEL 3
REMARK VINA RESULT:      -6.4      5.745      9.365
REMARK  Name = 5282337
REMARK  6 active torsions:
REMARK  status: ('A' for Active; 'I' for Inactive)
REMARK    1  A    between atoms: N_2  and  S_17
REMARK    2  A    between atoms: C_5  and  C_8
REMARK    3  A    between atoms: C_11  and  N_16
REMARK    4  A    between atoms: S_17  and  C_20
REMARK    5  A    between atoms: C_23  and  O_26
REMARK    6  A    between atoms: C_24  and  O_28
REMARK                            x       y       z     vdW  Elec       q    Type
REMARK                         _______ _______ _______ _____ _____    ______ ____
ROOT
ATOM      1  S   UNL     1     -36.965  21.740   1.177  0.00  0.00    -0.058 S 
ATOM      2  N   UNL     1     -36.694  22.119   3.913  0.00  0.00    -0.184 N 
ATOM      3  N   UNL     1     -34.947  21.032   2.630  0.00  0.00    -0.383 NA
ATOM      4  C   UNL     1     -36.127  21.612   2.669  0.00  0.00    +0.226 C 
ATOM      5  C   UNL     1     -34.677  20.659   1.329  0.00  0.00    +0.123 C 
ATOM      6  C   UNL     1     -35.651  20.958   0.399  0.00  0.00    +0.125 C 
ATOM      7  H   UNL     1     -37.658  22.279   4.021  0.00  0.00    +0.177 HD
ENDROOT
BRANCH   5   8
ATOM      8  C   UNL     1     -33.451  20.000   0.974  0.00  0.00    +0.028 C 
ATOM      9  C   UNL     1     -32.556  20.617   0.099  0.00  0.00    +0.026 C 
ATOM     10  C   UNL     1     -33.155  18.745   1.505  0.00  0.00    +0.002 C 
ATOM     11  C   UNL     1     -31.365  19.977  -0.244  0.00  0.00    +0.143 C 
ATOM     12  C   UNL     1     -31.963  18.107   1.163  0.00  0.00    +0.002 C 
ATOM     13  C   UNL     1     -31.068  18.723   0.288  0.00  0.00    +0.024 C 
BRANCH  11  16
ATOM     14  O   UNL     1     -30.526  20.351  -2.359  0.00  0.00    -0.126 OA
ATOM     15  O   UNL     1     -29.595  21.394  -0.667  0.00  0.00    -0.126 OA
ATOM     16  N   UNL     1     -30.452  20.603  -1.133  0.00  0.00    +0.058 N 
ENDBRANCH  11  16
ENDBRANCH   5   8
BRANCH   2  17
ATOM     17  S   UNL     1     -35.567  22.422   5.183  0.00  0.00    +0.076 S 
ATOM     18  O   UNL     1     -34.384  21.609   4.978  0.00  0.00    -0.150 OA
ATOM     19  O   UNL     1     -36.253  22.414   6.461  0.00  0.00    -0.150 OA
BRANCH  17  20
ATOM     20  C   UNL     1     -35.127  24.102   4.848  0.00  0.00    +0.128 C 
ATOM     21  C   UNL     1     -33.956  24.368   4.160  0.00  0.00    +0.060 C 
ATOM     22  C   UNL     1     -35.962  25.117   5.278  0.00  0.00    +0.024 C 
ATOM     23  C   UNL     1     -33.609  25.692   3.896  0.00  0.00    +0.174 C 
ATOM     24  C   UNL     1     -34.439  26.729   4.322  0.00  0.00    +0.172 C 
ATOM     25  C   UNL     1     -35.615  26.442   5.014  0.00  0.00    +0.041 C 
BRANCH  23  26
ATOM     26  O   UNL     1     -32.457  25.961   3.219  0.00  0.00    -0.468 OA
ATOM     27  C   UNL     1     -32.501  25.853   1.798  0.00  0.00    +0.253 C 
ENDBRANCH  23  26
BRANCH  24  28
ATOM     28  O   UNL     1     -34.111  28.028   4.069  0.00  0.00    -0.468 OA
ATOM     29  C   UNL     1     -34.726  28.643   2.939  0.00  0.00    +0.253 C 
ENDBRANCH  24  28
ENDBRANCH  17  20
ENDBRANCH   2  17
TORSDOF 6
ENDMDL
MODEL 4
REMARK VINA RESULT:      -6.3      1.519      2.238
REMARK  Name = 5282337
REMARK  6 active torsions:
REMARK  status: ('A' for Active; 'I' for Inactive)
REMARK    1  A    between atoms: N_2  and  S_17
REMARK    2  A    between atoms: C_5  and  C_8
REMARK    3  A    between atoms: C_11  and  N_16
REMARK    4  A    between atoms: S_17  and  C_20
REMARK    5  A    between atoms: C_23  and  O_26
REMARK    6  A    between atoms: C_24  and  O_28
REMARK                            x       y       z     vdW  Elec       q    Type
REMARK                         _______ _______ _______ _____ _____    ______ ____
ROOT
ATOM      1  S   UNL     1     -34.024  30.176   3.163  0.00  0.00    -0.058 S 
ATOM      2  N   UNL     1     -34.502  27.461   3.486  0.00  0.00    -0.184 N 
ATOM      3  N   UNL     1     -32.470  28.476   4.337  0.00  0.00    -0.383 NA
ATOM      4  C   UNL     1     -33.619  28.600   3.708  0.00  0.00    +0.226 C 
ATOM      5  C   UNL     1     -31.858  29.711   4.396  0.00  0.00    +0.123 C 
ATOM      6  C   UNL     1     -32.547  30.756   3.816  0.00  0.00    +0.125 C 
ATOM      7  H   UNL     1     -35.195  27.465   2.788  0.00  0.00    +0.177 HD
ENDROOT
BRANCH   5   8
ATOM      8  C   UNL     1     -30.582  29.889   5.030  0.00  0.00    +0.028 C 
ATOM      9  C   UNL     1     -30.052  28.874   5.828  0.00  0.00    +0.026 C 
ATOM     10  C   UNL     1     -29.872  31.075   4.847  0.00  0.00    +0.002 C 
ATOM     11  C   UNL     1     -28.813  29.047   6.443  0.00  0.00    +0.143 C 
ATOM     12  C   UNL     1     -28.631  31.246   5.461  0.00  0.00    +0.002 C 
ATOM     13  C   UNL     1     -28.102  30.232   6.259  0.00  0.00    +0.024 C 
BRANCH  11  16
ATOM     14  O   UNL     1     -28.568  26.822   7.001  0.00  0.00    -0.126 OA
ATOM     15  O   UNL     1     -27.509  28.324   8.201  0.00  0.00    -0.126 OA
ATOM     16  N   UNL     1     -28.271  28.015   7.254  0.00  0.00    +0.058 N 
ENDBRANCH  11  16
ENDBRANCH   5   8
BRANCH   2  17
ATOM     17  S   UNL     1     -34.257  26.107   4.525  0.00  0.00    +0.076 S 
ATOM     18  O   UNL     1     -34.628  26.468   5.879  0.00  0.00    -0.150 OA
ATOM     19  O   UNL     1     -32.965  25.505   4.252  0.00  0.00    -0.150 OA
BRANCH  17  20
ATOM     20  C   UNL     1     -35.483  24.989   3.913  0.00  0.00    +0.128 C 
ATOM     21  C   UNL     1     -36.820  25.331   4.017  0.00  0.00    +0.060 C 
ATOM     22  C   UNL     1     -35.083  23.795   3.341  0.00  0.00    +0.024 C 
ATOM     23  C   UNL     1     -37.787  24.450   3.535  0.00  0.00    +0.174 C 
ATOM     24  C   UNL     1     -37.402  23.241   2.955  0.00  0.00    +0.172 C 
ATOM     25  C   UNL     1     -36.050  22.914   2.858  0.00  0.00    +0.041 C 
BRANCH  23  26
ATOM     26  O   UNL     1     -39.105  24.781   3.636  0.00  0.00    -0.468 OA
ATOM     27  C   UNL     1     -39.567  25.854   2.817  0.00  0.00    +0.253 C 
ENDBRANCH  23  26
BRANCH  24  28
ATOM     28  O   UNL     1     -38.337  22.372   2.479  0.00  0.00    -0.468 OA
ATOM     29  C   UNL     1     -37.878  21.334   1.616  0.00  0.00    +0.253 C 
ENDBRANCH  24  28
ENDBRANCH  17  20
ENDBRANCH   2  17
TORSDOF 6
ENDMDL
MODEL 5
REMARK VINA RESULT:      -6.3      2.968      9.384
REMARK  Name = 5282337
REMARK  6 active torsions:
REMARK  status: ('A' for Active; 'I' for Inactive)
REMARK    1  A    between atoms: N_2  and  S_17
REMARK    2  A    between atoms: C_5  and  C_8
REMARK    3  A    between atoms: C_11  and  N_16
REMARK    4  A    between atoms: S_17  and  C_20
REMARK    5  A    between atoms: C_23  and  O_26
REMARK    6  A    between atoms: C_24  and  O_28
REMARK                            x       y       z     vdW  Elec       q    Type
REMARK                         _______ _______ _______ _____ _____    ______ ____
ROOT
ATOM      1  S   UNL     1     -35.741  27.533   2.194  0.00  0.00    -0.058 S 
ATOM      2  N   UNL     1     -33.756  28.735   3.717  0.00  0.00    -0.184 N 
ATOM      3  N   UNL     1     -34.353  26.411   4.064  0.00  0.00    -0.383 NA
ATOM      4  C   UNL     1     -34.536  27.540   3.415  0.00  0.00    +0.226 C 
ATOM      5  C   UNL     1     -35.226  25.465   3.566  0.00  0.00    +0.123 C 
ATOM      6  C   UNL     1     -36.057  25.885   2.548  0.00  0.00    +0.125 C 
ATOM      7  H   UNL     1     -34.063  29.636   3.468  0.00  0.00    +0.177 HD
ENDROOT
BRANCH   5   8
ATOM      8  C   UNL     1     -35.257  24.125   4.081  0.00  0.00    +0.028 C 
ATOM      9  C   UNL     1     -35.412  23.046   3.210  0.00  0.00    +0.026 C 
ATOM     10  C   UNL     1     -35.131  23.902   5.451  0.00  0.00    +0.002 C 
ATOM     11  C   UNL     1     -35.441  21.745   3.711  0.00  0.00    +0.143 C 
ATOM     12  C   UNL     1     -35.159  22.600   5.952  0.00  0.00    +0.002 C 
ATOM     13  C   UNL     1     -35.314  21.522   5.081  0.00  0.00    +0.024 C 
BRANCH  11  16
ATOM     14  O   UNL     1     -34.620  19.886   2.620  0.00  0.00    -0.126 OA
ATOM     15  O   UNL     1     -36.709  20.462   2.274  0.00  0.00    -0.126 OA
ATOM     16  N   UNL     1     -35.597  20.645   2.826  0.00  0.00    +0.058 N 
ENDBRANCH  11  16
ENDBRANCH   5   8
BRANCH   2  17
ATOM     17  S   UNL     1     -32.263  28.471   4.537  0.00  0.00    +0.076 S 
ATOM     18  O   UNL     1     -31.509  27.446   3.842  0.00  0.00    -0.150 OA
ATOM     19  O   UNL     1     -32.497  28.370   5.965  0.00  0.00    -0.150 OA
BRANCH  17  20
ATOM     20  C   UNL     1     -31.449  30.016   4.259  0.00  0.00    +0.128 C 
ATOM     21  C   UNL     1     -31.974  30.897   3.329  0.00  0.00    +0.060 C 
ATOM     22  C   UNL     1     -30.305  30.316   4.977  0.00  0.00    +0.024 C 
ATOM     23  C   UNL     1     -31.332  32.115   3.110  0.00  0.00    +0.174 C 
ATOM     24  C   UNL     1     -30.178  32.434   3.824  0.00  0.00    +0.172 C 
ATOM     25  C   UNL     1     -29.664  31.535   4.757  0.00  0.00    +0.041 C 
BRANCH  23  26
ATOM     26  O   UNL     1     -31.843  32.987   2.195  0.00  0.00    -0.468 OA
ATOM     27  C   UNL     1     -33.254  33.193   2.215  0.00  0.00    +0.253 C 
ENDBRANCH  23  26
BRANCH  24  28
ATOM     28  O   UNL     1     -29.542  33.622   3.619  0.00  0.00    -0.468 OA
ATOM     29  C   UNL     1     -28.121  33.587   3.510  0.00  0.00    +0.253 C 
ENDBRANCH  24  28
ENDBRANCH  17  20
ENDBRANCH   2  17
TORSDOF 6
ENDMDL
MODEL 6
REMARK VINA RESULT:      -6.3      6.452      8.729
REMARK  Name = 5282337
REMARK  6 active torsions:
REMARK  status: ('A' for Active; 'I' for Inactive)
REMARK    1  A    between atoms: N_2  and  S_17
REMARK    2  A    between atoms: C_5  and  C_8
REMARK    3  A    between atoms: C_11  and  N_16
REMARK    4  A    between atoms: S_17  and  C_20
REMARK    5  A    between atoms: C_23  and  O_26
REMARK    6  A    between atoms: C_24  and  O_28
REMARK                            x       y       z     vdW  Elec       q    Type
REMARK                         _______ _______ _______ _____ _____    ______ ____
ROOT
ATOM      1  S   UNL     1     -35.901  21.399  -0.123  0.00  0.00    -0.058 S 
ATOM      2  N   UNL     1     -38.648  21.052   0.072  0.00  0.00    -0.184 N 
ATOM      3  N   UNL     1     -37.347  21.767   1.989  0.00  0.00    -0.383 NA
ATOM      4  C   UNL     1     -37.394  21.413   0.723  0.00  0.00    +0.226 C 
ATOM      5  C   UNL     1     -36.038  22.049   2.324  0.00  0.00    +0.123 C 
ATOM      6  C   UNL     1     -35.111  21.907   1.312  0.00  0.00    +0.125 C 
ATOM      7  H   UNL     1     -38.674  20.518  -0.754  0.00  0.00    +0.177 HD
ENDROOT
BRANCH   5   8
ATOM      8  C   UNL     1     -35.673  22.467   3.648  0.00  0.00    +0.028 C 
ATOM      9  C   UNL     1     -35.436  23.816   3.914  0.00  0.00    +0.026 C 
ATOM     10  C   UNL     1     -35.558  21.524   4.669  0.00  0.00    +0.002 C 
ATOM     11  C   UNL     1     -35.083  24.221   5.200  0.00  0.00    +0.143 C 
ATOM     12  C   UNL     1     -35.206  21.930   5.957  0.00  0.00    +0.002 C 
ATOM     13  C   UNL     1     -34.969  23.279   6.222  0.00  0.00    +0.024 C 
BRANCH  11  16
ATOM     14  O   UNL     1     -35.817  26.383   5.526  0.00  0.00    -0.126 OA
ATOM     15  O   UNL     1     -33.663  25.980   5.655  0.00  0.00    -0.126 OA
ATOM     16  N   UNL     1     -34.843  25.594   5.473  0.00  0.00    +0.058 N 
ENDBRANCH  11  16
ENDBRANCH   5   8
BRANCH   2  17
ATOM     17  S   UNL     1     -40.084  21.622   0.839  0.00  0.00    +0.076 S 
ATOM     18  O   UNL     1     -40.088  21.194   2.225  0.00  0.00    -0.150 OA
ATOM     19  O   UNL     1     -41.231  21.368  -0.012  0.00  0.00    -0.150 OA
BRANCH  17  20
ATOM     20  C   UNL     1     -39.806  23.368   0.817  0.00  0.00    +0.128 C 
ATOM     21  C   UNL     1     -40.003  24.097   1.977  0.00  0.00    +0.060 C 
ATOM     22  C   UNL     1     -39.395  23.972  -0.357  0.00  0.00    +0.024 C 
ATOM     23  C   UNL     1     -39.784  25.474   1.961  0.00  0.00    +0.174 C 
ATOM     24  C   UNL     1     -39.370  26.100   0.785  0.00  0.00    +0.172 C 
ATOM     25  C   UNL     1     -39.175  25.349  -0.374  0.00  0.00    +0.041 C 
BRANCH  23  26
ATOM     26  O   UNL     1     -39.978  26.197   3.099  0.00  0.00    -0.468 OA
ATOM     27  C   UNL     1     -41.322  26.550   3.421  0.00  0.00    +0.253 C 
ENDBRANCH  23  26
BRANCH  24  28
ATOM     28  O   UNL     1     -39.151  27.445   0.756  0.00  0.00    -0.468 OA
ATOM     29  C   UNL     1     -37.996  27.899   0.053  0.00  0.00    +0.253 C 
ENDBRANCH  24  28
ENDBRANCH  17  20
ENDBRANCH   2  17
TORSDOF 6
ENDMDL
MODEL 7
REMARK VINA RESULT:      -6.2      1.531      1.746
REMARK  Name = 5282337
REMARK  6 active torsions:
REMARK  status: ('A' for Active; 'I' for Inactive)
REMARK    1  A    between atoms: N_2  and  S_17
REMARK    2  A    between atoms: C_5  and  C_8
REMARK    3  A    between atoms: C_11  and  N_16
REMARK    4  A    between atoms: S_17  and  C_20
REMARK    5  A    between atoms: C_23  and  O_26
REMARK    6  A    between atoms: C_24  and  O_28
REMARK                            x       y       z     vdW  Elec       q    Type
REMARK                         _______ _______ _______ _____ _____    ______ ____
ROOT
ATOM      1  S   UNL     1     -33.993  30.241   3.007  0.00  0.00    -0.058 S 
ATOM      2  N   UNL     1     -34.458  27.524   3.332  0.00  0.00    -0.184 N 
ATOM      3  N   UNL     1     -32.453  28.557   4.222  0.00  0.00    -0.383 NA
ATOM      4  C   UNL     1     -33.588  28.671   3.568  0.00  0.00    +0.226 C 
ATOM      5  C   UNL     1     -31.852  29.798   4.290  0.00  0.00    +0.123 C 
ATOM      6  C   UNL     1     -32.535  30.834   3.689  0.00  0.00    +0.125 C 
ATOM      7  H   UNL     1     -35.135  27.519   2.618  0.00  0.00    +0.177 HD
ENDROOT
BRANCH   5   8
ATOM      8  C   UNL     1     -30.591  29.988   4.951  0.00  0.00    +0.028 C 
ATOM      9  C   UNL     1     -30.067  28.976   5.757  0.00  0.00    +0.026 C 
ATOM     10  C   UNL     1     -29.891  31.182   4.786  0.00  0.00    +0.002 C 
ATOM     11  C   UNL     1     -28.842  29.161   6.398  0.00  0.00    +0.143 C 
ATOM     12  C   UNL     1     -28.665  31.366   5.427  0.00  0.00    +0.002 C 
ATOM     13  C   UNL     1     -28.141  30.355   6.233  0.00  0.00    +0.024 C 
BRANCH  11  16
ATOM     14  O   UNL     1     -27.663  28.448   8.247  0.00  0.00    -0.126 OA
ATOM     15  O   UNL     1     -28.492  26.936   6.890  0.00  0.00    -0.126 OA
ATOM     16  N   UNL     1     -28.306  28.133   7.217  0.00  0.00    +0.058 N 
ENDBRANCH  11  16
ENDBRANCH   5   8
BRANCH   2  17
ATOM     17  S   UNL     1     -34.225  26.176   4.382  0.00  0.00    +0.076 S 
ATOM     18  O   UNL     1     -34.554  26.564   5.740  0.00  0.00    -0.150 OA
ATOM     19  O   UNL     1     -32.958  25.535   4.087  0.00  0.00    -0.150 OA
BRANCH  17  20
ATOM     20  C   UNL     1     -35.497  25.085   3.814  0.00  0.00    +0.128 C 
ATOM     21  C   UNL     1     -35.237  23.728   3.739  0.00  0.00    +0.060 C 
ATOM     22  C   UNL     1     -36.726  25.610   3.457  0.00  0.00    +0.024 C 
ATOM     23  C   UNL     1     -36.240  22.868   3.291  0.00  0.00    +0.174 C 
ATOM     24  C   UNL     1     -37.485  23.379   2.927  0.00  0.00    +0.172 C 
ATOM     25  C   UNL     1     -37.729  24.749   3.009  0.00  0.00    +0.041 C 
BRANCH  23  26
ATOM     26  O   UNL     1     -35.991  21.531   3.214  0.00  0.00    -0.468 OA
ATOM     27  C   UNL     1     -35.236  21.077   2.092  0.00  0.00    +0.253 C 
ENDBRANCH  23  26
BRANCH  24  28
ATOM     28  O   UNL     1     -38.473  22.549   2.489  0.00  0.00    -0.468 OA
ATOM     29  C   UNL     1     -39.730  23.146   2.175  0.00  0.00    +0.253 C 
ENDBRANCH  24  28
ENDBRANCH  17  20
ENDBRANCH   2  17
TORSDOF 6
ENDMDL
MODEL 8
REMARK VINA RESULT:      -6.2      5.156      9.164
REMARK  Name = 5282337
REMARK  6 active torsions:
REMARK  status: ('A' for Active; 'I' for Inactive)
REMARK    1  A    between atoms: N_2  and  S_17
REMARK    2  A    between atoms: C_5  and  C_8
REMARK    3  A    between atoms: C_11  and  N_16
REMARK    4  A    between atoms: S_17  and  C_20
REMARK    5  A    between atoms: C_23  and  O_26
REMARK    6  A    between atoms: C_24  and  O_28
REMARK                            x       y       z     vdW  Elec       q    Type
REMARK                         _______ _______ _______ _____ _____    ______ ____
ROOT
ATOM      1  S   UNL     1     -35.632  24.565  -0.634  0.00  0.00    -0.058 S 
ATOM      2  N   UNL     1     -37.357  24.512   1.539  0.00  0.00    -0.184 N 
ATOM      3  N   UNL     1     -35.707  22.765   1.220  0.00  0.00    -0.383 NA
ATOM      4  C   UNL     1     -36.263  23.884   0.809  0.00  0.00    +0.226 C 
ATOM      5  C   UNL     1     -34.707  22.413   0.336  0.00  0.00    +0.123 C 
ATOM      6  C   UNL     1     -34.516  23.265  -0.732  0.00  0.00    +0.125 C 
ATOM      7  H   UNL     1     -37.967  25.157   1.114  0.00  0.00    +0.177 HD
ENDROOT
BRANCH   5   8
ATOM      8  C   UNL     1     -33.917  21.229   0.526  0.00  0.00    +0.028 C 
ATOM      9  C   UNL     1     -32.718  21.071  -0.170  0.00  0.00    +0.026 C 
ATOM     10  C   UNL     1     -34.347  20.239   1.408  0.00  0.00    +0.002 C 
ATOM     11  C   UNL     1     -31.950  19.922   0.017  0.00  0.00    +0.143 C 
ATOM     12  C   UNL     1     -33.578  19.090   1.595  0.00  0.00    +0.002 C 
ATOM     13  C   UNL     1     -32.380  18.932   0.899  0.00  0.00    +0.024 C 
BRANCH  11  16
ATOM     14  O   UNL     1     -29.793  20.568  -0.480  0.00  0.00    -0.126 OA
ATOM     15  O   UNL     1     -30.619  18.811  -1.504  0.00  0.00    -0.126 OA
ATOM     16  N   UNL     1     -30.729  19.760  -0.689  0.00  0.00    +0.058 N 
ENDBRANCH  11  16
ENDBRANCH   5   8
BRANCH   2  17
ATOM     17  S   UNL     1     -37.517  24.055   3.194  0.00  0.00    +0.076 S 
ATOM     18  O   UNL     1     -37.323  22.623   3.316  0.00  0.00    -0.150 OA
ATOM     19  O   UNL     1     -38.687  24.690   3.770  0.00  0.00    -0.150 OA
BRANCH  17  20
ATOM     20  C   UNL     1     -36.102  24.849   3.899  0.00  0.00    +0.128 C 
ATOM     21  C   UNL     1     -35.815  26.155   3.543  0.00  0.00    +0.060 C 
ATOM     22  C   UNL     1     -35.313  24.151   4.794  0.00  0.00    +0.024 C 
ATOM     23  C   UNL     1     -34.700  26.781   4.099  0.00  0.00    +0.174 C 
ATOM     24  C   UNL     1     -33.892  26.093   5.003  0.00  0.00    +0.172 C 
ATOM     25  C   UNL     1     -34.197  24.777   5.350  0.00  0.00    +0.041 C 
BRANCH  23  26
ATOM     26  O   UNL     1     -34.410  28.067   3.751  0.00  0.00    -0.468 OA
ATOM     27  C   UNL     1     -35.048  28.581   2.583  0.00  0.00    +0.253 C 
ENDBRANCH  23  26
BRANCH  24  28
ATOM     28  O   UNL     1     -32.800  26.694   5.554  0.00  0.00    -0.468 OA
ATOM     29  C   UNL     1     -32.881  27.047   6.933  0.00  0.00    +0.253 C 
ENDBRANCH  24  28
ENDBRANCH  17  20
ENDBRANCH   2  17
TORSDOF 6
ENDMDL
MODEL 9
REMARK VINA RESULT:      -6.2      3.288      5.312
REMARK  Name = 5282337
REMARK  6 active torsions:
REMARK  status: ('A' for Active; 'I' for Inactive)
REMARK    1  A    between atoms: N_2  and  S_17
REMARK    2  A    between atoms: C_5  and  C_8
REMARK    3  A    between atoms: C_11  and  N_16
REMARK    4  A    between atoms: S_17  and  C_20
REMARK    5  A    between atoms: C_23  and  O_26
REMARK    6  A    between atoms: C_24  and  O_28
REMARK                            x       y       z     vdW  Elec       q    Type
REMARK                         _______ _______ _______ _____ _____    ______ ____
ROOT
ATOM      1  S   UNL     1     -30.768  29.905   5.205  0.00  0.00    -0.058 S 
ATOM      2  N   UNL     1     -32.893  28.248   4.538  0.00  0.00    -0.184 N 
ATOM      3  N   UNL     1     -32.766  30.513   3.680  0.00  0.00    -0.383 NA
ATOM      4  C   UNL     1     -32.247  29.549   4.410  0.00  0.00    +0.226 C 
ATOM      5  C   UNL     1     -31.940  31.617   3.748  0.00  0.00    +0.123 C 
ATOM      6  C   UNL     1     -30.809  31.479   4.525  0.00  0.00    +0.125 C 
ATOM      7  H   UNL     1     -32.696  27.637   5.284  0.00  0.00    +0.177 HD
ENDROOT
BRANCH   5   8
ATOM      8  C   UNL     1     -32.248  32.830   3.045  0.00  0.00    +0.028 C 
ATOM      9  C   UNL     1     -33.440  32.937   2.327  0.00  0.00    +0.026 C 
ATOM     10  C   UNL     1     -31.357  33.902   3.081  0.00  0.00    +0.002 C 
ATOM     11  C   UNL     1     -33.739  34.117   1.645  0.00  0.00    +0.143 C 
ATOM     12  C   UNL     1     -31.657  35.082   2.399  0.00  0.00    +0.002 C 
ATOM     13  C   UNL     1     -32.848  35.189   1.682  0.00  0.00    +0.024 C 
BRANCH  11  16
ATOM     14  O   UNL     1     -35.021  35.050  -0.029  0.00  0.00    -0.126 OA
ATOM     15  O   UNL     1     -35.923  33.500   1.235  0.00  0.00    -0.126 OA
ATOM     16  N   UNL     1     -34.952  34.228   0.916  0.00  0.00    +0.058 N 
ENDBRANCH  11  16
ENDBRANCH   5   8
BRANCH   2  17
ATOM     17  S   UNL     1     -34.025  27.847   3.301  0.00  0.00    +0.076 S 
ATOM     18  O   UNL     1     -33.309  27.534   2.079  0.00  0.00    -0.150 OA
ATOM     19  O   UNL     1     -35.108  28.812   3.292  0.00  0.00    -0.150 OA
BRANCH  17  20
ATOM     20  C   UNL     1     -34.691  26.335   3.934  0.00  0.00    +0.128 C 
ATOM     21  C   UNL     1     -36.040  26.074   3.774  0.00  0.00    +0.060 C 
ATOM     22  C   UNL     1     -33.850  25.443   4.573  0.00  0.00    +0.024 C 
ATOM     23  C   UNL     1     -36.565  24.882   4.273  0.00  0.00    +0.174 C 
ATOM     24  C   UNL     1     -35.732  23.970   4.921  0.00  0.00    +0.172 C 
ATOM     25  C   UNL     1     -34.375  24.251   5.072  0.00  0.00    +0.041 C 
BRANCH  23  26
ATOM     26  O   UNL     1     -37.893  24.619   4.120  0.00  0.00    -0.468 OA
ATOM     27  C   UNL     1     -38.314  24.127   2.849  0.00  0.00    +0.253 C 
ENDBRANCH  23  26
BRANCH  24  28
ATOM     28  O   UNL     1     -36.233  22.801   5.412  0.00  0.00    -0.468 OA
ATOM     29  C   UNL     1     -35.450  22.121   6.390  0.00  0.00    +0.253 C 
ENDBRANCH  24  28
ENDBRANCH  17  20
ENDBRANCH   2  17
TORSDOF 6
ENDMDL
