MODEL 1
REMARK VINA RESULT:      -5.8      0.000      0.000
REMARK  Name = 191137
REMARK  11 active torsions:
REMARK  status: ('A' for Active; 'I' for Inactive)
REMARK    1  A    between atoms: N_1  and  C_3
REMARK    2  A    between atoms: N_1  and  C_15
REMARK    3  A    between atoms: C_4  and  N_11
REMARK    4  A    between atoms: C_8  and  N_14
REMARK    5  A    between atoms: C_15  and  C_17
REMARK    6  A    between atoms: C_15  and  C_20
REMARK    7  A    between atoms: C_17  and  C_19
REMARK    8  A    between atoms: C_20  and  C_21
REMARK    9  A    between atoms: C_21  and  C_22
REMARK   10  A    between atoms: C_22  and  C_23
REMARK   11  A    between atoms: C_23  and  N_24
REMARK                            x       y       z     vdW  Elec       q    Type
REMARK                         _______ _______ _______ _____ _____    ______ ____
ROOT
ATOM      1  N   UNL     1     -37.294  22.426   3.394  0.00  0.00    -0.327 N 
ATOM      2  H   UNL     1     -37.654  21.856   4.111  0.00  0.00    +0.147 HD
ENDROOT
BRANCH   1   3
ATOM      3  C   UNL     1     -36.353  23.384   3.728  0.00  0.00    +0.068 C 
ATOM      4  C   UNL     1     -35.485  23.195   4.804  0.00  0.00    +0.158 C 
ATOM      5  C   UNL     1     -36.282  24.552   2.971  0.00  0.00    +0.018 C 
ATOM      6  C   UNL     1     -34.545  24.175   5.122  0.00  0.00    +0.049 C 
ATOM      7  C   UNL     1     -35.342  25.533   3.288  0.00  0.00    +0.025 C 
ATOM      8  C   UNL     1     -34.474  25.345   4.364  0.00  0.00    +0.145 C 
BRANCH   4  11
ATOM      9  O   UNL     1     -35.061  20.951   5.127  0.00  0.00    -0.126 OA
ATOM     10  O   UNL     1     -36.056  22.069   6.733  0.00  0.00    -0.126 OA
ATOM     11  N   UNL     1     -35.537  22.012   5.593  0.00  0.00    +0.059 N 
ENDBRANCH   4  11
BRANCH   8  14
ATOM     12  O   UNL     1     -33.623  26.958   5.775  0.00  0.00    -0.126 OA
ATOM     13  O   UNL     1     -32.590  26.583   3.874  0.00  0.00    -0.126 OA
ATOM     14  N   UNL     1     -33.517  26.343   4.686  0.00  0.00    +0.058 N 
ENDBRANCH   8  14
ENDBRANCH   1   3
BRANCH   1  15
ATOM     15  C   UNL     1     -37.777  22.215   2.045  0.00  0.00    +0.129 C 
BRANCH  15  17
ATOM     16  O   UNL     1     -40.019  21.337   2.184  0.00  0.00    -0.293 OA
ATOM     17  C   UNL     1     -39.300  22.323   2.025  0.00  0.00    +0.185 C 
BRANCH  17  19
ATOM     18 CL   UNL     1     -39.892  24.643   3.281  0.00  0.00    -0.105 Cl
ATOM     19  C   UNL     1     -39.863  23.707   1.778  0.00  0.00    +0.161 C 
ENDBRANCH  17  19
ENDBRANCH  15  17
BRANCH  15  20
ATOM     20  C   UNL     1     -37.262  20.879   1.497  0.00  0.00    +0.027 C 
BRANCH  20  21
ATOM     21  C   UNL     1     -35.831  20.936   0.943  0.00  0.00    -0.000 C 
BRANCH  21  22
ATOM     22  C   UNL     1     -34.809  20.221   1.834  0.00  0.00    -0.024 C 
BRANCH  22  23
ATOM     23  C   UNL     1     -34.020  19.137   1.100  0.00  0.00    -0.086 C 
BRANCH  23  24
ATOM     24  N   UNL     1     -34.932  18.172   0.495  0.00  0.00    +0.380 N 
ATOM     25  H   UNL     1     -34.412  17.563  -0.136  0.00  0.00    -0.089 HD
ATOM     26  H   UNL     1     -35.654  18.668  -0.028  0.00  0.00    -0.089 HD
ATOM     27  H   UNL     1     -35.367  17.611   1.227  0.00  0.00    -0.089 HD
ENDBRANCH  23  24
ENDBRANCH  22  23
ENDBRANCH  21  22
ENDBRANCH  20  21
ENDBRANCH  15  20
ENDBRANCH   1  15
TORSDOF 11
ENDMDL
MODEL 2
REMARK VINA RESULT:      -5.8      1.735      1.880
REMARK  Name = 191137
REMARK  11 active torsions:
REMARK  status: ('A' for Active; 'I' for Inactive)
REMARK    1  A    between atoms: N_1  and  C_3
REMARK    2  A    between atoms: N_1  and  C_15
REMARK    3  A    between atoms: C_4  and  N_11
REMARK    4  A    between atoms: C_8  and  N_14
REMARK    5  A    between atoms: C_15  and  C_17
REMARK    6  A    between atoms: C_15  and  C_20
REMARK    7  A    between atoms: C_17  and  C_19
REMARK    8  A    between atoms: C_20  and  C_21
REMARK    9  A    between atoms: C_21  and  C_22
REMARK   10  A    between atoms: C_22  and  C_23
REMARK   11  A    between atoms: C_23  and  N_24
REMARK                            x       y       z     vdW  Elec       q    Type
REMARK                         _______ _______ _______ _____ _____    ______ ____
ROOT
ATOM      1  N   UNL     1     -37.124  22.134   3.308  0.00  0.00    -0.327 N 
ATOM      2  H   UNL     1     -37.761  21.757   3.957  0.00  0.00    +0.147 HD
ENDROOT
BRANCH   1   3
ATOM      3  C   UNL     1     -36.348  23.210   3.701  0.00  0.00    +0.068 C 
ATOM      4  C   UNL     1     -35.569  23.151   4.857  0.00  0.00    +0.158 C 
ATOM      5  C   UNL     1     -36.351  24.365   2.921  0.00  0.00    +0.018 C 
ATOM      6  C   UNL     1     -34.795  24.248   5.233  0.00  0.00    +0.049 C 
ATOM      7  C   UNL     1     -35.577  25.462   3.295  0.00  0.00    +0.025 C 
ATOM      8  C   UNL     1     -34.798  25.405   4.452  0.00  0.00    +0.145 C 
BRANCH   4  11
ATOM      9  O   UNL     1     -34.994  20.949   5.233  0.00  0.00    -0.126 OA
ATOM     10  O   UNL     1     -36.080  22.029   6.806  0.00  0.00    -0.126 OA
ATOM     11  N   UNL     1     -35.547  21.985   5.672  0.00  0.00    +0.059 N 
ENDBRANCH   4  11
BRANCH   8  14
ATOM     12  O   UNL     1     -34.165  27.610   4.227  0.00  0.00    -0.126 OA
ATOM     13  O   UNL     1     -33.180  26.392   5.765  0.00  0.00    -0.126 OA
ATOM     14  N   UNL     1     -34.010  26.523   4.833  0.00  0.00    +0.058 N 
ENDBRANCH   8  14
ENDBRANCH   1   3
BRANCH   1  15
ATOM     15  C   UNL     1     -37.049  21.530   1.994  0.00  0.00    +0.129 C 
BRANCH  15  17
ATOM     16  O   UNL     1     -39.457  21.444   2.117  0.00  0.00    -0.293 OA
ATOM     17  C   UNL     1     -38.453  21.413   1.405  0.00  0.00    +0.185 C 
BRANCH  17  19
ATOM     18 CL   UNL     1     -38.742  19.528  -0.511  0.00  0.00    -0.105 Cl
ATOM     19  C   UNL     1     -38.530  21.236  -0.097  0.00  0.00    +0.161 C 
ENDBRANCH  17  19
ENDBRANCH  15  17
BRANCH  15  20
ATOM     20  C   UNL     1     -36.315  20.187   2.065  0.00  0.00    +0.027 C 
BRANCH  20  21
ATOM     21  C   UNL     1     -34.797  20.289   1.856  0.00  0.00    -0.000 C 
BRANCH  21  22
ATOM     22  C   UNL     1     -34.215  19.110   1.067  0.00  0.00    -0.024 C 
BRANCH  22  23
ATOM     23  C   UNL     1     -32.687  19.120   1.002  0.00  0.00    -0.086 C 
BRANCH  23  24
ATOM     24  N   UNL     1     -32.151  17.881   1.556  0.00  0.00    +0.380 N 
ATOM     25  H   UNL     1     -32.920  17.285   1.862  0.00  0.00    -0.089 HD
ATOM     26  H   UNL     1     -31.550  18.097   2.352  0.00  0.00    -0.089 HD
ATOM     27  H   UNL     1     -31.609  17.396   0.841  0.00  0.00    -0.089 HD
ENDBRANCH  23  24
ENDBRANCH  22  23
ENDBRANCH  21  22
ENDBRANCH  20  21
ENDBRANCH  15  20
ENDBRANCH   1  15
TORSDOF 11
ENDMDL
MODEL 3
REMARK VINA RESULT:      -5.6      3.289      6.066
REMARK  Name = 191137
REMARK  11 active torsions:
REMARK  status: ('A' for Active; 'I' for Inactive)
REMARK    1  A    between atoms: N_1  and  C_3
REMARK    2  A    between atoms: N_1  and  C_15
REMARK    3  A    between atoms: C_4  and  N_11
REMARK    4  A    between atoms: C_8  and  N_14
REMARK    5  A    between atoms: C_15  and  C_17
REMARK    6  A    between atoms: C_15  and  C_20
REMARK    7  A    between atoms: C_17  and  C_19
REMARK    8  A    between atoms: C_20  and  C_21
REMARK    9  A    between atoms: C_21  and  C_22
REMARK   10  A    between atoms: C_22  and  C_23
REMARK   11  A    between atoms: C_23  and  N_24
REMARK                            x       y       z     vdW  Elec       q    Type
REMARK                         _______ _______ _______ _____ _____    ______ ____
ROOT
ATOM      1  N   UNL     1     -37.380  22.449   3.358  0.00  0.00    -0.327 N 
ATOM      2  H   UNL     1     -37.768  21.616   3.711  0.00  0.00    +0.147 HD
ENDROOT
BRANCH   1   3
ATOM      3  C   UNL     1     -38.236  23.396   2.825  0.00  0.00    +0.068 C 
ATOM      4  C   UNL     1     -39.270  23.028   1.963  0.00  0.00    +0.158 C 
ATOM      5  C   UNL     1     -38.052  24.737   3.162  0.00  0.00    +0.018 C 
ATOM      6  C   UNL     1     -40.119  24.002   1.438  0.00  0.00    +0.049 C 
ATOM      7  C   UNL     1     -38.902  25.710   2.637  0.00  0.00    +0.025 C 
ATOM      8  C   UNL     1     -39.935  25.344   1.775  0.00  0.00    +0.145 C 
BRANCH   4  11
ATOM      9  O   UNL     1     -40.471  21.063   2.071  0.00  0.00    -0.126 OA
ATOM     10  O   UNL     1     -38.664  21.116   0.826  0.00  0.00    -0.126 OA
ATOM     11  N   UNL     1     -39.479  21.668   1.603  0.00  0.00    +0.059 N 
ENDBRANCH   4  11
BRANCH   8  14
ATOM     12  O   UNL     1     -41.082  27.337   1.942  0.00  0.00    -0.126 OA
ATOM     13  O   UNL     1     -41.258  26.183   0.082  0.00  0.00    -0.126 OA
ATOM     14  N   UNL     1     -40.800  26.335   1.241  0.00  0.00    +0.058 N 
ENDBRANCH   8  14
ENDBRANCH   1   3
BRANCH   1  15
ATOM     15  C   UNL     1     -35.943  22.617   3.427  0.00  0.00    +0.129 C 
BRANCH  15  17
ATOM     16  O   UNL     1     -34.629  22.472   1.410  0.00  0.00    -0.293 OA
ATOM     17  C   UNL     1     -35.286  21.878   2.264  0.00  0.00    +0.185 C 
BRANCH  17  19
ATOM     18 CL   UNL     1     -34.050  19.548   1.668  0.00  0.00    -0.105 Cl
ATOM     19  C   UNL     1     -35.513  20.381   2.217  0.00  0.00    +0.161 C 
ENDBRANCH  17  19
ENDBRANCH  15  17
BRANCH  15  20
ATOM     20  C   UNL     1     -35.419  22.168   4.796  0.00  0.00    +0.027 C 
BRANCH  20  21
ATOM     21  C   UNL     1     -35.282  23.304   5.820  0.00  0.00    -0.000 C 
BRANCH  21  22
ATOM     22  C   UNL     1     -34.837  24.631   5.195  0.00  0.00    -0.024 C 
BRANCH  22  23
ATOM     23  C   UNL     1     -35.678  25.825   5.647  0.00  0.00    -0.086 C 
BRANCH  23  24
ATOM     24  N   UNL     1     -35.587  26.904   4.669  0.00  0.00    +0.380 N 
ATOM     25  H   UNL     1     -36.076  27.726   5.023  0.00  0.00    -0.089 HD
ATOM     26  H   UNL     1     -36.016  26.605   3.792  0.00  0.00    -0.089 HD
ATOM     27  H   UNL     1     -34.607  27.135   4.507  0.00  0.00    -0.089 HD
ENDBRANCH  23  24
ENDBRANCH  22  23
ENDBRANCH  21  22
ENDBRANCH  20  21
ENDBRANCH  15  20
ENDBRANCH   1  15
TORSDOF 11
ENDMDL
MODEL 4
REMARK VINA RESULT:      -5.4      2.507      2.841
REMARK  Name = 191137
REMARK  11 active torsions:
REMARK  status: ('A' for Active; 'I' for Inactive)
REMARK    1  A    between atoms: N_1  and  C_3
REMARK    2  A    between atoms: N_1  and  C_15
REMARK    3  A    between atoms: C_4  and  N_11
REMARK    4  A    between atoms: C_8  and  N_14
REMARK    5  A    between atoms: C_15  and  C_17
REMARK    6  A    between atoms: C_15  and  C_20
REMARK    7  A    between atoms: C_17  and  C_19
REMARK    8  A    between atoms: C_20  and  C_21
REMARK    9  A    between atoms: C_21  and  C_22
REMARK   10  A    between atoms: C_22  and  C_23
REMARK   11  A    between atoms: C_23  and  N_24
REMARK                            x       y       z     vdW  Elec       q    Type
REMARK                         _______ _______ _______ _____ _____    ______ ____
ROOT
ATOM      1  N   UNL     1     -35.661  21.894   2.679  0.00  0.00    -0.327 N 
ATOM      2  H   UNL     1     -36.488  21.469   3.000  0.00  0.00    +0.147 HD
ENDROOT
BRANCH   1   3
ATOM      3  C   UNL     1     -35.229  23.047   3.310  0.00  0.00    +0.068 C 
ATOM      4  C   UNL     1     -35.108  23.105   4.698  0.00  0.00    +0.158 C 
ATOM      5  C   UNL     1     -34.914  24.162   2.535  0.00  0.00    +0.018 C 
ATOM      6  C   UNL     1     -34.671  24.279   5.312  0.00  0.00    +0.049 C 
ATOM      7  C   UNL     1     -34.476  25.336   3.148  0.00  0.00    +0.025 C 
ATOM      8  C   UNL     1     -34.355  25.396   4.536  0.00  0.00    +0.145 C 
BRANCH   4  11
ATOM      9  O   UNL     1     -34.997  20.852   5.179  0.00  0.00    -0.126 OA
ATOM     10  O   UNL     1     -36.119  22.157   6.541  0.00  0.00    -0.126 OA
ATOM     11  N   UNL     1     -35.424  21.982   5.513  0.00  0.00    +0.059 N 
ENDBRANCH   4  11
BRANCH   8  14
ATOM     12  O   UNL     1     -33.786  27.629   4.466  0.00  0.00    -0.126 OA
ATOM     13  O   UNL     1     -33.653  26.577   6.388  0.00  0.00    -0.126 OA
ATOM     14  N   UNL     1     -33.910  26.591   5.160  0.00  0.00    +0.058 N 
ENDBRANCH   8  14
ENDBRANCH   1   3
BRANCH   1  15
ATOM     15  C   UNL     1     -34.959  21.277   1.572  0.00  0.00    +0.129 C 
BRANCH  15  17
ATOM     16  O   UNL     1     -36.877  20.648   0.251  0.00  0.00    -0.293 OA
ATOM     17  C   UNL     1     -35.842  21.309   0.326  0.00  0.00    +0.185 C 
BRANCH  17  19
ATOM     18 CL   UNL     1     -33.699  22.733  -0.503  0.00  0.00    -0.105 Cl
ATOM     19  C   UNL     1     -35.354  22.184  -0.810  0.00  0.00    +0.161 C 
ENDBRANCH  17  19
ENDBRANCH  15  17
BRANCH  15  20
ATOM     20  C   UNL     1     -34.506  19.862   1.950  0.00  0.00    +0.027 C 
BRANCH  20  21
ATOM     21  C   UNL     1     -33.755  19.123   0.832  0.00  0.00    -0.000 C 
BRANCH  21  22
ATOM     22  C   UNL     1     -32.305  19.592   0.666  0.00  0.00    -0.024 C 
BRANCH  22  23
ATOM     23  C   UNL     1     -31.292  18.447   0.693  0.00  0.00    -0.086 C 
BRANCH  23  24
ATOM     24  N   UNL     1     -31.966  17.184   0.978  0.00  0.00    +0.380 N 
ATOM     25  H   UNL     1     -31.651  16.827   1.880  0.00  0.00    -0.089 HD
ATOM     26  H   UNL     1     -31.742  16.508   0.247  0.00  0.00    -0.089 HD
ATOM     27  H   UNL     1     -32.974  17.336   1.004  0.00  0.00    -0.089 HD
ENDBRANCH  23  24
ENDBRANCH  22  23
ENDBRANCH  21  22
ENDBRANCH  20  21
ENDBRANCH  15  20
ENDBRANCH   1  15
TORSDOF 11
ENDMDL
MODEL 5
REMARK VINA RESULT:      -5.3      2.428      3.802
REMARK  Name = 191137
REMARK  11 active torsions:
REMARK  status: ('A' for Active; 'I' for Inactive)
REMARK    1  A    between atoms: N_1  and  C_3
REMARK    2  A    between atoms: N_1  and  C_15
REMARK    3  A    between atoms: C_4  and  N_11
REMARK    4  A    between atoms: C_8  and  N_14
REMARK    5  A    between atoms: C_15  and  C_17
REMARK    6  A    between atoms: C_15  and  C_20
REMARK    7  A    between atoms: C_17  and  C_19
REMARK    8  A    between atoms: C_20  and  C_21
REMARK    9  A    between atoms: C_21  and  C_22
REMARK   10  A    between atoms: C_22  and  C_23
REMARK   11  A    between atoms: C_23  and  N_24
REMARK                            x       y       z     vdW  Elec       q    Type
REMARK                         _______ _______ _______ _____ _____    ______ ____
ROOT
ATOM      1  N   UNL     1     -37.057  22.779   3.858  0.00  0.00    -0.327 N 
ATOM      2  H   UNL     1     -37.756  22.560   4.516  0.00  0.00    +0.147 HD
ENDROOT
BRANCH   1   3
ATOM      3  C   UNL     1     -36.125  23.746   4.190  0.00  0.00    +0.068 C 
ATOM      4  C   UNL     1     -35.226  23.550   5.239  0.00  0.00    +0.158 C 
ATOM      5  C   UNL     1     -36.093  24.932   3.457  0.00  0.00    +0.018 C 
ATOM      6  C   UNL     1     -34.296  24.539   5.555  0.00  0.00    +0.049 C 
ATOM      7  C   UNL     1     -35.163  25.922   3.772  0.00  0.00    +0.025 C 
ATOM      8  C   UNL     1     -34.264  25.727   4.821  0.00  0.00    +0.145 C 
BRANCH   4  11
ATOM      9  O   UNL     1     -34.224  21.611   5.986  0.00  0.00    -0.126 OA
ATOM     10  O   UNL     1     -36.259  22.068   6.672  0.00  0.00    -0.126 OA
ATOM     11  N   UNL     1     -35.237  22.350   6.003  0.00  0.00    +0.059 N 
ENDBRANCH   4  11
BRANCH   8  14
ATOM     12  O   UNL     1     -32.561  27.168   4.239  0.00  0.00    -0.126 OA
ATOM     13  O   UNL     1     -33.263  27.167   6.319  0.00  0.00    -0.126 OA
ATOM     14  N   UNL     1     -33.317  26.735   5.141  0.00  0.00    +0.058 N 
ENDBRANCH   8  14
ENDBRANCH   1   3
BRANCH   1  15
ATOM     15  C   UNL     1     -37.059  22.069   2.596  0.00  0.00    +0.129 C 
BRANCH  15  17
ATOM     16  O   UNL     1     -35.321  20.478   3.110  0.00  0.00    -0.293 OA
ATOM     17  C   UNL     1     -35.705  21.396   2.386  0.00  0.00    +0.185 C 
BRANCH  17  19
ATOM     18 CL   UNL     1     -34.976  20.887  -0.168  0.00  0.00    -0.105 Cl
ATOM     19  C   UNL     1     -34.862  21.941   1.251  0.00  0.00    +0.161 C 
ENDBRANCH  17  19
ENDBRANCH  15  17
BRANCH  15  20
ATOM     20  C   UNL     1     -37.442  23.016   1.452  0.00  0.00    +0.027 C 
BRANCH  20  21
ATOM     21  C   UNL     1     -38.881  22.837   0.944  0.00  0.00    -0.000 C 
BRANCH  21  22
ATOM     22  C   UNL     1     -39.938  23.347   1.930  0.00  0.00    -0.024 C 
BRANCH  22  23
ATOM     23  C   UNL     1     -39.710  24.794   2.367  0.00  0.00    -0.086 C 
BRANCH  23  24
ATOM     24  N   UNL     1     -39.798  24.902   3.820  0.00  0.00    +0.380 N 
ATOM     25  H   UNL     1     -39.174  24.219   4.249  0.00  0.00    -0.089 HD
ATOM     26  H   UNL     1     -40.757  24.721   4.117  0.00  0.00    -0.089 HD
ATOM     27  H   UNL     1     -39.524  25.841   4.108  0.00  0.00    -0.089 HD
ENDBRANCH  23  24
ENDBRANCH  22  23
ENDBRANCH  21  22
ENDBRANCH  20  21
ENDBRANCH  15  20
ENDBRANCH   1  15
TORSDOF 11
ENDMDL
MODEL 6
REMARK VINA RESULT:      -5.3      2.196      2.759
REMARK  Name = 191137
REMARK  11 active torsions:
REMARK  status: ('A' for Active; 'I' for Inactive)
REMARK    1  A    between atoms: N_1  and  C_3
REMARK    2  A    between atoms: N_1  and  C_15
REMARK    3  A    between atoms: C_4  and  N_11
REMARK    4  A    between atoms: C_8  and  N_14
REMARK    5  A    between atoms: C_15  and  C_17
REMARK    6  A    between atoms: C_15  and  C_20
REMARK    7  A    between atoms: C_17  and  C_19
REMARK    8  A    between atoms: C_20  and  C_21
REMARK    9  A    between atoms: C_21  and  C_22
REMARK   10  A    between atoms: C_22  and  C_23
REMARK   11  A    between atoms: C_23  and  N_24
REMARK                            x       y       z     vdW  Elec       q    Type
REMARK                         _______ _______ _______ _____ _____    ______ ____
ROOT
ATOM      1  N   UNL     1     -37.226  22.203   3.451  0.00  0.00    -0.327 N 
ATOM      2  H   UNL     1     -37.884  21.809   4.068  0.00  0.00    +0.147 HD
ENDROOT
BRANCH   1   3
ATOM      3  C   UNL     1     -36.480  23.282   3.891  0.00  0.00    +0.068 C 
ATOM      4  C   UNL     1     -36.939  24.589   3.724  0.00  0.00    +0.158 C 
ATOM      5  C   UNL     1     -35.253  23.048   4.508  0.00  0.00    +0.018 C 
ATOM      6  C   UNL     1     -36.169  25.661   4.174  0.00  0.00    +0.049 C 
ATOM      7  C   UNL     1     -34.482  24.119   4.959  0.00  0.00    +0.025 C 
ATOM      8  C   UNL     1     -34.940  25.427   4.792  0.00  0.00    +0.145 C 
BRANCH   4  11
ATOM      9  O   UNL     1     -39.245  24.599   3.717  0.00  0.00    -0.126 OA
ATOM     10  O   UNL     1     -38.191  25.346   1.941  0.00  0.00    -0.126 OA
ATOM     11  N   UNL     1     -38.187  24.858   3.096  0.00  0.00    +0.059 N 
ENDBRANCH   4  11
BRANCH   8  14
ATOM     12  O   UNL     1     -33.882  27.447   4.456  0.00  0.00    -0.126 OA
ATOM     13  O   UNL     1     -33.757  26.521   6.442  0.00  0.00    -0.126 OA
ATOM     14  N   UNL     1     -34.155  26.517   5.252  0.00  0.00    +0.058 N 
ENDBRANCH   8  14
ENDBRANCH   1   3
BRANCH   1  15
ATOM     15  C   UNL     1     -37.089  21.619   2.133  0.00  0.00    +0.129 C 
BRANCH  15  17
ATOM     16  O   UNL     1     -39.494  21.801   2.086  0.00  0.00    -0.293 OA
ATOM     17  C   UNL     1     -38.464  21.507   1.479  0.00  0.00    +0.185 C 
BRANCH  17  19
ATOM     18 CL   UNL     1     -38.692  22.331  -1.086  0.00  0.00    -0.105 Cl
ATOM     19  C   UNL     1     -38.481  20.993   0.054  0.00  0.00    +0.161 C 
ENDBRANCH  17  19
ENDBRANCH  15  17
BRANCH  15  20
ATOM     20  C   UNL     1     -36.353  20.277   2.218  0.00  0.00    +0.027 C 
BRANCH  20  21
ATOM     21  C   UNL     1     -34.825  20.402   2.296  0.00  0.00    -0.000 C 
BRANCH  21  22
ATOM     22  C   UNL     1     -34.114  19.941   1.018  0.00  0.00    -0.024 C 
BRANCH  22  23
ATOM     23  C   UNL     1     -33.294  18.665   1.208  0.00  0.00    -0.086 C 
BRANCH  23  24
ATOM     24  N   UNL     1     -34.021  17.516   0.680  0.00  0.00    +0.380 N 
ATOM     25  H   UNL     1     -34.051  17.571  -0.338  0.00  0.00    -0.089 HD
ATOM     26  H   UNL     1     -34.972  17.516   1.049  0.00  0.00    -0.089 HD
ATOM     27  H   UNL     1     -33.547  16.657   0.960  0.00  0.00    -0.089 HD
ENDBRANCH  23  24
ENDBRANCH  22  23
ENDBRANCH  21  22
ENDBRANCH  20  21
ENDBRANCH  15  20
ENDBRANCH   1  15
TORSDOF 11
ENDMDL
MODEL 7
REMARK VINA RESULT:      -5.2      2.754      6.430
REMARK  Name = 191137
REMARK  11 active torsions:
REMARK  status: ('A' for Active; 'I' for Inactive)
REMARK    1  A    between atoms: N_1  and  C_3
REMARK    2  A    between atoms: N_1  and  C_15
REMARK    3  A    between atoms: C_4  and  N_11
REMARK    4  A    between atoms: C_8  and  N_14
REMARK    5  A    between atoms: C_15  and  C_17
REMARK    6  A    between atoms: C_15  and  C_20
REMARK    7  A    between atoms: C_17  and  C_19
REMARK    8  A    between atoms: C_20  and  C_21
REMARK    9  A    between atoms: C_21  and  C_22
REMARK   10  A    between atoms: C_22  and  C_23
REMARK   11  A    between atoms: C_23  and  N_24
REMARK                            x       y       z     vdW  Elec       q    Type
REMARK                         _______ _______ _______ _____ _____    ______ ____
ROOT
ATOM      1  N   UNL     1     -37.163  22.623   3.460  0.00  0.00    -0.327 N 
ATOM      2  H   UNL     1     -37.897  22.391   4.073  0.00  0.00    +0.147 HD
ENDROOT
BRANCH   1   3
ATOM      3  C   UNL     1     -36.675  21.639   2.619  0.00  0.00    +0.068 C 
ATOM      4  C   UNL     1     -37.430  21.171   1.544  0.00  0.00    +0.158 C 
ATOM      5  C   UNL     1     -35.406  21.113   2.861  0.00  0.00    +0.018 C 
ATOM      6  C   UNL     1     -36.917  20.178   0.711  0.00  0.00    +0.049 C 
ATOM      7  C   UNL     1     -34.892  20.120   2.028  0.00  0.00    +0.025 C 
ATOM      8  C   UNL     1     -35.648  19.652   0.952  0.00  0.00    +0.145 C 
BRANCH   4  11
ATOM      9  O   UNL     1     -38.899  22.397   0.254  0.00  0.00    -0.126 OA
ATOM     10  O   UNL     1     -39.662  21.422   2.067  0.00  0.00    -0.126 OA
ATOM     11  N   UNL     1     -38.728  21.690   1.275  0.00  0.00    +0.059 N 
ENDBRANCH   4  11
BRANCH   8  14
ATOM     12  O   UNL     1     -35.677  18.427  -1.001  0.00  0.00    -0.126 OA
ATOM     13  O   UNL     1     -34.120  17.989   0.483  0.00  0.00    -0.126 OA
ATOM     14  N   UNL     1     -35.124  18.641   0.104  0.00  0.00    +0.058 N 
ENDBRANCH   8  14
ENDBRANCH   1   3
BRANCH   1  15
ATOM     15  C   UNL     1     -36.653  23.979   3.486  0.00  0.00    +0.129 C 
BRANCH  15  17
ATOM     16  O   UNL     1     -36.052  23.462   5.764  0.00  0.00    -0.293 OA
ATOM     17  C   UNL     1     -36.201  24.327   4.902  0.00  0.00    +0.185 C 
BRANCH  17  19
ATOM     18 CL   UNL     1     -34.392  26.045   5.945  0.00  0.00    -0.105 Cl
ATOM     19  C   UNL     1     -35.971  25.798   5.181  0.00  0.00    +0.161 C 
ENDBRANCH  17  19
ENDBRANCH  15  17
BRANCH  15  20
ATOM     20  C   UNL     1     -37.700  24.953   2.933  0.00  0.00    +0.027 C 
BRANCH  20  21
ATOM     21  C   UNL     1     -39.137  24.655   3.386  0.00  0.00    -0.000 C 
BRANCH  21  22
ATOM     22  C   UNL     1     -40.152  25.695   2.899  0.00  0.00    -0.024 C 
BRANCH  22  23
ATOM     23  C   UNL     1     -40.645  25.438   1.475  0.00  0.00    -0.086 C 
BRANCH  23  24
ATOM     24  N   UNL     1     -41.176  24.084   1.361  0.00  0.00    +0.380 N 
ATOM     25  H   UNL     1     -41.178  23.642   2.280  0.00  0.00    -0.089 HD
ATOM     26  H   UNL     1     -40.591  23.542   0.724  0.00  0.00    -0.089 HD
ATOM     27  H   UNL     1     -42.129  24.121   1.000  0.00  0.00    -0.089 HD
ENDBRANCH  23  24
ENDBRANCH  22  23
ENDBRANCH  21  22
ENDBRANCH  20  21
ENDBRANCH  15  20
ENDBRANCH   1  15
TORSDOF 11
ENDMDL
MODEL 8
REMARK VINA RESULT:      -5.2      2.840      5.198
REMARK  Name = 191137
REMARK  11 active torsions:
REMARK  status: ('A' for Active; 'I' for Inactive)
REMARK    1  A    between atoms: N_1  and  C_3
REMARK    2  A    between atoms: N_1  and  C_15
REMARK    3  A    between atoms: C_4  and  N_11
REMARK    4  A    between atoms: C_8  and  N_14
REMARK    5  A    between atoms: C_15  and  C_17
REMARK    6  A    between atoms: C_15  and  C_20
REMARK    7  A    between atoms: C_17  and  C_19
REMARK    8  A    between atoms: C_20  and  C_21
REMARK    9  A    between atoms: C_21  and  C_22
REMARK   10  A    between atoms: C_22  and  C_23
REMARK   11  A    between atoms: C_23  and  N_24
REMARK                            x       y       z     vdW  Elec       q    Type
REMARK                         _______ _______ _______ _____ _____    ______ ____
ROOT
ATOM      1  N   UNL     1     -36.791  22.976   2.352  0.00  0.00    -0.327 N 
ATOM      2  H   UNL     1     -36.370  22.812   1.477  0.00  0.00    +0.147 HD
ENDROOT
BRANCH   1   3
ATOM      3  C   UNL     1     -37.939  23.746   2.393  0.00  0.00    +0.068 C 
ATOM      4  C   UNL     1     -39.183  23.202   2.073  0.00  0.00    +0.158 C 
ATOM      5  C   UNL     1     -37.839  25.087   2.762  0.00  0.00    +0.018 C 
ATOM      6  C   UNL     1     -40.326  23.999   2.121  0.00  0.00    +0.049 C 
ATOM      7  C   UNL     1     -38.982  25.885   2.811  0.00  0.00    +0.025 C 
ATOM      8  C   UNL     1     -40.226  25.342   2.490  0.00  0.00    +0.145 C 
BRANCH   4  11
ATOM      9  O   UNL     1     -40.222  21.147   2.214  0.00  0.00    -0.126 OA
ATOM     10  O   UNL     1     -38.518  21.367   0.846  0.00  0.00    -0.126 OA
ATOM     11  N   UNL     1     -39.314  21.838   1.693  0.00  0.00    +0.059 N 
ENDBRANCH   4  11
BRANCH   8  14
ATOM     12  O   UNL     1     -42.405  25.802   1.894  0.00  0.00    -0.126 OA
ATOM     13  O   UNL     1     -41.370  27.202   3.232  0.00  0.00    -0.126 OA
ATOM     14  N   UNL     1     -41.389  26.154   2.541  0.00  0.00    +0.058 N 
ENDBRANCH   8  14
ENDBRANCH   1   3
BRANCH   1  15
ATOM     15  C   UNL     1     -36.175  22.394   3.527  0.00  0.00    +0.129 C 
BRANCH  15  17
ATOM     16  O   UNL     1     -34.425  24.053   3.571  0.00  0.00    -0.293 OA
ATOM     17  C   UNL     1     -35.280  23.431   4.201  0.00  0.00    +0.185 C 
BRANCH  17  19
ATOM     18 CL   UNL     1     -35.469  22.068   6.529  0.00  0.00    -0.105 Cl
ATOM     19  C   UNL     1     -35.495  23.626   5.687  0.00  0.00    +0.161 C 
ENDBRANCH  17  19
ENDBRANCH  15  17
BRANCH  15  20
ATOM     20  C   UNL     1     -35.429  21.107   3.156  0.00  0.00    +0.027 C 
BRANCH  20  21
ATOM     21  C   UNL     1     -35.003  21.031   1.682  0.00  0.00    -0.000 C 
BRANCH  21  22
ATOM     22  C   UNL     1     -34.699  19.603   1.214  0.00  0.00    -0.024 C 
BRANCH  22  23
ATOM     23  C   UNL     1     -35.703  19.075   0.188  0.00  0.00    -0.086 C 
BRANCH  23  24
ATOM     24  N   UNL     1     -36.961  18.735   0.844  0.00  0.00    +0.380 N 
ATOM     25  H   UNL     1     -36.799  18.601   1.842  0.00  0.00    -0.089 HD
ATOM     26  H   UNL     1     -37.333  17.874   0.441  0.00  0.00    -0.089 HD
ATOM     27  H   UNL     1     -37.631  19.491   0.706  0.00  0.00    -0.089 HD
ENDBRANCH  23  24
ENDBRANCH  22  23
ENDBRANCH  21  22
ENDBRANCH  20  21
ENDBRANCH  15  20
ENDBRANCH   1  15
TORSDOF 11
ENDMDL
MODEL 9
REMARK VINA RESULT:      -5.1      3.256      6.881
REMARK  Name = 191137
REMARK  11 active torsions:
REMARK  status: ('A' for Active; 'I' for Inactive)
REMARK    1  A    between atoms: N_1  and  C_3
REMARK    2  A    between atoms: N_1  and  C_15
REMARK    3  A    between atoms: C_4  and  N_11
REMARK    4  A    between atoms: C_8  and  N_14
REMARK    5  A    between atoms: C_15  and  C_17
REMARK    6  A    between atoms: C_15  and  C_20
REMARK    7  A    between atoms: C_17  and  C_19
REMARK    8  A    between atoms: C_20  and  C_21
REMARK    9  A    between atoms: C_21  and  C_22
REMARK   10  A    between atoms: C_22  and  C_23
REMARK   11  A    between atoms: C_23  and  N_24
REMARK                            x       y       z     vdW  Elec       q    Type
REMARK                         _______ _______ _______ _____ _____    ______ ____
ROOT
ATOM      1  N   UNL     1     -37.426  22.867   3.399  0.00  0.00    -0.327 N 
ATOM      2  H   UNL     1     -37.768  23.104   4.291  0.00  0.00    +0.147 HD
ENDROOT
BRANCH   1   3
ATOM      3  C   UNL     1     -38.339  22.520   2.419  0.00  0.00    +0.068 C 
ATOM      4  C   UNL     1     -39.391  23.371   2.081  0.00  0.00    +0.158 C 
ATOM      5  C   UNL     1     -38.194  21.297   1.764  0.00  0.00    +0.018 C 
ATOM      6  C   UNL     1     -40.299  22.999   1.090  0.00  0.00    +0.049 C 
ATOM      7  C   UNL     1     -39.101  20.925   0.773  0.00  0.00    +0.025 C 
ATOM      8  C   UNL     1     -40.154  21.775   0.435  0.00  0.00    +0.145 C 
BRANCH   4  11
ATOM      9  O   UNL     1     -39.392  25.678   2.077  0.00  0.00    -0.126 OA
ATOM     10  O   UNL     1     -39.883  24.636   3.946  0.00  0.00    -0.126 OA
ATOM     11  N   UNL     1     -39.563  24.624   2.734  0.00  0.00    +0.059 N 
ENDBRANCH   4  11
BRANCH   8  14
ATOM     12  O   UNL     1     -40.856  21.740  -1.760  0.00  0.00    -0.126 OA
ATOM     13  O   UNL     1     -42.089  20.725  -0.253  0.00  0.00    -0.126 OA
ATOM     14  N   UNL     1     -41.077  21.396  -0.574  0.00  0.00    +0.058 N 
ENDBRANCH   8  14
ENDBRANCH   1   3
BRANCH   1  15
ATOM     15  C   UNL     1     -35.994  22.902   3.183  0.00  0.00    +0.129 C 
BRANCH  15  17
ATOM     16  O   UNL     1     -35.357  20.607   3.563  0.00  0.00    -0.293 OA
ATOM     17  C   UNL     1     -35.332  21.770   3.965  0.00  0.00    +0.185 C 
BRANCH  17  19
ATOM     18 CL   UNL     1     -35.801  22.008   6.617  0.00  0.00    -0.105 Cl
ATOM     19  C   UNL     1     -34.666  22.165   5.267  0.00  0.00    +0.161 C 
ENDBRANCH  17  19
ENDBRANCH  15  17
BRANCH  15  20
ATOM     20  C   UNL     1     -35.436  24.285   3.539  0.00  0.00    +0.027 C 
BRANCH  20  21
ATOM     21  C   UNL     1     -36.378  25.142   4.396  0.00  0.00    -0.000 C 
BRANCH  21  22
ATOM     22  C   UNL     1     -35.672  25.828   5.571  0.00  0.00    -0.024 C 
BRANCH  22  23
ATOM     23  C   UNL     1     -34.147  25.732   5.500  0.00  0.00    -0.086 C 
BRANCH  23  24
ATOM     24  N   UNL     1     -33.538  26.883   6.158  0.00  0.00    +0.380 N 
ATOM     25  H   UNL     1     -32.708  27.170   5.641  0.00  0.00    -0.089 HD
ATOM     26  H   UNL     1     -33.275  26.629   7.111  0.00  0.00    -0.089 HD
ATOM     27  H   UNL     1     -34.207  27.653   6.184  0.00  0.00    -0.089 HD
ENDBRANCH  23  24
ENDBRANCH  22  23
ENDBRANCH  21  22
ENDBRANCH  20  21
ENDBRANCH  15  20
ENDBRANCH   1  15
TORSDOF 11
ENDMDL
