MODEL 1
REMARK VINA RESULT:      -6.8      0.000      0.000
REMARK  Name = 5312142
REMARK  6 active torsions:
REMARK  status: ('A' for Active; 'I' for Inactive)
REMARK    1  A    between atoms: C_1  and  S_7
REMARK    2  A    between atoms: C_2  and  N_23
REMARK    3  A    between atoms: C_5  and  N_22
REMARK    4  A    between atoms: S_7  and  N_12
REMARK    5  A    between atoms: N_11  and  C_16
REMARK    6  A    between atoms: N_23  and  C_25
REMARK                            x       y       z     vdW  Elec       q    Type
REMARK                         _______ _______ _______ _____ _____    ______ ____
ROOT
ATOM      1  C   UNL     1     -36.978  22.142   2.488  0.00  0.00    +0.140 C 
ATOM      2  C   UNL     1     -36.725  23.271   3.252  0.00  0.00    +0.068 C 
ATOM      3  C   UNL     1     -38.194  21.970   1.842  0.00  0.00    +0.046 C 
ATOM      4  C   UNL     1     -37.710  24.252   3.372  0.00  0.00    +0.018 C 
ATOM      5  C   UNL     1     -39.179  22.951   1.964  0.00  0.00    +0.144 C 
ATOM      6  C   UNL     1     -38.937  24.091   2.729  0.00  0.00    +0.025 C 
ENDROOT
BRANCH   1   7
ATOM      7  S   UNL     1     -35.756  20.878   2.309  0.00  0.00    +0.078 S 
ATOM      8  O   UNL     1     -35.259  20.541   3.630  0.00  0.00    -0.150 OA
ATOM      9  O   UNL     1     -34.843  21.321   1.272  0.00  0.00    -0.150 OA
BRANCH   7  12
ATOM     10  O   UNL     1     -35.274  18.821   0.033  0.00  0.00    -0.251 OA
ATOM     11  N   UNL     1     -37.303  17.770   0.379  0.00  0.00    -0.291 N 
ATOM     12  N   UNL     1     -36.704  19.588   1.713  0.00  0.00    -0.169 N 
ATOM     13  C   UNL     1     -36.337  18.718   0.637  0.00  0.00    +0.319 C 
ATOM     14  H   UNL     1     -38.124  17.771   0.922  0.00  0.00    +0.151 HD
ATOM     15  H   UNL     1     -37.575  19.431   2.144  0.00  0.00    +0.178 HD
BRANCH  11  16
ATOM     16  C   UNL     1     -37.160  16.769  -0.663  0.00  0.00    +0.058 C 
ATOM     17  C   UNL     1     -38.401  15.869  -0.666  0.00  0.00    +0.020 C 
ATOM     18  C   UNL     1     -35.909  15.926  -0.386  0.00  0.00    +0.020 C 
ATOM     19  C   UNL     1     -37.021  17.466  -2.021  0.00  0.00    +0.020 C 
ENDBRANCH  11  16
ENDBRANCH   7  12
ENDBRANCH   1   7
BRANCH   5  22
ATOM     20  O   UNL     1     -41.199  23.773   1.217  0.00  0.00    -0.126 OA
ATOM     21  O   UNL     1     -40.727  21.662   0.842  0.00  0.00    -0.126 OA
ATOM     22  N   UNL     1     -40.428  22.787   1.309  0.00  0.00    +0.058 N 
ENDBRANCH   5  22
BRANCH   2  23
ATOM     23  N   UNL     1     -35.491  23.458   3.913  0.00  0.00    -0.311 N 
ATOM     24  H   UNL     1     -35.086  22.621   4.237  0.00  0.00    +0.152 HD
BRANCH  23  25
ATOM     25  C   UNL     1     -34.727  24.604   4.199  0.00  0.00    +0.048 C 
ATOM     26  C   UNL     1     -34.006  25.236   3.183  0.00  0.00    +0.014 C 
ATOM     27  C   UNL     1     -34.688  25.115   5.498  0.00  0.00    +0.014 C 
ATOM     28  C   UNL     1     -33.210  26.881   4.766  0.00  0.00    -0.022 C 
ATOM     29  C   UNL     1     -33.248  26.373   3.467  0.00  0.00    -0.003 C 
ATOM     30  C   UNL     1     -33.931  26.251   5.781  0.00  0.00    -0.003 C 
ATOM     31  C   UNL     1     -32.400  28.095   5.068  0.00  0.00    +0.031 C 
ENDBRANCH  23  25
ENDBRANCH   2  23
TORSDOF 6
ENDMDL
MODEL 2
REMARK VINA RESULT:      -6.8      1.658      2.388
REMARK  Name = 5312142
REMARK  6 active torsions:
REMARK  status: ('A' for Active; 'I' for Inactive)
REMARK    1  A    between atoms: C_1  and  S_7
REMARK    2  A    between atoms: C_2  and  N_23
REMARK    3  A    between atoms: C_5  and  N_22
REMARK    4  A    between atoms: S_7  and  N_12
REMARK    5  A    between atoms: N_11  and  C_16
REMARK    6  A    between atoms: N_23  and  C_25
REMARK                            x       y       z     vdW  Elec       q    Type
REMARK                         _______ _______ _______ _____ _____    ______ ____
ROOT
ATOM      1  C   UNL     1     -37.530  23.135   3.070  0.00  0.00    +0.140 C 
ATOM      2  C   UNL     1     -37.985  24.324   3.619  0.00  0.00    +0.068 C 
ATOM      3  C   UNL     1     -38.266  22.463   2.104  0.00  0.00    +0.046 C 
ATOM      4  C   UNL     1     -39.202  24.856   3.191  0.00  0.00    +0.018 C 
ATOM      5  C   UNL     1     -39.483  22.994   1.678  0.00  0.00    +0.144 C 
ATOM      6  C   UNL     1     -39.951  24.190   2.221  0.00  0.00    +0.025 C 
ENDROOT
BRANCH   1   7
ATOM      7  S   UNL     1     -35.994  22.430   3.584  0.00  0.00    +0.078 S 
ATOM      8  O   UNL     1     -36.051  22.218   5.018  0.00  0.00    -0.150 OA
ATOM      9  O   UNL     1     -34.944  23.245   3.003  0.00  0.00    -0.150 OA
BRANCH   7  12
ATOM     10  O   UNL     1     -34.281  21.237   1.284  0.00  0.00    -0.251 OA
ATOM     11  N   UNL     1     -35.449  19.243   1.276  0.00  0.00    -0.291 N 
ATOM     12  N   UNL     1     -36.043  20.920   2.785  0.00  0.00    -0.169 N 
ATOM     13  C   UNL     1     -35.171  20.515   1.724  0.00  0.00    +0.319 C 
ATOM     14  H   UNL     1     -36.186  18.744   1.697  0.00  0.00    +0.151 HD
ATOM     15  H   UNL     1     -36.727  20.276   3.078  0.00  0.00    +0.178 HD
BRANCH  11  16
ATOM     16  C   UNL     1     -34.698  18.606   0.209  0.00  0.00    +0.058 C 
ATOM     17  C   UNL     1     -34.543  19.595  -0.952  0.00  0.00    +0.020 C 
ATOM     18  C   UNL     1     -35.452  17.360  -0.268  0.00  0.00    +0.020 C 
ATOM     19  C   UNL     1     -33.315  18.202   0.734  0.00  0.00    +0.020 C 
ENDBRANCH  11  16
ENDBRANCH   7  12
ENDBRANCH   1   7
BRANCH   5  22
ATOM     20  O   UNL     1     -40.607  21.134   0.906  0.00  0.00    -0.126 OA
ATOM     21  O   UNL     1     -40.537  22.918  -0.372  0.00  0.00    -0.126 OA
ATOM     22  N   UNL     1     -40.246  22.317   0.690  0.00  0.00    +0.058 N 
ENDBRANCH   5  22
BRANCH   2  23
ATOM     23  N   UNL     1     -37.245  25.018   4.602  0.00  0.00    -0.311 N 
ATOM     24  H   UNL     1     -37.654  24.989   5.497  0.00  0.00    +0.152 HD
BRANCH  23  25
ATOM     25  C   UNL     1     -36.039  25.739   4.553  0.00  0.00    +0.048 C 
ATOM     26  C   UNL     1     -35.112  25.626   5.591  0.00  0.00    +0.014 C 
ATOM     27  C   UNL     1     -35.764  26.572   3.466  0.00  0.00    +0.014 C 
ATOM     28  C   UNL     1     -33.644  27.174   4.456  0.00  0.00    -0.022 C 
ATOM     29  C   UNL     1     -33.916  26.343   5.543  0.00  0.00    -0.003 C 
ATOM     30  C   UNL     1     -34.568  27.288   3.417  0.00  0.00    -0.003 C 
ATOM     31  C   UNL     1     -32.365  27.940   4.404  0.00  0.00    +0.031 C 
ENDBRANCH  23  25
ENDBRANCH   2  23
TORSDOF 6
ENDMDL
MODEL 3
REMARK VINA RESULT:      -6.6      3.325      7.423
REMARK  Name = 5312142
REMARK  6 active torsions:
REMARK  status: ('A' for Active; 'I' for Inactive)
REMARK    1  A    between atoms: C_1  and  S_7
REMARK    2  A    between atoms: C_2  and  N_23
REMARK    3  A    between atoms: C_5  and  N_22
REMARK    4  A    between atoms: S_7  and  N_12
REMARK    5  A    between atoms: N_11  and  C_16
REMARK    6  A    between atoms: N_23  and  C_25
REMARK                            x       y       z     vdW  Elec       q    Type
REMARK                         _______ _______ _______ _____ _____    ______ ____
ROOT
ATOM      1  C   UNL     1     -37.207  24.075   3.482  0.00  0.00    +0.140 C 
ATOM      2  C   UNL     1     -37.272  22.809   2.920  0.00  0.00    +0.068 C 
ATOM      3  C   UNL     1     -38.243  24.984   3.323  0.00  0.00    +0.046 C 
ATOM      4  C   UNL     1     -38.400  22.442   2.185  0.00  0.00    +0.018 C 
ATOM      5  C   UNL     1     -39.369  24.618   2.587  0.00  0.00    +0.144 C 
ATOM      6  C   UNL     1     -39.448  23.348   2.018  0.00  0.00    +0.025 C 
ENDROOT
BRANCH   1   7
ATOM      7  S   UNL     1     -35.797  24.576   4.421  0.00  0.00    +0.078 S 
ATOM      8  O   UNL     1     -34.609  24.084   3.750  0.00  0.00    -0.150 OA
ATOM      9  O   UNL     1     -36.063  24.217   5.801  0.00  0.00    -0.150 OA
BRANCH   7  12
ATOM     10  O   UNL     1     -34.308  26.558   2.551  0.00  0.00    -0.251 OA
ATOM     11  N   UNL     1     -35.394  28.401   3.427  0.00  0.00    -0.291 N 
ATOM     12  N   UNL     1     -35.880  26.275   4.255  0.00  0.00    -0.169 N 
ATOM     13  C   UNL     1     -35.113  27.056   3.332  0.00  0.00    +0.319 C 
ATOM     14  H   UNL     1     -36.059  28.700   4.088  0.00  0.00    +0.151 HD
ATOM     15  H   UNL     1     -36.506  26.756   4.843  0.00  0.00    +0.178 HD
BRANCH  11  16
ATOM     16  C   UNL     1     -34.748  29.397   2.590  0.00  0.00    +0.058 C 
ATOM     17  C   UNL     1     -35.047  29.084   1.119  0.00  0.00    +0.020 C 
ATOM     18  C   UNL     1     -33.235  29.356   2.831  0.00  0.00    +0.020 C 
ATOM     19  C   UNL     1     -35.289  30.786   2.945  0.00  0.00    +0.020 C 
ENDBRANCH  11  16
ENDBRANCH   7  12
ENDBRANCH   1   7
BRANCH   5  22
ATOM     20  O   UNL     1     -40.346  26.677   2.938  0.00  0.00    -0.126 OA
ATOM     21  O   UNL     1     -41.442  25.190   1.752  0.00  0.00    -0.126 OA
ATOM     22  N   UNL     1     -40.437  25.539   2.417  0.00  0.00    +0.058 N 
ENDBRANCH   5  22
BRANCH   2  23
ATOM     23  N   UNL     1     -36.225  21.874   3.075  0.00  0.00    -0.311 N 
ATOM     24  H   UNL     1     -36.146  21.517   3.989  0.00  0.00    +0.152 HD
BRANCH  23  25
ATOM     25  C   UNL     1     -35.273  21.354   2.179  0.00  0.00    +0.048 C 
ATOM     26  C   UNL     1     -34.766  22.153   1.153  0.00  0.00    +0.014 C 
ATOM     27  C   UNL     1     -34.833  20.035   2.312  0.00  0.00    +0.014 C 
ATOM     28  C   UNL     1     -33.384  20.319   0.400  0.00  0.00    -0.022 C 
ATOM     29  C   UNL     1     -33.822  21.637   0.265  0.00  0.00    -0.003 C 
ATOM     30  C   UNL     1     -33.890  19.518   1.425  0.00  0.00    -0.003 C 
ATOM     31  C   UNL     1     -32.376  19.767  -0.550  0.00  0.00    +0.031 C 
ENDBRANCH  23  25
ENDBRANCH   2  23
TORSDOF 6
ENDMDL
MODEL 4
REMARK VINA RESULT:      -6.6      3.125      7.694
REMARK  Name = 5312142
REMARK  6 active torsions:
REMARK  status: ('A' for Active; 'I' for Inactive)
REMARK    1  A    between atoms: C_1  and  S_7
REMARK    2  A    between atoms: C_2  and  N_23
REMARK    3  A    between atoms: C_5  and  N_22
REMARK    4  A    between atoms: S_7  and  N_12
REMARK    5  A    between atoms: N_11  and  C_16
REMARK    6  A    between atoms: N_23  and  C_25
REMARK                            x       y       z     vdW  Elec       q    Type
REMARK                         _______ _______ _______ _____ _____    ______ ____
ROOT
ATOM      1  C   UNL     1     -36.911  23.198   3.358  0.00  0.00    +0.140 C 
ATOM      2  C   UNL     1     -36.200  22.044   3.656  0.00  0.00    +0.068 C 
ATOM      3  C   UNL     1     -36.631  24.398   3.996  0.00  0.00    +0.046 C 
ATOM      4  C   UNL     1     -35.184  22.093   4.611  0.00  0.00    +0.018 C 
ATOM      5  C   UNL     1     -35.616  24.445   4.953  0.00  0.00    +0.144 C 
ATOM      6  C   UNL     1     -34.893  23.293   5.260  0.00  0.00    +0.025 C 
ENDROOT
BRANCH   1   7
ATOM      7  S   UNL     1     -38.202  23.178   2.153  0.00  0.00    +0.078 S 
ATOM      8  O   UNL     1     -38.945  21.941   2.307  0.00  0.00    -0.150 OA
ATOM      9  O   UNL     1     -37.594  23.517   0.881  0.00  0.00    -0.150 OA
BRANCH   7  12
ATOM     10  O   UNL     1     -40.705  24.550   0.929  0.00  0.00    -0.251 OA
ATOM     11  N   UNL     1     -40.879  26.069   2.662  0.00  0.00    -0.291 N 
ATOM     12  N   UNL     1     -39.165  24.487   2.683  0.00  0.00    -0.169 N 
ATOM     13  C   UNL     1     -40.303  25.012   1.993  0.00  0.00    +0.319 C 
ATOM     14  H   UNL     1     -40.479  26.364   3.512  0.00  0.00    +0.151 HD
ATOM     15  H   UNL     1     -38.914  24.916   3.533  0.00  0.00    +0.178 HD
BRANCH  11  16
ATOM     16  C   UNL     1     -42.052  26.766   2.166  0.00  0.00    +0.058 C 
ATOM     17  C   UNL     1     -41.670  27.552   0.905  0.00  0.00    +0.020 C 
ATOM     18  C   UNL     1     -42.563  27.730   3.243  0.00  0.00    +0.020 C 
ATOM     19  C   UNL     1     -43.144  25.744   1.829  0.00  0.00    +0.020 C 
ENDBRANCH  11  16
ENDBRANCH   7  12
ENDBRANCH   1   7
BRANCH   5  22
ATOM     20  O   UNL     1     -34.166  25.843   6.074  0.00  0.00    -0.126 OA
ATOM     21  O   UNL     1     -36.220  26.534   5.719  0.00  0.00    -0.126 OA
ATOM     22  N   UNL     1     -35.320  25.667   5.613  0.00  0.00    +0.058 N 
ENDBRANCH   5  22
BRANCH   2  23
ATOM     23  N   UNL     1     -36.474  20.817   3.013  0.00  0.00    -0.311 N 
ATOM     24  H   UNL     1     -37.255  20.344   3.382  0.00  0.00    +0.152 HD
BRANCH  23  25
ATOM     25  C   UNL     1     -35.853  20.140   1.949  0.00  0.00    +0.048 C 
ATOM     26  C   UNL     1     -34.478  19.898   1.980  0.00  0.00    +0.014 C 
ATOM     27  C   UNL     1     -36.608  19.708   0.856  0.00  0.00    +0.014 C 
ATOM     28  C   UNL     1     -34.618  18.796  -0.166  0.00  0.00    -0.022 C 
ATOM     29  C   UNL     1     -33.861  19.226   0.924  0.00  0.00    -0.003 C 
ATOM     30  C   UNL     1     -35.992  19.037  -0.199  0.00  0.00    -0.003 C 
ATOM     31  C   UNL     1     -33.959  18.078  -1.295  0.00  0.00    +0.031 C 
ENDBRANCH  23  25
ENDBRANCH   2  23
TORSDOF 6
ENDMDL
MODEL 5
REMARK VINA RESULT:      -6.5      4.532      9.076
REMARK  Name = 5312142
REMARK  6 active torsions:
REMARK  status: ('A' for Active; 'I' for Inactive)
REMARK    1  A    between atoms: C_1  and  S_7
REMARK    2  A    between atoms: C_2  and  N_23
REMARK    3  A    between atoms: C_5  and  N_22
REMARK    4  A    between atoms: S_7  and  N_12
REMARK    5  A    between atoms: N_11  and  C_16
REMARK    6  A    between atoms: N_23  and  C_25
REMARK                            x       y       z     vdW  Elec       q    Type
REMARK                         _______ _______ _______ _____ _____    ______ ____
ROOT
ATOM      1  C   UNL     1     -35.814  25.854   3.707  0.00  0.00    +0.140 C 
ATOM      2  C   UNL     1     -36.053  24.619   4.292  0.00  0.00    +0.068 C 
ATOM      3  C   UNL     1     -34.838  26.706   4.203  0.00  0.00    +0.046 C 
ATOM      4  C   UNL     1     -35.298  24.227   5.397  0.00  0.00    +0.018 C 
ATOM      5  C   UNL     1     -34.084  26.314   5.309  0.00  0.00    +0.144 C 
ATOM      6  C   UNL     1     -34.313  25.075   5.906  0.00  0.00    +0.025 C 
ENDROOT
BRANCH   1   7
ATOM      7  S   UNL     1     -36.748  26.386   2.305  0.00  0.00    +0.078 S 
ATOM      8  O   UNL     1     -38.141  26.479   2.699  0.00  0.00    -0.150 OA
ATOM      9  O   UNL     1     -36.354  25.542   1.193  0.00  0.00    -0.150 OA
BRANCH   7  12
ATOM     10  O   UNL     1     -37.723  28.781   0.585  0.00  0.00    -0.251 OA
ATOM     11  N   UNL     1     -35.965  30.132   1.239  0.00  0.00    -0.291 N 
ATOM     12  N   UNL     1     -36.119  27.958   2.070  0.00  0.00    -0.169 N 
ATOM     13  C   UNL     1     -36.694  28.963   1.228  0.00  0.00    +0.319 C 
ATOM     14  H   UNL     1     -35.151  30.177   1.791  0.00  0.00    +0.151 HD
ATOM     15  H   UNL     1     -35.294  28.190   2.553  0.00  0.00    +0.178 HD
BRANCH  11  16
ATOM     16  C   UNL     1     -36.349  31.301   0.469  0.00  0.00    +0.058 C 
ATOM     17  C   UNL     1     -35.278  32.386   0.638  0.00  0.00    +0.020 C 
ATOM     18  C   UNL     1     -37.699  31.822   0.976  0.00  0.00    +0.020 C 
ATOM     19  C   UNL     1     -36.468  30.918  -1.011  0.00  0.00    +0.020 C 
ENDBRANCH  11  16
ENDBRANCH   7  12
ENDBRANCH   1   7
BRANCH   5  22
ATOM     20  O   UNL     1     -32.486  26.851   6.882  0.00  0.00    -0.126 OA
ATOM     21  O   UNL     1     -32.821  28.241   5.216  0.00  0.00    -0.126 OA
ATOM     22  N   UNL     1     -33.082  27.177   5.827  0.00  0.00    +0.058 N 
ENDBRANCH   5  22
BRANCH   2  23
ATOM     23  N   UNL     1     -37.043  23.743   3.796  0.00  0.00    -0.311 N 
ATOM     24  H   UNL     1     -37.955  23.967   4.094  0.00  0.00    +0.152 HD
BRANCH  23  25
ATOM     25  C   UNL     1     -36.983  22.614   2.960  0.00  0.00    +0.048 C 
ATOM     26  C   UNL     1     -35.833  21.822   2.934  0.00  0.00    +0.014 C 
ATOM     27  C   UNL     1     -38.072  22.280   2.153  0.00  0.00    +0.014 C 
ATOM     28  C   UNL     1     -36.863  20.372   1.298  0.00  0.00    -0.022 C 
ATOM     29  C   UNL     1     -35.773  20.703   2.103  0.00  0.00    -0.003 C 
ATOM     30  C   UNL     1     -38.013  21.161   1.323  0.00  0.00    -0.003 C 
ATOM     31  C   UNL     1     -36.798  19.175   0.411  0.00  0.00    +0.031 C 
ENDBRANCH  23  25
ENDBRANCH   2  23
TORSDOF 6
ENDMDL
MODEL 6
REMARK VINA RESULT:      -6.5      3.176      5.132
REMARK  Name = 5312142
REMARK  6 active torsions:
REMARK  status: ('A' for Active; 'I' for Inactive)
REMARK    1  A    between atoms: C_1  and  S_7
REMARK    2  A    between atoms: C_2  and  N_23
REMARK    3  A    between atoms: C_5  and  N_22
REMARK    4  A    between atoms: S_7  and  N_12
REMARK    5  A    between atoms: N_11  and  C_16
REMARK    6  A    between atoms: N_23  and  C_25
REMARK                            x       y       z     vdW  Elec       q    Type
REMARK                         _______ _______ _______ _____ _____    ______ ____
ROOT
ATOM      1  C   UNL     1     -36.640  21.477   1.430  0.00  0.00    +0.140 C 
ATOM      2  C   UNL     1     -35.646  20.779   2.100  0.00  0.00    +0.068 C 
ATOM      3  C   UNL     1     -37.272  22.564   2.017  0.00  0.00    +0.046 C 
ATOM      4  C   UNL     1     -35.275  21.178   3.384  0.00  0.00    +0.018 C 
ATOM      5  C   UNL     1     -36.901  22.962   3.301  0.00  0.00    +0.144 C 
ATOM      6  C   UNL     1     -35.903  22.269   3.985  0.00  0.00    +0.025 C 
ENDROOT
BRANCH   1   7
ATOM      7  S   UNL     1     -37.138  21.005  -0.198  0.00  0.00    +0.078 S 
ATOM      8  O   UNL     1     -35.959  20.989  -1.043  0.00  0.00    -0.150 OA
ATOM      9  O   UNL     1     -38.280  21.830  -0.544  0.00  0.00    -0.150 OA
BRANCH   7  12
ATOM     10  O   UNL     1     -38.350  18.865  -2.094  0.00  0.00    -0.251 OA
ATOM     11  N   UNL     1     -38.545  17.296  -0.408  0.00  0.00    -0.291 N 
ATOM     12  N   UNL     1     -37.663  19.401   0.073  0.00  0.00    -0.169 N 
ATOM     13  C   UNL     1     -38.210  18.529  -0.922  0.00  0.00    +0.319 C 
ATOM     14  H   UNL     1     -38.393  17.125   0.549  0.00  0.00    +0.151 HD
ATOM     15  H   UNL     1     -37.584  19.049   0.989  0.00  0.00    +0.178 HD
BRANCH  11  16
ATOM     16  C   UNL     1     -39.112  16.236  -1.223  0.00  0.00    +0.058 C 
ATOM     17  C   UNL     1     -39.304  14.986  -0.355  0.00  0.00    +0.020 C 
ATOM     18  C   UNL     1     -38.159  15.922  -2.381  0.00  0.00    +0.020 C 
ATOM     19  C   UNL     1     -40.466  16.693  -1.779  0.00  0.00    +0.020 C 
ENDBRANCH  11  16
ENDBRANCH   7  12
ENDBRANCH   1   7
BRANCH   5  22
ATOM     20  O   UNL     1     -38.699  24.384   3.546  0.00  0.00    -0.126 OA
ATOM     21  O   UNL     1     -36.929  24.712   4.802  0.00  0.00    -0.126 OA
ATOM     22  N   UNL     1     -37.541  24.072   3.913  0.00  0.00    +0.058 N 
ENDBRANCH   5  22
BRANCH   2  23
ATOM     23  N   UNL     1     -34.995  19.672   1.513  0.00  0.00    -0.311 N 
ATOM     24  H   UNL     1     -35.592  18.908   1.340  0.00  0.00    +0.152 HD
BRANCH  23  25
ATOM     25  C   UNL     1     -33.661  19.446   1.127  0.00  0.00    +0.048 C 
ATOM     26  C   UNL     1     -33.031  18.244   1.454  0.00  0.00    +0.014 C 
ATOM     27  C   UNL     1     -32.963  20.424   0.416  0.00  0.00    +0.014 C 
ATOM     28  C   UNL     1     -31.012  19.000   0.361  0.00  0.00    -0.022 C 
ATOM     29  C   UNL     1     -31.708  18.021   1.071  0.00  0.00    -0.003 C 
ATOM     30  C   UNL     1     -31.641  20.202   0.033  0.00  0.00    -0.003 C 
ATOM     31  C   UNL     1     -29.598  18.761  -0.048  0.00  0.00    +0.031 C 
ENDBRANCH  23  25
ENDBRANCH   2  23
TORSDOF 6
ENDMDL
MODEL 7
REMARK VINA RESULT:      -6.5      4.326      9.038
REMARK  Name = 5312142
REMARK  6 active torsions:
REMARK  status: ('A' for Active; 'I' for Inactive)
REMARK    1  A    between atoms: C_1  and  S_7
REMARK    2  A    between atoms: C_2  and  N_23
REMARK    3  A    between atoms: C_5  and  N_22
REMARK    4  A    between atoms: S_7  and  N_12
REMARK    5  A    between atoms: N_11  and  C_16
REMARK    6  A    between atoms: N_23  and  C_25
REMARK                            x       y       z     vdW  Elec       q    Type
REMARK                         _______ _______ _______ _____ _____    ______ ____
ROOT
ATOM      1  C   UNL     1     -35.571  26.486   3.042  0.00  0.00    +0.140 C 
ATOM      2  C   UNL     1     -36.384  25.481   2.538  0.00  0.00    +0.068 C 
ATOM      3  C   UNL     1     -35.595  27.765   2.506  0.00  0.00    +0.046 C 
ATOM      4  C   UNL     1     -37.243  25.763   1.476  0.00  0.00    +0.018 C 
ATOM      5  C   UNL     1     -36.454  28.046   1.442  0.00  0.00    +0.144 C 
ATOM      6  C   UNL     1     -37.277  27.046   0.927  0.00  0.00    +0.025 C 
ENDROOT
BRANCH   1   7
ATOM      7  S   UNL     1     -34.471  26.170   4.388  0.00  0.00    +0.078 S 
ATOM      8  O   UNL     1     -33.651  25.024   4.041  0.00  0.00    -0.150 OA
ATOM      9  O   UNL     1     -35.276  26.159   5.594  0.00  0.00    -0.150 OA
BRANCH   7  12
ATOM     10  O   UNL     1     -32.189  27.165   6.244  0.00  0.00    -0.251 OA
ATOM     11  N   UNL     1     -31.878  29.110   5.034  0.00  0.00    -0.291 N 
ATOM     12  N   UNL     1     -33.510  27.583   4.364  0.00  0.00    -0.169 N 
ATOM     13  C   UNL     1     -32.483  27.903   5.308  0.00  0.00    +0.319 C 
ATOM     14  H   UNL     1     -32.188  29.628   4.257  0.00  0.00    +0.151 HD
ATOM     15  H   UNL     1     -33.678  28.231   3.642  0.00  0.00    +0.178 HD
BRANCH  11  16
ATOM     16  C   UNL     1     -30.802  29.649   5.846  0.00  0.00    +0.058 C 
ATOM     17  C   UNL     1     -30.366  30.999   5.265  0.00  0.00    +0.020 C 
ATOM     18  C   UNL     1     -29.620  28.673   5.833  0.00  0.00    +0.020 C 
ATOM     19  C   UNL     1     -31.298  29.839   7.284  0.00  0.00    +0.020 C 
ENDBRANCH  11  16
ENDBRANCH   7  12
ENDBRANCH   1   7
BRANCH   5  22
ATOM     20  O   UNL     1     -37.599  29.916   0.728  0.00  0.00    -0.126 OA
ATOM     21  O   UNL     1     -35.410  29.903   0.559  0.00  0.00    -0.126 OA
ATOM     22  N   UNL     1     -36.489  29.351   0.884  0.00  0.00    +0.058 N 
ENDBRANCH   5  22
BRANCH   2  23
ATOM     23  N   UNL     1     -36.369  24.176   3.076  0.00  0.00    -0.311 N 
ATOM     24  H   UNL     1     -36.868  24.090   3.920  0.00  0.00    +0.152 HD
BRANCH  23  25
ATOM     25  C   UNL     1     -35.781  22.974   2.641  0.00  0.00    +0.048 C 
ATOM     26  C   UNL     1     -35.853  21.830   3.439  0.00  0.00    +0.014 C 
ATOM     27  C   UNL     1     -35.121  22.921   1.411  0.00  0.00    +0.014 C 
ATOM     28  C   UNL     1     -34.611  20.588   1.779  0.00  0.00    -0.022 C 
ATOM     29  C   UNL     1     -35.270  20.638   3.008  0.00  0.00    -0.003 C 
ATOM     30  C   UNL     1     -34.538  21.730   0.980  0.00  0.00    -0.003 C 
ATOM     31  C   UNL     1     -33.987  19.314   1.318  0.00  0.00    +0.031 C 
ENDBRANCH  23  25
ENDBRANCH   2  23
TORSDOF 6
ENDMDL
MODEL 8
REMARK VINA RESULT:      -6.5      3.539      6.819
REMARK  Name = 5312142
REMARK  6 active torsions:
REMARK  status: ('A' for Active; 'I' for Inactive)
REMARK    1  A    between atoms: C_1  and  S_7
REMARK    2  A    between atoms: C_2  and  N_23
REMARK    3  A    between atoms: C_5  and  N_22
REMARK    4  A    between atoms: S_7  and  N_12
REMARK    5  A    between atoms: N_11  and  C_16
REMARK    6  A    between atoms: N_23  and  C_25
REMARK                            x       y       z     vdW  Elec       q    Type
REMARK                         _______ _______ _______ _____ _____    ______ ____
ROOT
ATOM      1  C   UNL     1     -37.311  24.369   3.709  0.00  0.00    +0.140 C 
ATOM      2  C   UNL     1     -37.439  23.211   2.956  0.00  0.00    +0.068 C 
ATOM      3  C   UNL     1     -38.183  25.435   3.540  0.00  0.00    +0.046 C 
ATOM      4  C   UNL     1     -38.464  23.116   2.015  0.00  0.00    +0.018 C 
ATOM      5  C   UNL     1     -39.207  25.340   2.598  0.00  0.00    +0.144 C 
ATOM      6  C   UNL     1     -39.348  24.181   1.836  0.00  0.00    +0.025 C 
ENDROOT
BRANCH   1   7
ATOM      7  S   UNL     1     -36.027  24.528   4.912  0.00  0.00    +0.078 S 
ATOM      8  O   UNL     1     -35.939  23.280   5.646  0.00  0.00    -0.150 OA
ATOM      9  O   UNL     1     -36.260  25.777   5.612  0.00  0.00    -0.150 OA
BRANCH   7  12
ATOM     10  O   UNL     1     -34.967  26.901   3.213  0.00  0.00    -0.251 OA
ATOM     11  N   UNL     1     -33.139  25.708   2.452  0.00  0.00    -0.291 N 
ATOM     12  N   UNL     1     -34.654  24.693   3.907  0.00  0.00    -0.169 N 
ATOM     13  C   UNL     1     -34.299  25.872   3.176  0.00  0.00    +0.319 C 
ATOM     14  H   UNL     1     -32.677  24.839   2.490  0.00  0.00    +0.151 HD
ATOM     15  H   UNL     1     -34.061  23.913   3.823  0.00  0.00    +0.178 HD
BRANCH  11  16
ATOM     16  C   UNL     1     -32.571  26.764   1.634  0.00  0.00    +0.058 C 
ATOM     17  C   UNL     1     -31.390  26.198   0.836  0.00  0.00    +0.020 C 
ATOM     18  C   UNL     1     -32.085  27.901   2.541  0.00  0.00    +0.020 C 
ATOM     19  C   UNL     1     -33.641  27.293   0.672  0.00  0.00    +0.020 C 
ENDBRANCH  11  16
ENDBRANCH   7  12
ENDBRANCH   1   7
BRANCH   5  22
ATOM     20  O   UNL     1     -40.866  26.749   3.360  0.00  0.00    -0.126 OA
ATOM     21  O   UNL     1     -40.120  27.023   1.314  0.00  0.00    -0.126 OA
ATOM     22  N   UNL     1     -40.107  26.423   2.415  0.00  0.00    +0.058 N 
ENDBRANCH   5  22
BRANCH   2  23
ATOM     23  N   UNL     1     -36.558  22.120   3.119  0.00  0.00    -0.311 N 
ATOM     24  H   UNL     1     -36.674  21.643   3.973  0.00  0.00    +0.152 HD
BRANCH  23  25
ATOM     25  C   UNL     1     -35.549  21.581   2.301  0.00  0.00    +0.048 C 
ATOM     26  C   UNL     1     -35.184  20.239   2.431  0.00  0.00    +0.014 C 
ATOM     27  C   UNL     1     -34.908  22.385   1.357  0.00  0.00    +0.014 C 
ATOM     28  C   UNL     1     -33.543  20.511   0.677  0.00  0.00    -0.022 C 
ATOM     29  C   UNL     1     -34.182  19.705   1.620  0.00  0.00    -0.003 C 
ATOM     30  C   UNL     1     -33.907  21.851   0.546  0.00  0.00    -0.003 C 
ATOM     31  C   UNL     1     -32.473  19.939  -0.189  0.00  0.00    +0.031 C 
ENDBRANCH  23  25
ENDBRANCH   2  23
TORSDOF 6
ENDMDL
MODEL 9
REMARK VINA RESULT:      -6.5      1.804      2.213
REMARK  Name = 5312142
REMARK  6 active torsions:
REMARK  status: ('A' for Active; 'I' for Inactive)
REMARK    1  A    between atoms: C_1  and  S_7
REMARK    2  A    between atoms: C_2  and  N_23
REMARK    3  A    between atoms: C_5  and  N_22
REMARK    4  A    between atoms: S_7  and  N_12
REMARK    5  A    between atoms: N_11  and  C_16
REMARK    6  A    between atoms: N_23  and  C_25
REMARK                            x       y       z     vdW  Elec       q    Type
REMARK                         _______ _______ _______ _____ _____    ______ ____
ROOT
ATOM      1  C   UNL     1     -37.288  21.932   2.246  0.00  0.00    +0.140 C 
ATOM      2  C   UNL     1     -37.810  22.972   3.000  0.00  0.00    +0.068 C 
ATOM      3  C   UNL     1     -38.024  21.344   1.228  0.00  0.00    +0.046 C 
ATOM      4  C   UNL     1     -39.097  23.436   2.728  0.00  0.00    +0.018 C 
ATOM      5  C   UNL     1     -39.312  21.807   0.958  0.00  0.00    +0.144 C 
ATOM      6  C   UNL     1     -39.848  22.853   1.707  0.00  0.00    +0.025 C 
ENDROOT
BRANCH   1   7
ATOM      7  S   UNL     1     -35.661  21.317   2.558  0.00  0.00    +0.078 S 
ATOM      8  O   UNL     1     -35.562  20.999   3.970  0.00  0.00    -0.150 OA
ATOM      9  O   UNL     1     -34.735  22.252   1.948  0.00  0.00    -0.150 OA
BRANCH   7  12
ATOM     10  O   UNL     1     -33.393  19.678   1.212  0.00  0.00    -0.251 OA
ATOM     11  N   UNL     1     -34.853  18.077   0.406  0.00  0.00    -0.291 N 
ATOM     12  N   UNL     1     -35.679  19.869   1.650  0.00  0.00    -0.169 N 
ATOM     13  C   UNL     1     -34.529  19.231   1.086  0.00  0.00    +0.319 C 
ATOM     14  H   UNL     1     -35.797  17.803   0.363  0.00  0.00    +0.151 HD
ATOM     15  H   UNL     1     -36.552  19.440   1.503  0.00  0.00    +0.178 HD
BRANCH  11  16
ATOM     16  C   UNL     1     -33.857  17.248  -0.249  0.00  0.00    +0.058 C 
ATOM     17  C   UNL     1     -34.400  15.820  -0.376  0.00  0.00    +0.020 C 
ATOM     18  C   UNL     1     -32.573  17.242   0.588  0.00  0.00    +0.020 C 
ATOM     19  C   UNL     1     -33.561  17.816  -1.642  0.00  0.00    +0.020 C 
ENDBRANCH  11  16
ENDBRANCH   7  12
ENDBRANCH   1   7
BRANCH   5  22
ATOM     20  O   UNL     1     -39.602  21.184  -1.243  0.00  0.00    -0.126 OA
ATOM     21  O   UNL     1     -41.204  20.738   0.189  0.00  0.00    -0.126 OA
ATOM     22  N   UNL     1     -40.076  21.214  -0.082  0.00  0.00    +0.058 N 
ENDBRANCH   5  22
BRANCH   2  23
ATOM     23  N   UNL     1     -37.071  23.579   4.039  0.00  0.00    -0.311 N 
ATOM     24  H   UNL     1     -37.282  23.226   4.933  0.00  0.00    +0.152 HD
BRANCH  23  25
ATOM     25  C   UNL     1     -36.091  24.589   4.046  0.00  0.00    +0.048 C 
ATOM     26  C   UNL     1     -35.031  24.531   4.953  0.00  0.00    +0.014 C 
ATOM     27  C   UNL     1     -36.176  25.654   3.146  0.00  0.00    +0.014 C 
ATOM     28  C   UNL     1     -34.148  26.596   4.060  0.00  0.00    -0.022 C 
ATOM     29  C   UNL     1     -34.061  25.533   4.960  0.00  0.00    -0.003 C 
ATOM     30  C   UNL     1     -35.206  26.655   3.152  0.00  0.00    -0.003 C 
ATOM     31  C   UNL     1     -33.110  27.667   4.067  0.00  0.00    +0.031 C 
ENDBRANCH  23  25
ENDBRANCH   2  23
TORSDOF 6
ENDMDL
