MODEL 1
REMARK VINA RESULT:      -6.2      0.000      0.000
REMARK  Name = 5281692
REMARK  6 active torsions:
REMARK  status: ('A' for Active; 'I' for Inactive)
REMARK    1  A    between atoms: C_3  and  C_12
REMARK    2  A    between atoms: C_6  and  O_24
REMARK    3  A    between atoms: C_10  and  O_26
REMARK    4  A    between atoms: C_15  and  O_18
REMARK    5  A    between atoms: C_16  and  O_20
REMARK    6  A    between atoms: C_17  and  O_22
REMARK                            x       y       z     vdW  Elec       q    Type
REMARK                         _______ _______ _______ _____ _____    ______ ____
ROOT
ATOM      1  O   UNL     1     -35.472  23.165   2.738  0.00  0.00    -0.450 OA
ATOM      2  O   UNL     1     -35.201  22.527   6.754  0.00  0.00    -0.283 OA
ATOM      3  C   UNL     1     -35.445  21.884   3.266  0.00  0.00    +0.182 A 
ATOM      4  C   UNL     1     -35.330  24.078   4.981  0.00  0.00    +0.077 A 
ATOM      5  C   UNL     1     -35.421  24.230   3.600  0.00  0.00    +0.152 A 
ATOM      6  C   UNL     1     -35.350  21.602   4.578  0.00  0.00    +0.208 A 
ATOM      7  C   UNL     1     -35.286  22.721   5.548  0.00  0.00    +0.235 A 
ATOM      8  C   UNL     1     -35.280  25.201   5.812  0.00  0.00    +0.009 C 
ATOM      9  C   UNL     1     -35.462  25.505   3.038  0.00  0.00    +0.074 C 
ATOM     10  C   UNL     1     -35.412  26.629   3.864  0.00  0.00    +0.137 C 
ATOM     11  C   UNL     1     -35.321  26.477   5.248  0.00  0.00    +0.037 C 
ENDROOT
BRANCH   3  12
ATOM     12  C   UNL     1     -35.506  20.834   2.233  0.00  0.00    +0.044 C 
ATOM     13  C   UNL     1     -34.338  20.193   1.821  0.00  0.00    +0.043 C 
ATOM     14  C   UNL     1     -36.732  20.479   1.670  0.00  0.00    +0.043 C 
ATOM     15  C   UNL     1     -36.789  19.483   0.695  0.00  0.00    +0.171 C 
ATOM     16  C   UNL     1     -34.395  19.198   0.845  0.00  0.00    +0.171 C 
ATOM     17  C   UNL     1     -35.620  18.843   0.282  0.00  0.00    +0.202 C 
BRANCH  15  18
ATOM     18  O   UNL     1     -37.993  19.146   0.153  0.00  0.00    -0.503 OA
ATOM     19  H   UNL     1     -38.062  18.976  -0.766  0.00  0.00    +0.292 HD
ENDBRANCH  15  18
BRANCH  16  20
ATOM     20  O   UNL     1     -33.247  18.581   0.451  0.00  0.00    -0.503 OA
ATOM     21  H   UNL     1     -32.504  19.092   0.196  0.00  0.00    +0.292 HD
ENDBRANCH  16  20
BRANCH  17  22
ATOM     22  O   UNL     1     -35.678  17.869  -0.671  0.00  0.00    -0.501 OA
ATOM     23  H   UNL     1     -36.508  17.560  -0.975  0.00  0.00    +0.292 HD
ENDBRANCH  17  22
ENDBRANCH   3  12
BRANCH   6  24
ATOM     24  O   UNL     1     -35.291  20.316   5.069  0.00  0.00    -0.501 OA
ATOM     25  H   UNL     1     -34.949  20.157   5.927  0.00  0.00    +0.292 HD
ENDBRANCH   6  24
BRANCH  10  26
ATOM     26  O   UNL     1     -35.452  27.876   3.319  0.00  0.00    -0.505 OA
ATOM     27  H   UNL     1     -36.256  28.208   2.971  0.00  0.00    +0.292 HD
ENDBRANCH  10  26
TORSDOF 6
ENDMDL
MODEL 2
REMARK VINA RESULT:      -6.2      0.009      1.774
REMARK  Name = 5281692
REMARK  6 active torsions:
REMARK  status: ('A' for Active; 'I' for Inactive)
REMARK    1  A    between atoms: C_3  and  C_12
REMARK    2  A    between atoms: C_6  and  O_24
REMARK    3  A    between atoms: C_10  and  O_26
REMARK    4  A    between atoms: C_15  and  O_18
REMARK    5  A    between atoms: C_16  and  O_20
REMARK    6  A    between atoms: C_17  and  O_22
REMARK                            x       y       z     vdW  Elec       q    Type
REMARK                         _______ _______ _______ _____ _____    ______ ____
ROOT
ATOM      1  O   UNL     1     -35.475  23.167   2.743  0.00  0.00    -0.450 OA
ATOM      2  O   UNL     1     -35.202  22.529   6.758  0.00  0.00    -0.283 OA
ATOM      3  C   UNL     1     -35.448  21.886   3.271  0.00  0.00    +0.182 A 
ATOM      4  C   UNL     1     -35.331  24.080   4.986  0.00  0.00    +0.077 A 
ATOM      5  C   UNL     1     -35.423  24.232   3.605  0.00  0.00    +0.152 A 
ATOM      6  C   UNL     1     -35.352  21.604   4.583  0.00  0.00    +0.208 A 
ATOM      7  C   UNL     1     -35.287  22.723   5.553  0.00  0.00    +0.235 A 
ATOM      8  C   UNL     1     -35.280  25.203   5.816  0.00  0.00    +0.009 C 
ATOM      9  C   UNL     1     -35.464  25.507   3.043  0.00  0.00    +0.074 C 
ATOM     10  C   UNL     1     -35.413  26.631   3.868  0.00  0.00    +0.137 C 
ATOM     11  C   UNL     1     -35.322  26.479   5.253  0.00  0.00    +0.037 C 
ENDROOT
BRANCH   3  12
ATOM     12  C   UNL     1     -35.510  20.836   2.238  0.00  0.00    +0.044 C 
ATOM     13  C   UNL     1     -36.736  20.482   1.677  0.00  0.00    +0.043 C 
ATOM     14  C   UNL     1     -34.342  20.198   1.820  0.00  0.00    +0.043 C 
ATOM     15  C   UNL     1     -34.401  19.207   0.840  0.00  0.00    +0.171 C 
ATOM     16  C   UNL     1     -36.796  19.490   0.698  0.00  0.00    +0.171 C 
ATOM     17  C   UNL     1     -35.628  18.853   0.280  0.00  0.00    +0.202 C 
BRANCH  15  18
ATOM     18  O   UNL     1     -33.252  18.592   0.440  0.00  0.00    -0.503 OA
ATOM     19  H   UNL     1     -32.428  19.028   0.539  0.00  0.00    +0.292 HD
ENDBRANCH  15  18
BRANCH  16  20
ATOM     20  O   UNL     1     -38.000  19.153   0.159  0.00  0.00    -0.503 OA
ATOM     21  H   UNL     1     -38.439  19.748  -0.417  0.00  0.00    +0.292 HD
ENDBRANCH  16  20
BRANCH  17  22
ATOM     22  O   UNL     1     -35.685  17.884  -0.679  0.00  0.00    -0.501 OA
ATOM     23  H   UNL     1     -35.135  17.940  -1.435  0.00  0.00    +0.292 HD
ENDBRANCH  17  22
ENDBRANCH   3  12
BRANCH   6  24
ATOM     24  O   UNL     1     -35.293  20.318   5.074  0.00  0.00    -0.501 OA
ATOM     25  H   UNL     1     -35.787  19.636   4.662  0.00  0.00    +0.292 HD
ENDBRANCH   6  24
BRANCH  10  26
ATOM     26  O   UNL     1     -35.454  27.878   3.323  0.00  0.00    -0.505 OA
ATOM     27  H   UNL     1     -34.663  28.367   3.215  0.00  0.00    +0.292 HD
ENDBRANCH  10  26
TORSDOF 6
ENDMDL
MODEL 3
REMARK VINA RESULT:      -6.2      2.454      7.300
REMARK  Name = 5281692
REMARK  6 active torsions:
REMARK  status: ('A' for Active; 'I' for Inactive)
REMARK    1  A    between atoms: C_3  and  C_12
REMARK    2  A    between atoms: C_6  and  O_24
REMARK    3  A    between atoms: C_10  and  O_26
REMARK    4  A    between atoms: C_15  and  O_18
REMARK    5  A    between atoms: C_16  and  O_20
REMARK    6  A    between atoms: C_17  and  O_22
REMARK                            x       y       z     vdW  Elec       q    Type
REMARK                         _______ _______ _______ _____ _____    ______ ____
ROOT
ATOM      1  O   UNL     1     -34.789  23.778   3.345  0.00  0.00    -0.450 OA
ATOM      2  O   UNL     1     -38.828  24.312   3.414  0.00  0.00    -0.283 OA
ATOM      3  C   UNL     1     -35.356  24.936   3.853  0.00  0.00    +0.182 A 
ATOM      4  C   UNL     1     -37.006  22.915   2.871  0.00  0.00    +0.077 A 
ATOM      5  C   UNL     1     -35.619  22.795   2.873  0.00  0.00    +0.152 A 
ATOM      6  C   UNL     1     -36.678  25.180   3.900  0.00  0.00    +0.208 A 
ATOM      7  C   UNL     1     -37.615  24.148   3.395  0.00  0.00    +0.235 A 
ATOM      8  C   UNL     1     -37.804  21.880   2.375  0.00  0.00    +0.009 C 
ATOM      9  C   UNL     1     -35.018  21.638   2.378  0.00  0.00    +0.074 C 
ATOM     10  C   UNL     1     -35.810  20.602   1.883  0.00  0.00    +0.137 C 
ATOM     11  C   UNL     1     -37.200  20.723   1.882  0.00  0.00    +0.037 C 
ENDROOT
BRANCH   3  12
ATOM     12  C   UNL     1     -34.354  25.908   4.326  0.00  0.00    +0.044 C 
ATOM     13  C   UNL     1     -33.713  26.747   3.415  0.00  0.00    +0.043 C 
ATOM     14  C   UNL     1     -34.049  25.992   5.685  0.00  0.00    +0.043 C 
ATOM     15  C   UNL     1     -33.104  26.915   6.132  0.00  0.00    +0.171 C 
ATOM     16  C   UNL     1     -32.766  27.669   3.862  0.00  0.00    +0.171 C 
ATOM     17  C   UNL     1     -32.462  27.753   5.220  0.00  0.00    +0.202 C 
BRANCH  15  18
ATOM     18  O   UNL     1     -32.816  26.987   7.462  0.00  0.00    -0.503 OA
ATOM     19  H   UNL     1     -32.178  27.600   7.771  0.00  0.00    +0.292 HD
ENDBRANCH  15  18
BRANCH  16  20
ATOM     20  O   UNL     1     -32.146  28.481   2.961  0.00  0.00    -0.503 OA
ATOM     21  H   UNL     1     -32.655  29.010   2.379  0.00  0.00    +0.292 HD
ENDBRANCH  16  20
BRANCH  17  22
ATOM     22  O   UNL     1     -31.537  28.655   5.658  0.00  0.00    -0.501 OA
ATOM     23  H   UNL     1     -31.341  29.412   5.143  0.00  0.00    +0.292 HD
ENDBRANCH  17  22
ENDBRANCH   3  12
BRANCH   6  24
ATOM     24  O   UNL     1     -37.209  26.357   4.381  0.00  0.00    -0.501 OA
ATOM     25  H   UNL     1     -37.906  26.780   3.919  0.00  0.00    +0.292 HD
ENDBRANCH   6  24
BRANCH  10  26
ATOM     26  O   UNL     1     -35.226  19.470   1.400  0.00  0.00    -0.505 OA
ATOM     27  H   UNL     1     -34.388  19.203   1.721  0.00  0.00    +0.292 HD
ENDBRANCH  10  26
TORSDOF 6
ENDMDL
MODEL 4
REMARK VINA RESULT:      -6.2      2.451      7.310
REMARK  Name = 5281692
REMARK  6 active torsions:
REMARK  status: ('A' for Active; 'I' for Inactive)
REMARK    1  A    between atoms: C_3  and  C_12
REMARK    2  A    between atoms: C_6  and  O_24
REMARK    3  A    between atoms: C_10  and  O_26
REMARK    4  A    between atoms: C_15  and  O_18
REMARK    5  A    between atoms: C_16  and  O_20
REMARK    6  A    between atoms: C_17  and  O_22
REMARK                            x       y       z     vdW  Elec       q    Type
REMARK                         _______ _______ _______ _____ _____    ______ ____
ROOT
ATOM      1  O   UNL     1     -34.789  23.787   3.341  0.00  0.00    -0.450 OA
ATOM      2  O   UNL     1     -38.830  24.304   3.422  0.00  0.00    -0.283 OA
ATOM      3  C   UNL     1     -35.359  24.943   3.851  0.00  0.00    +0.182 A 
ATOM      4  C   UNL     1     -37.004  22.915   2.873  0.00  0.00    +0.077 A 
ATOM      5  C   UNL     1     -35.616  22.800   2.871  0.00  0.00    +0.152 A 
ATOM      6  C   UNL     1     -36.683  25.181   3.902  0.00  0.00    +0.208 A 
ATOM      7  C   UNL     1     -37.617  24.145   3.400  0.00  0.00    +0.235 A 
ATOM      8  C   UNL     1     -37.798  21.877   2.380  0.00  0.00    +0.009 C 
ATOM      9  C   UNL     1     -35.011  21.646   2.375  0.00  0.00    +0.074 C 
ATOM     10  C   UNL     1     -35.800  20.607   1.882  0.00  0.00    +0.137 C 
ATOM     11  C   UNL     1     -37.191  20.722   1.885  0.00  0.00    +0.037 C 
ENDROOT
BRANCH   3  12
ATOM     12  C   UNL     1     -34.361  25.919   4.321  0.00  0.00    +0.044 C 
ATOM     13  C   UNL     1     -34.046  25.997   5.677  0.00  0.00    +0.043 C 
ATOM     14  C   UNL     1     -33.727  26.765   3.409  0.00  0.00    +0.043 C 
ATOM     15  C   UNL     1     -32.780  27.686   3.854  0.00  0.00    +0.171 C 
ATOM     16  C   UNL     1     -33.099  26.920   6.123  0.00  0.00    +0.171 C 
ATOM     17  C   UNL     1     -32.466  27.764   5.211  0.00  0.00    +0.202 C 
BRANCH  15  18
ATOM     18  O   UNL     1     -32.169  28.506   2.953  0.00  0.00    -0.503 OA
ATOM     19  H   UNL     1     -31.395  28.219   2.508  0.00  0.00    +0.292 HD
ENDBRANCH  15  18
BRANCH  16  20
ATOM     20  O   UNL     1     -32.802  26.986   7.450  0.00  0.00    -0.503 OA
ATOM     21  H   UNL     1     -33.486  26.919   8.087  0.00  0.00    +0.292 HD
ENDBRANCH  16  20
BRANCH  17  22
ATOM     22  O   UNL     1     -31.539  28.665   5.645  0.00  0.00    -0.501 OA
ATOM     23  H   UNL     1     -31.218  29.324   5.062  0.00  0.00    +0.292 HD
ENDBRANCH  17  22
ENDBRANCH   3  12
BRANCH   6  24
ATOM     24  O   UNL     1     -37.217  26.356   4.384  0.00  0.00    -0.501 OA
ATOM     25  H   UNL     1     -37.879  26.805   3.896  0.00  0.00    +0.292 HD
ENDBRANCH   6  24
BRANCH  10  26
ATOM     26  O   UNL     1     -35.213  19.477   1.398  0.00  0.00    -0.505 OA
ATOM     27  H   UNL     1     -34.957  18.795   1.985  0.00  0.00    +0.292 HD
ENDBRANCH  10  26
TORSDOF 6
ENDMDL
MODEL 5
REMARK VINA RESULT:      -6.1      2.388      3.581
REMARK  Name = 5281692
REMARK  6 active torsions:
REMARK  status: ('A' for Active; 'I' for Inactive)
REMARK    1  A    between atoms: C_3  and  C_12
REMARK    2  A    between atoms: C_6  and  O_24
REMARK    3  A    between atoms: C_10  and  O_26
REMARK    4  A    between atoms: C_15  and  O_18
REMARK    5  A    between atoms: C_16  and  O_20
REMARK    6  A    between atoms: C_17  and  O_22
REMARK                            x       y       z     vdW  Elec       q    Type
REMARK                         _______ _______ _______ _____ _____    ______ ____
ROOT
ATOM      1  O   UNL     1     -37.176  23.381   2.320  0.00  0.00    -0.450 OA
ATOM      2  O   UNL     1     -35.063  20.745   4.598  0.00  0.00    -0.283 OA
ATOM      3  C   UNL     1     -37.207  22.019   2.065  0.00  0.00    +0.182 A 
ATOM      4  C   UNL     1     -35.683  22.984   4.191  0.00  0.00    +0.077 A 
ATOM      5  C   UNL     1     -36.425  23.833   3.374  0.00  0.00    +0.152 A 
ATOM      6  C   UNL     1     -36.529  21.096   2.771  0.00  0.00    +0.208 A 
ATOM      7  C   UNL     1     -35.699  21.538   3.917  0.00  0.00    +0.235 A 
ATOM      8  C   UNL     1     -34.935  23.501   5.251  0.00  0.00    +0.009 C 
ATOM      9  C   UNL     1     -36.424  25.207   3.611  0.00  0.00    +0.074 C 
ATOM     10  C   UNL     1     -35.678  25.728   4.668  0.00  0.00    +0.137 C 
ATOM     11  C   UNL     1     -34.935  24.877   5.487  0.00  0.00    +0.037 C 
ENDROOT
BRANCH   3  12
ATOM     12  C   UNL     1     -38.049  21.669   0.907  0.00  0.00    +0.044 C 
ATOM     13  C   UNL     1     -39.400  21.377   1.091  0.00  0.00    +0.043 C 
ATOM     14  C   UNL     1     -37.496  21.633  -0.374  0.00  0.00    +0.043 C 
ATOM     15  C   UNL     1     -38.294  21.304  -1.469  0.00  0.00    +0.171 C 
ATOM     16  C   UNL     1     -40.199  21.047  -0.004  0.00  0.00    +0.171 C 
ATOM     17  C   UNL     1     -39.645  21.011  -1.284  0.00  0.00    +0.202 C 
BRANCH  15  18
ATOM     18  O   UNL     1     -37.742  21.273  -2.714  0.00  0.00    -0.503 OA
ATOM     19  H   UNL     1     -38.288  21.351  -3.472  0.00  0.00    +0.292 HD
ENDBRANCH  15  18
BRANCH  16  20
ATOM     20  O   UNL     1     -41.516  20.763   0.189  0.00  0.00    -0.503 OA
ATOM     21  H   UNL     1     -41.955  21.075   0.956  0.00  0.00    +0.292 HD
ENDBRANCH  16  20
BRANCH  17  22
ATOM     22  O   UNL     1     -40.426  20.691  -2.356  0.00  0.00    -0.501 OA
ATOM     23  H   UNL     1     -40.054  20.239  -3.088  0.00  0.00    +0.292 HD
ENDBRANCH  17  22
ENDBRANCH   3  12
BRANCH   6  24
ATOM     24  O   UNL     1     -36.554  19.751   2.471  0.00  0.00    -0.501 OA
ATOM     25  H   UNL     1     -37.334  19.253   2.617  0.00  0.00    +0.292 HD
ENDBRANCH   6  24
BRANCH  10  26
ATOM     26  O   UNL     1     -35.675  27.070   4.903  0.00  0.00    -0.505 OA
ATOM     27  H   UNL     1     -34.876  27.553   4.842  0.00  0.00    +0.292 HD
ENDBRANCH  10  26
TORSDOF 6
ENDMDL
MODEL 6
REMARK VINA RESULT:      -6.0      3.016      5.693
REMARK  Name = 5281692
REMARK  6 active torsions:
REMARK  status: ('A' for Active; 'I' for Inactive)
REMARK    1  A    between atoms: C_3  and  C_12
REMARK    2  A    between atoms: C_6  and  O_24
REMARK    3  A    between atoms: C_10  and  O_26
REMARK    4  A    between atoms: C_15  and  O_18
REMARK    5  A    between atoms: C_16  and  O_20
REMARK    6  A    between atoms: C_17  and  O_22
REMARK                            x       y       z     vdW  Elec       q    Type
REMARK                         _______ _______ _______ _____ _____    ______ ____
ROOT
ATOM      1  O   UNL     1     -33.146  26.506   5.135  0.00  0.00    -0.450 OA
ATOM      2  O   UNL     1     -34.232  29.509   2.602  0.00  0.00    -0.283 OA
ATOM      3  C   UNL     1     -34.048  26.292   4.104  0.00  0.00    +0.182 A 
ATOM      4  C   UNL     1     -32.933  28.824   4.449  0.00  0.00    +0.077 A 
ATOM      5  C   UNL     1     -32.605  27.758   5.282  0.00  0.00    +0.152 A 
ATOM      6  C   UNL     1     -34.454  27.238   3.238  0.00  0.00    +0.208 A 
ATOM      7  C   UNL     1     -33.901  28.608   3.362  0.00  0.00    +0.235 A 
ATOM      8  C   UNL     1     -32.351  30.079   4.647  0.00  0.00    +0.009 C 
ATOM      9  C   UNL     1     -31.693  27.938   6.321  0.00  0.00    +0.074 C 
ATOM     10  C   UNL     1     -31.109  29.189   6.523  0.00  0.00    +0.137 C 
ATOM     11  C   UNL     1     -31.438  30.257   5.687  0.00  0.00    +0.037 C 
ENDROOT
BRANCH   3  12
ATOM     12  C   UNL     1     -34.552  24.908   4.059  0.00  0.00    +0.044 C 
ATOM     13  C   UNL     1     -34.569  24.212   2.851  0.00  0.00    +0.043 C 
ATOM     14  C   UNL     1     -35.009  24.292   5.224  0.00  0.00    +0.043 C 
ATOM     15  C   UNL     1     -35.483  22.981   5.181  0.00  0.00    +0.171 C 
ATOM     16  C   UNL     1     -35.043  22.901   2.806  0.00  0.00    +0.171 C 
ATOM     17  C   UNL     1     -35.500  22.286   3.971  0.00  0.00    +0.202 C 
BRANCH  15  18
ATOM     18  O   UNL     1     -35.926  22.392   6.326  0.00  0.00    -0.503 OA
ATOM     19  H   UNL     1     -35.779  22.806   7.154  0.00  0.00    +0.292 HD
ENDBRANCH  15  18
BRANCH  16  20
ATOM     20  O   UNL     1     -35.055  22.233   1.619  0.00  0.00    -0.503 OA
ATOM     21  H   UNL     1     -34.328  21.694   1.378  0.00  0.00    +0.292 HD
ENDBRANCH  16  20
BRANCH  17  22
ATOM     22  O   UNL     1     -35.963  21.003   3.930  0.00  0.00    -0.501 OA
ATOM     23  H   UNL     1     -35.400  20.294   4.169  0.00  0.00    +0.292 HD
ENDBRANCH  17  22
ENDBRANCH   3  12
BRANCH   6  24
ATOM     24  O   UNL     1     -35.380  27.001   2.245  0.00  0.00    -0.501 OA
ATOM     25  H   UNL     1     -35.267  27.385   1.398  0.00  0.00    +0.292 HD
ENDBRANCH   6  24
BRANCH  10  26
ATOM     26  O   UNL     1     -30.217  29.368   7.535  0.00  0.00    -0.505 OA
ATOM     27  H   UNL     1     -29.643  28.670   7.783  0.00  0.00    +0.292 HD
ENDBRANCH  10  26
TORSDOF 6
ENDMDL
MODEL 7
REMARK VINA RESULT:      -5.9      3.475      8.438
REMARK  Name = 5281692
REMARK  6 active torsions:
REMARK  status: ('A' for Active; 'I' for Inactive)
REMARK    1  A    between atoms: C_3  and  C_12
REMARK    2  A    between atoms: C_6  and  O_24
REMARK    3  A    between atoms: C_10  and  O_26
REMARK    4  A    between atoms: C_15  and  O_18
REMARK    5  A    between atoms: C_16  and  O_20
REMARK    6  A    between atoms: C_17  and  O_22
REMARK                            x       y       z     vdW  Elec       q    Type
REMARK                         _______ _______ _______ _____ _____    ______ ____
ROOT
ATOM      1  O   UNL     1     -33.603  25.449   4.994  0.00  0.00    -0.450 OA
ATOM      2  O   UNL     1     -36.848  26.491   2.760  0.00  0.00    -0.283 OA
ATOM      3  C   UNL     1     -33.769  26.740   4.519  0.00  0.00    +0.182 A 
ATOM      4  C   UNL     1     -35.701  24.811   3.954  0.00  0.00    +0.077 A 
ATOM      5  C   UNL     1     -34.568  24.517   4.710  0.00  0.00    +0.152 A 
ATOM      6  C   UNL     1     -34.810  27.150   3.772  0.00  0.00    +0.208 A 
ATOM      7  C   UNL     1     -35.876  26.176   3.435  0.00  0.00    +0.235 A 
ATOM      8  C   UNL     1     -36.652  23.821   3.695  0.00  0.00    +0.009 C 
ATOM      9  C   UNL     1     -34.378  23.230   5.211  0.00  0.00    +0.074 C 
ATOM     10  C   UNL     1     -35.325  22.239   4.955  0.00  0.00    +0.137 C 
ATOM     11  C   UNL     1     -36.460  22.534   4.198  0.00  0.00    +0.037 C 
ENDROOT
BRANCH   3  12
ATOM     12  C   UNL     1     -32.662  27.638   4.895  0.00  0.00    +0.044 C 
ATOM     13  C   UNL     1     -32.530  28.067   6.215  0.00  0.00    +0.043 C 
ATOM     14  C   UNL     1     -31.745  28.057   3.931  0.00  0.00    +0.043 C 
ATOM     15  C   UNL     1     -30.696  28.904   4.288  0.00  0.00    +0.171 C 
ATOM     16  C   UNL     1     -31.482  28.915   6.573  0.00  0.00    +0.171 C 
ATOM     17  C   UNL     1     -30.565  29.334   5.609  0.00  0.00    +0.202 C 
BRANCH  15  18
ATOM     18  O   UNL     1     -29.806  29.306   3.337  0.00  0.00    -0.503 OA
ATOM     19  H   UNL     1     -30.062  29.937   2.693  0.00  0.00    +0.292 HD
ENDBRANCH  15  18
BRANCH  16  20
ATOM     20  O   UNL     1     -31.365  29.327   7.865  0.00  0.00    -0.503 OA
ATOM     21  H   UNL     1     -31.784  28.844   8.550  0.00  0.00    +0.292 HD
ENDBRANCH  16  20
BRANCH  17  22
ATOM     22  O   UNL     1     -29.538  30.161   5.957  0.00  0.00    -0.501 OA
ATOM     23  H   UNL     1     -29.671  31.088   5.977  0.00  0.00    +0.292 HD
ENDBRANCH  17  22
ENDBRANCH   3  12
BRANCH   6  24
ATOM     24  O   UNL     1     -34.928  28.434   3.287  0.00  0.00    -0.501 OA
ATOM     25  H   UNL     1     -34.251  28.796   2.751  0.00  0.00    +0.292 HD
ENDBRANCH   6  24
BRANCH  10  26
ATOM     26  O   UNL     1     -35.143  20.981   5.444  0.00  0.00    -0.505 OA
ATOM     27  H   UNL     1     -34.454  20.443   5.107  0.00  0.00    +0.292 HD
ENDBRANCH  10  26
TORSDOF 6
ENDMDL
MODEL 8
REMARK VINA RESULT:      -5.9      1.759      7.235
REMARK  Name = 5281692
REMARK  6 active torsions:
REMARK  status: ('A' for Active; 'I' for Inactive)
REMARK    1  A    between atoms: C_3  and  C_12
REMARK    2  A    between atoms: C_6  and  O_24
REMARK    3  A    between atoms: C_10  and  O_26
REMARK    4  A    between atoms: C_15  and  O_18
REMARK    5  A    between atoms: C_16  and  O_20
REMARK    6  A    between atoms: C_17  and  O_22
REMARK                            x       y       z     vdW  Elec       q    Type
REMARK                         _______ _______ _______ _____ _____    ______ ____
ROOT
ATOM      1  O   UNL     1     -33.990  19.819   1.937  0.00  0.00    -0.450 OA
ATOM      2  O   UNL     1     -37.033  18.297  -0.307  0.00  0.00    -0.283 OA
ATOM      3  C   UNL     1     -35.257  20.381   1.961  0.00  0.00    +0.182 A 
ATOM      4  C   UNL     1     -34.775  18.150   0.360  0.00  0.00    +0.077 A 
ATOM      5  C   UNL     1     -33.777  18.718   1.147  0.00  0.00    +0.152 A 
ATOM      6  C   UNL     1     -36.303  19.934   1.242  0.00  0.00    +0.208 A 
ATOM      7  C   UNL     1     -36.118  18.750   0.369  0.00  0.00    +0.235 A 
ATOM      8  C   UNL     1     -34.500  17.028  -0.427  0.00  0.00    +0.009 C 
ATOM      9  C   UNL     1     -32.495  18.169   1.154  0.00  0.00    +0.074 C 
ATOM     10  C   UNL     1     -32.216  17.050   0.370  0.00  0.00    +0.137 C 
ATOM     11  C   UNL     1     -33.217  16.480  -0.419  0.00  0.00    +0.037 C 
ENDROOT
BRANCH   3  12
ATOM     12  C   UNL     1     -35.349  21.555   2.847  0.00  0.00    +0.044 C 
ATOM     13  C   UNL     1     -35.188  22.837   2.325  0.00  0.00    +0.043 C 
ATOM     14  C   UNL     1     -35.601  21.383   4.209  0.00  0.00    +0.043 C 
ATOM     15  C   UNL     1     -35.691  22.495   5.046  0.00  0.00    +0.171 C 
ATOM     16  C   UNL     1     -35.276  23.949   3.162  0.00  0.00    +0.171 C 
ATOM     17  C   UNL     1     -35.528  23.778   4.523  0.00  0.00    +0.202 C 
BRANCH  15  18
ATOM     18  O   UNL     1     -35.937  22.313   6.374  0.00  0.00    -0.503 OA
ATOM     19  H   UNL     1     -36.548  21.659   6.653  0.00  0.00    +0.292 HD
ENDBRANCH  15  18
BRANCH  16  20
ATOM     20  O   UNL     1     -35.116  25.196   2.639  0.00  0.00    -0.503 OA
ATOM     21  H   UNL     1     -34.665  25.855   3.129  0.00  0.00    +0.292 HD
ENDBRANCH  16  20
BRANCH  17  22
ATOM     22  O   UNL     1     -35.617  24.864   5.343  0.00  0.00    -0.501 OA
ATOM     23  H   UNL     1     -35.183  25.661   5.113  0.00  0.00    +0.292 HD
ENDBRANCH  17  22
ENDBRANCH   3  12
BRANCH   6  24
ATOM     24  O   UNL     1     -37.542  20.537   1.262  0.00  0.00    -0.501 OA
ATOM     25  H   UNL     1     -38.288  20.065   1.576  0.00  0.00    +0.292 HD
ENDBRANCH   6  24
BRANCH  10  26
ATOM     26  O   UNL     1     -30.966  16.510   0.374  0.00  0.00    -0.505 OA
ATOM     27  H   UNL     1     -30.799  15.720   0.848  0.00  0.00    +0.292 HD
ENDBRANCH  10  26
TORSDOF 6
ENDMDL
MODEL 9
REMARK VINA RESULT:      -5.7      4.222      7.226
REMARK  Name = 5281692
REMARK  6 active torsions:
REMARK  status: ('A' for Active; 'I' for Inactive)
REMARK    1  A    between atoms: C_3  and  C_12
REMARK    2  A    between atoms: C_6  and  O_24
REMARK    3  A    between atoms: C_10  and  O_26
REMARK    4  A    between atoms: C_15  and  O_18
REMARK    5  A    between atoms: C_16  and  O_20
REMARK    6  A    between atoms: C_17  and  O_22
REMARK                            x       y       z     vdW  Elec       q    Type
REMARK                         _______ _______ _______ _____ _____    ______ ____
ROOT
ATOM      1  O   UNL     1     -38.533  23.420   2.169  0.00  0.00    -0.450 OA
ATOM      2  O   UNL     1     -35.512  24.396   4.725  0.00  0.00    -0.283 OA
ATOM      3  C   UNL     1     -38.485  24.657   2.792  0.00  0.00    +0.182 A 
ATOM      4  C   UNL     1     -36.467  22.796   3.278  0.00  0.00    +0.077 A 
ATOM      5  C   UNL     1     -37.527  22.522   2.418  0.00  0.00    +0.152 A 
ATOM      6  C   UNL     1     -37.522  25.042   3.650  0.00  0.00    +0.208 A 
ATOM      7  C   UNL     1     -36.417  24.102   3.954  0.00  0.00    +0.235 A 
ATOM      8  C   UNL     1     -35.470  21.841   3.495  0.00  0.00    +0.009 C 
ATOM      9  C   UNL     1     -37.599  21.290   1.768  0.00  0.00    +0.074 C 
ATOM     10  C   UNL     1     -36.605  20.335   1.981  0.00  0.00    +0.137 C 
ATOM     11  C   UNL     1     -35.543  20.610   2.843  0.00  0.00    +0.037 C 
ENDROOT
BRANCH   3  12
ATOM     12  C   UNL     1     -39.623  25.524   2.439  0.00  0.00    +0.044 C 
ATOM     13  C   UNL     1     -39.651  26.168   1.203  0.00  0.00    +0.043 C 
ATOM     14  C   UNL     1     -40.674  25.698   3.339  0.00  0.00    +0.043 C 
ATOM     15  C   UNL     1     -41.753  26.516   3.003  0.00  0.00    +0.171 C 
ATOM     16  C   UNL     1     -40.729  26.988   0.866  0.00  0.00    +0.171 C 
ATOM     17  C   UNL     1     -41.780  27.161   1.767  0.00  0.00    +0.202 C 
BRANCH  15  18
ATOM     18  O   UNL     1     -42.773  26.677   3.892  0.00  0.00    -0.503 OA
ATOM     19  H   UNL     1     -43.632  26.893   3.586  0.00  0.00    +0.292 HD
ENDBRANCH  15  18
BRANCH  16  20
ATOM     20  O   UNL     1     -40.744  27.612  -0.344  0.00  0.00    -0.503 OA
ATOM     21  H   UNL     1     -39.946  27.934  -0.714  0.00  0.00    +0.292 HD
ENDBRANCH  16  20
BRANCH  17  22
ATOM     22  O   UNL     1     -42.835  27.960   1.439  0.00  0.00    -0.501 OA
ATOM     23  H   UNL     1     -42.734  28.891   1.434  0.00  0.00    +0.292 HD
ENDBRANCH  17  22
ENDBRANCH   3  12
BRANCH   6  24
ATOM     24  O   UNL     1     -37.521  26.268   4.279  0.00  0.00    -0.501 OA
ATOM     25  H   UNL     1     -36.802  26.855   4.159  0.00  0.00    +0.292 HD
ENDBRANCH   6  24
BRANCH  10  26
ATOM     26  O   UNL     1     -36.671  19.131   1.347  0.00  0.00    -0.505 OA
ATOM     27  H   UNL     1     -35.926  18.806   0.883  0.00  0.00    +0.292 HD
ENDBRANCH  10  26
TORSDOF 6
ENDMDL
