MODEL 1
REMARK VINA RESULT:      -6.6      0.000      0.000
REMARK  Name = 5484223
REMARK  12 active torsions:
REMARK  status: ('A' for Active; 'I' for Inactive)
REMARK    1  A    between atoms: N_2  and  C_23
REMARK    2  A    between atoms: C_3  and  C_5
REMARK    3  A    between atoms: C_5  and  N_8
REMARK    4  A    between atoms: C_9  and  C_11
REMARK    5  A    between atoms: C_11  and  N_14
REMARK    6  A    between atoms: C_15  and  C_17
REMARK    7  A    between atoms: C_17  and  C_18
REMARK    8  A    between atoms: C_18  and  C_20
REMARK    9  A    between atoms: C_20  and  O_21
REMARK   10  A    between atoms: C_23  and  C_27
REMARK   11  A    between atoms: N_26  and  C_29
REMARK   12  A    between atoms: C_34  and  N_37
REMARK                            x       y       z     vdW  Elec       q    Type
REMARK                         _______ _______ _______ _____ _____    ______ ____
ROOT
ATOM      1  O   UNL     1     -33.392  26.338   3.366  0.00  0.00    -0.273 OA
ATOM      2  N   UNL     1     -35.194  27.753   3.729  0.00  0.00    -0.297 N 
ATOM      3  C   UNL     1     -34.297  26.757   4.085  0.00  0.00    +0.241 C 
ATOM      4  H   UNL     1     -35.885  28.020   4.377  0.00  0.00    +0.150 HD
ENDROOT
BRANCH   3   5
ATOM      5  C   UNL     1     -34.527  26.261   5.507  0.00  0.00    +0.149 C 
ATOM      6  C   UNL     1     -33.351  26.616   6.403  0.00  0.00    +0.031 C 
BRANCH   5   8
ATOM      7  O   UNL     1     -36.963  24.898   4.817  0.00  0.00    -0.273 OA
ATOM      8  N   UNL     1     -34.732  24.833   5.454  0.00  0.00    -0.297 N 
ATOM      9  C   UNL     1     -35.951  24.265   5.108  0.00  0.00    +0.241 C 
ATOM     10  H   UNL     1     -33.979  24.238   5.671  0.00  0.00    +0.150 HD
BRANCH   9  11
ATOM     11  C   UNL     1     -35.887  22.743   5.081  0.00  0.00    +0.149 C 
ATOM     12  C   UNL     1     -35.142  22.209   6.294  0.00  0.00    +0.031 C 
BRANCH  11  14
ATOM     13  O   UNL     1     -37.162  22.111   2.561  0.00  0.00    -0.275 OA
ATOM     14  N   UNL     1     -35.243  22.345   3.851  0.00  0.00    -0.298 N 
ATOM     15  C   UNL     1     -35.941  22.060   2.687  0.00  0.00    +0.223 C 
ATOM     16  H   UNL     1     -34.261  22.272   3.838  0.00  0.00    +0.150 HD
BRANCH  15  17
ATOM     17  C   UNL     1     -35.006  21.667   1.557  0.00  0.00    +0.097 C 
BRANCH  17  18
ATOM     18  C   UNL     1     -34.825  20.157   1.448  0.00  0.00    +0.119 C 
BRANCH  18  20
ATOM     19  O   UNL     1     -35.839  19.583  -0.688  0.00  0.00    -0.250 OA
ATOM     20  C   UNL     1     -35.850  19.530   0.533  0.00  0.00    +0.314 C 
BRANCH  20  21
ATOM     21  O   UNL     1     -36.813  18.880   1.239  0.00  0.00    -0.480 OA
ATOM     22  H   UNL     1     -36.688  18.706   2.151  0.00  0.00    +0.295 HD
ENDBRANCH  20  21
ENDBRANCH  18  20
ENDBRANCH  17  18
ENDBRANCH  15  17
ENDBRANCH  11  14
ENDBRANCH   9  11
ENDBRANCH   5   8
ENDBRANCH   3   5
BRANCH   2  23
ATOM     23  C   UNL     1     -35.155  28.415   2.446  0.00  0.00    +0.149 C 
ATOM     24  C   UNL     1     -36.258  27.902   1.534  0.00  0.00    +0.031 C 
BRANCH  23  27
ATOM     25  O   UNL     1     -34.800  30.472   3.654  0.00  0.00    -0.273 OA
ATOM     26  N   UNL     1     -36.058  30.511   1.673  0.00  0.00    -0.283 N 
ATOM     27  C   UNL     1     -35.292  29.920   2.673  0.00  0.00    +0.244 C 
ATOM     28  H   UNL     1     -36.400  29.908   0.974  0.00  0.00    +0.155 HD
BRANCH  26  29
ATOM     29  C   UNL     1     -36.403  31.877   1.543  0.00  0.00    +0.050 C 
ATOM     30  C   UNL     1     -37.710  32.293   1.795  0.00  0.00    +0.016 C 
ATOM     31  C   UNL     1     -35.435  32.807   1.163  0.00  0.00    +0.016 C 
ATOM     32  C   UNL     1     -38.049  33.641   1.669  0.00  0.00    +0.025 C 
ATOM     33  C   UNL     1     -35.775  34.154   1.037  0.00  0.00    +0.025 C 
ATOM     34  C   UNL     1     -37.081  34.571   1.290  0.00  0.00    +0.143 C 
BRANCH  34  37
ATOM     35  O   UNL     1     -36.627  36.719   0.586  0.00  0.00    -0.126 OA
ATOM     36  O   UNL     1     -38.523  36.339   1.625  0.00  0.00    -0.126 OA
ATOM     37  N   UNL     1     -37.427  35.942   1.161  0.00  0.00    +0.058 N 
ENDBRANCH  34  37
ENDBRANCH  26  29
ENDBRANCH  23  27
ENDBRANCH   2  23
TORSDOF 12
ENDMDL
MODEL 2
REMARK VINA RESULT:      -6.5      4.865      7.790
REMARK  Name = 5484223
REMARK  12 active torsions:
REMARK  status: ('A' for Active; 'I' for Inactive)
REMARK    1  A    between atoms: N_2  and  C_23
REMARK    2  A    between atoms: C_3  and  C_5
REMARK    3  A    between atoms: C_5  and  N_8
REMARK    4  A    between atoms: C_9  and  C_11
REMARK    5  A    between atoms: C_11  and  N_14
REMARK    6  A    between atoms: C_15  and  C_17
REMARK    7  A    between atoms: C_17  and  C_18
REMARK    8  A    between atoms: C_18  and  C_20
REMARK    9  A    between atoms: C_20  and  O_21
REMARK   10  A    between atoms: C_23  and  C_27
REMARK   11  A    between atoms: N_26  and  C_29
REMARK   12  A    between atoms: C_34  and  N_37
REMARK                            x       y       z     vdW  Elec       q    Type
REMARK                         _______ _______ _______ _____ _____    ______ ____
ROOT
ATOM      1  O   UNL     1     -38.130  23.837   3.356  0.00  0.00    -0.273 OA
ATOM      2  N   UNL     1     -36.357  22.503   4.035  0.00  0.00    -0.297 N 
ATOM      3  C   UNL     1     -37.428  22.837   3.220  0.00  0.00    +0.241 C 
ATOM      4  H   UNL     1     -35.856  21.678   3.843  0.00  0.00    +0.150 HD
ENDROOT
BRANCH   3   5
ATOM      5  C   UNL     1     -37.618  21.838   2.085  0.00  0.00    +0.149 C 
ATOM      6  C   UNL     1     -36.286  21.489   1.441  0.00  0.00    +0.031 C 
BRANCH   5   8
ATOM      7  O   UNL     1     -40.366  21.104   1.656  0.00  0.00    -0.273 OA
ATOM      8  N   UNL     1     -38.528  22.419   1.126  0.00  0.00    -0.297 N 
ATOM      9  C   UNL     1     -39.844  21.997   0.992  0.00  0.00    +0.241 C 
ATOM     10  H   UNL     1     -38.203  23.144   0.546  0.00  0.00    +0.150 HD
BRANCH   9  11
ATOM     11  C   UNL     1     -40.600  22.804  -0.055  0.00  0.00    +0.149 C 
ATOM     12  C   UNL     1     -39.848  22.823  -1.376  0.00  0.00    +0.031 C 
BRANCH  11  14
ATOM     13  O   UNL     1     -43.111  24.104   0.563  0.00  0.00    -0.275 OA
ATOM     14  N   UNL     1     -40.789  24.140   0.462  0.00  0.00    -0.298 N 
ATOM     15  C   UNL     1     -42.039  24.681   0.729  0.00  0.00    +0.223 C 
ATOM     16  H   UNL     1     -39.993  24.693   0.634  0.00  0.00    +0.150 HD
BRANCH  15  17
ATOM     17  C   UNL     1     -41.931  26.099   1.260  0.00  0.00    +0.097 C 
BRANCH  17  18
ATOM     18  C   UNL     1     -42.577  26.258   2.632  0.00  0.00    +0.119 C 
BRANCH  18  20
ATOM     19  O   UNL     1     -41.611  27.830   4.220  0.00  0.00    -0.250 OA
ATOM     20  C   UNL     1     -41.589  26.738   3.669  0.00  0.00    +0.314 C 
BRANCH  20  21
ATOM     21  O   UNL     1     -40.647  25.794   3.929  0.00  0.00    -0.480 OA
ATOM     22  H   UNL     1     -40.521  25.081   3.335  0.00  0.00    +0.295 HD
ENDBRANCH  20  21
ENDBRANCH  18  20
ENDBRANCH  17  18
ENDBRANCH  15  17
ENDBRANCH  11  14
ENDBRANCH   9  11
ENDBRANCH   5   8
ENDBRANCH   3   5
BRANCH   2  23
ATOM     23  C   UNL     1     -35.947  23.317   5.156  0.00  0.00    +0.149 C 
ATOM     24  C   UNL     1     -35.408  22.455   6.287  0.00  0.00    +0.031 C 
BRANCH  23  27
ATOM     25  O   UNL     1     -34.306  24.159   3.601  0.00  0.00    -0.273 OA
ATOM     26  N   UNL     1     -34.675  25.311   5.612  0.00  0.00    -0.283 N 
ATOM     27  C   UNL     1     -34.888  24.306   4.673  0.00  0.00    +0.244 C 
ATOM     28  H   UNL     1     -35.212  25.257   6.436  0.00  0.00    +0.155 HD
BRANCH  26  29
ATOM     29  C   UNL     1     -33.775  26.400   5.523  0.00  0.00    +0.050 C 
ATOM     30  C   UNL     1     -33.066  26.813   6.651  0.00  0.00    +0.016 C 
ATOM     31  C   UNL     1     -33.598  27.059   4.307  0.00  0.00    +0.016 C 
ATOM     32  C   UNL     1     -32.178  27.885   6.562  0.00  0.00    +0.025 C 
ATOM     33  C   UNL     1     -32.709  28.132   4.219  0.00  0.00    +0.025 C 
ATOM     34  C   UNL     1     -32.000  28.544   5.346  0.00  0.00    +0.143 C 
BRANCH  34  37
ATOM     35  O   UNL     1     -31.508  30.789   5.527  0.00  0.00    -0.126 OA
ATOM     36  O   UNL     1     -29.911  29.416   4.908  0.00  0.00    -0.126 OA
ATOM     37  N   UNL     1     -31.096  29.636   5.256  0.00  0.00    +0.058 N 
ENDBRANCH  34  37
ENDBRANCH  26  29
ENDBRANCH  23  27
ENDBRANCH   2  23
TORSDOF 12
ENDMDL
MODEL 3
REMARK VINA RESULT:      -6.5      5.016     10.719
REMARK  Name = 5484223
REMARK  12 active torsions:
REMARK  status: ('A' for Active; 'I' for Inactive)
REMARK    1  A    between atoms: N_2  and  C_23
REMARK    2  A    between atoms: C_3  and  C_5
REMARK    3  A    between atoms: C_5  and  N_8
REMARK    4  A    between atoms: C_9  and  C_11
REMARK    5  A    between atoms: C_11  and  N_14
REMARK    6  A    between atoms: C_15  and  C_17
REMARK    7  A    between atoms: C_17  and  C_18
REMARK    8  A    between atoms: C_18  and  C_20
REMARK    9  A    between atoms: C_20  and  O_21
REMARK   10  A    between atoms: C_23  and  C_27
REMARK   11  A    between atoms: N_26  and  C_29
REMARK   12  A    between atoms: C_34  and  N_37
REMARK                            x       y       z     vdW  Elec       q    Type
REMARK                         _______ _______ _______ _____ _____    ______ ____
ROOT
ATOM      1  O   UNL     1     -38.090  22.781  -0.093  0.00  0.00    -0.273 OA
ATOM      2  N   UNL     1     -35.957  22.223   0.628  0.00  0.00    -0.297 N 
ATOM      3  C   UNL     1     -37.334  22.320   0.760  0.00  0.00    +0.241 C 
ATOM      4  H   UNL     1     -35.438  21.837   1.370  0.00  0.00    +0.150 HD
ENDROOT
BRANCH   3   5
ATOM      5  C   UNL     1     -37.826  21.741   2.080  0.00  0.00    +0.149 C 
ATOM      6  C   UNL     1     -39.298  22.054   2.296  0.00  0.00    +0.031 C 
BRANCH   5   8
ATOM      7  O   UNL     1     -35.410  20.611   3.156  0.00  0.00    -0.273 OA
ATOM      8  N   UNL     1     -37.013  22.290   3.139  0.00  0.00    -0.297 N 
ATOM      9  C   UNL     1     -35.857  21.669   3.594  0.00  0.00    +0.241 C 
ATOM     10  H   UNL     1     -37.288  23.138   3.556  0.00  0.00    +0.150 HD
BRANCH   9  11
ATOM     11  C   UNL     1     -35.162  22.478   4.680  0.00  0.00    +0.149 C 
ATOM     12  C   UNL     1     -35.461  21.908   6.058  0.00  0.00    +0.031 C 
BRANCH  11  14
ATOM     13  O   UNL     1     -33.520  24.861   4.731  0.00  0.00    -0.275 OA
ATOM     14  N   UNL     1     -35.606  23.848   4.571  0.00  0.00    -0.298 N 
ATOM     15  C   UNL     1     -34.740  24.932   4.606  0.00  0.00    +0.223 C 
ATOM     16  H   UNL     1     -36.570  24.022   4.466  0.00  0.00    +0.150 HD
BRANCH  15  17
ATOM     17  C   UNL     1     -35.487  26.247   4.471  0.00  0.00    +0.097 C 
BRANCH  17  18
ATOM     18  C   UNL     1     -35.694  26.654   3.016  0.00  0.00    +0.119 C 
BRANCH  18  20
ATOM     19  O   UNL     1     -37.650  25.251   2.659  0.00  0.00    -0.250 OA
ATOM     20  C   UNL     1     -37.087  26.329   2.532  0.00  0.00    +0.314 C 
BRANCH  20  21
ATOM     21  O   UNL     1     -37.662  27.399   1.922  0.00  0.00    -0.480 OA
ATOM     22  H   UNL     1     -38.215  27.976   2.411  0.00  0.00    +0.295 HD
ENDBRANCH  20  21
ENDBRANCH  18  20
ENDBRANCH  17  18
ENDBRANCH  15  17
ENDBRANCH  11  14
ENDBRANCH   9  11
ENDBRANCH   5   8
ENDBRANCH   3   5
BRANCH   2  23
ATOM     23  C   UNL     1     -35.253  22.663  -0.553  0.00  0.00    +0.149 C 
ATOM     24  C   UNL     1     -34.691  24.063  -0.363  0.00  0.00    +0.031 C 
BRANCH  23  27
ATOM     25  O   UNL     1     -33.755  21.447  -2.000  0.00  0.00    -0.273 OA
ATOM     26  N   UNL     1     -33.691  21.047   0.312  0.00  0.00    -0.283 N 
ATOM     27  C   UNL     1     -34.138  21.664  -0.853  0.00  0.00    +0.244 C 
ATOM     28  H   UNL     1     -34.134  21.322   1.147  0.00  0.00    +0.155 HD
BRANCH  26  29
ATOM     29  C   UNL     1     -32.675  20.069   0.436  0.00  0.00    +0.050 C 
ATOM     30  C   UNL     1     -31.431  20.276  -0.160  0.00  0.00    +0.016 C 
ATOM     31  C   UNL     1     -32.917  18.900   1.156  0.00  0.00    +0.016 C 
ATOM     32  C   UNL     1     -30.429  19.314  -0.036  0.00  0.00    +0.025 C 
ATOM     33  C   UNL     1     -31.915  17.937   1.281  0.00  0.00    +0.025 C 
ATOM     34  C   UNL     1     -30.671  18.144   0.685  0.00  0.00    +0.143 C 
BRANCH  34  37
ATOM     35  O   UNL     1     -28.683  17.391   1.576  0.00  0.00    -0.126 OA
ATOM     36  O   UNL     1     -29.748  16.099   0.157  0.00  0.00    -0.126 OA
ATOM     37  N   UNL     1     -29.652  17.165   0.812  0.00  0.00    +0.058 N 
ENDBRANCH  34  37
ENDBRANCH  26  29
ENDBRANCH  23  27
ENDBRANCH   2  23
TORSDOF 12
ENDMDL
MODEL 4
REMARK VINA RESULT:      -6.5      4.816      6.855
REMARK  Name = 5484223
REMARK  12 active torsions:
REMARK  status: ('A' for Active; 'I' for Inactive)
REMARK    1  A    between atoms: N_2  and  C_23
REMARK    2  A    between atoms: C_3  and  C_5
REMARK    3  A    between atoms: C_5  and  N_8
REMARK    4  A    between atoms: C_9  and  C_11
REMARK    5  A    between atoms: C_11  and  N_14
REMARK    6  A    between atoms: C_15  and  C_17
REMARK    7  A    between atoms: C_17  and  C_18
REMARK    8  A    between atoms: C_18  and  C_20
REMARK    9  A    between atoms: C_20  and  O_21
REMARK   10  A    between atoms: C_23  and  C_27
REMARK   11  A    between atoms: N_26  and  C_29
REMARK   12  A    between atoms: C_34  and  N_37
REMARK                            x       y       z     vdW  Elec       q    Type
REMARK                         _______ _______ _______ _____ _____    ______ ____
ROOT
ATOM      1  O   UNL     1     -36.561  22.731   0.052  0.00  0.00    -0.273 OA
ATOM      2  N   UNL     1     -38.754  23.391   0.427  0.00  0.00    -0.297 N 
ATOM      3  C   UNL     1     -37.616  22.638   0.677  0.00  0.00    +0.241 C 
ATOM      4  H   UNL     1     -39.551  23.241   0.985  0.00  0.00    +0.150 HD
ENDROOT
BRANCH   3   5
ATOM      5  C   UNL     1     -37.800  21.697   1.861  0.00  0.00    +0.149 C 
ATOM      6  C   UNL     1     -39.259  21.633   2.282  0.00  0.00    +0.031 C 
BRANCH   5   8
ATOM      7  O   UNL     1     -35.488  20.376   2.950  0.00  0.00    -0.273 OA
ATOM      8  N   UNL     1     -36.963  22.168   2.939  0.00  0.00    -0.297 N 
ATOM      9  C   UNL     1     -35.862  21.457   3.398  0.00  0.00    +0.241 C 
ATOM     10  H   UNL     1     -37.181  23.028   3.365  0.00  0.00    +0.150 HD
BRANCH   9  11
ATOM     11  C   UNL     1     -35.125  22.196   4.507  0.00  0.00    +0.149 C 
ATOM     12  C   UNL     1     -35.247  21.455   5.829  0.00  0.00    +0.031 C 
BRANCH  11  14
ATOM     13  O   UNL     1     -33.665  24.678   4.792  0.00  0.00    -0.275 OA
ATOM     14  N   UNL     1     -35.675  23.529   4.599  0.00  0.00    -0.298 N 
ATOM     15  C   UNL     1     -34.892  24.665   4.735  0.00  0.00    +0.223 C 
ATOM     16  H   UNL     1     -36.654  23.636   4.563  0.00  0.00    +0.150 HD
BRANCH  15  17
ATOM     17  C   UNL     1     -35.740  25.922   4.809  0.00  0.00    +0.097 C 
BRANCH  17  18
ATOM     18  C   UNL     1     -35.809  26.659   3.474  0.00  0.00    +0.119 C 
BRANCH  18  20
ATOM     19  O   UNL     1     -37.612  25.217   2.704  0.00  0.00    -0.250 OA
ATOM     20  C   UNL     1     -37.056  26.306   2.699  0.00  0.00    +0.314 C 
BRANCH  20  21
ATOM     21  O   UNL     1     -37.505  27.365   1.974  0.00  0.00    -0.480 OA
ATOM     22  H   UNL     1     -37.720  27.256   1.069  0.00  0.00    +0.295 HD
ENDBRANCH  20  21
ENDBRANCH  18  20
ENDBRANCH  17  18
ENDBRANCH  15  17
ENDBRANCH  11  14
ENDBRANCH   9  11
ENDBRANCH   5   8
ENDBRANCH   3   5
BRANCH   2  23
ATOM     23  C   UNL     1     -38.816  24.386  -0.618  0.00  0.00    +0.149 C 
ATOM     24  C   UNL     1     -39.587  23.865  -1.821  0.00  0.00    +0.031 C 
BRANCH  23  27
ATOM     25  O   UNL     1     -39.241  26.758  -0.508  0.00  0.00    -0.273 OA
ATOM     26  N   UNL     1     -40.293  25.334   1.032  0.00  0.00    -0.283 N 
ATOM     27  C   UNL     1     -39.475  25.642  -0.050  0.00  0.00    +0.244 C 
ATOM     28  H   UNL     1     -40.341  24.384   1.285  0.00  0.00    +0.155 HD
BRANCH  26  29
ATOM     29  C   UNL     1     -41.064  26.227   1.814  0.00  0.00    +0.050 C 
ATOM     30  C   UNL     1     -41.971  27.089   1.197  0.00  0.00    +0.016 C 
ATOM     31  C   UNL     1     -40.918  26.245   3.201  0.00  0.00    +0.016 C 
ATOM     32  C   UNL     1     -42.733  27.968   1.968  0.00  0.00    +0.025 C 
ATOM     33  C   UNL     1     -41.680  27.124   3.971  0.00  0.00    +0.025 C 
ATOM     34  C   UNL     1     -42.587  27.985   3.355  0.00  0.00    +0.143 C 
BRANCH  34  37
ATOM     35  O   UNL     1     -44.555  29.094   3.816  0.00  0.00    -0.126 OA
ATOM     36  O   UNL     1     -42.832  29.430   5.135  0.00  0.00    -0.126 OA
ATOM     37  N   UNL     1     -43.362  28.879   4.139  0.00  0.00    +0.058 N 
ENDBRANCH  34  37
ENDBRANCH  26  29
ENDBRANCH  23  27
ENDBRANCH   2  23
TORSDOF 12
ENDMDL
MODEL 5
REMARK VINA RESULT:      -6.4      4.415     10.329
REMARK  Name = 5484223
REMARK  12 active torsions:
REMARK  status: ('A' for Active; 'I' for Inactive)
REMARK    1  A    between atoms: N_2  and  C_23
REMARK    2  A    between atoms: C_3  and  C_5
REMARK    3  A    between atoms: C_5  and  N_8
REMARK    4  A    between atoms: C_9  and  C_11
REMARK    5  A    between atoms: C_11  and  N_14
REMARK    6  A    between atoms: C_15  and  C_17
REMARK    7  A    between atoms: C_17  and  C_18
REMARK    8  A    between atoms: C_18  and  C_20
REMARK    9  A    between atoms: C_20  and  O_21
REMARK   10  A    between atoms: C_23  and  C_27
REMARK   11  A    between atoms: N_26  and  C_29
REMARK   12  A    between atoms: C_34  and  N_37
REMARK                            x       y       z     vdW  Elec       q    Type
REMARK                         _______ _______ _______ _____ _____    ______ ____
ROOT
ATOM      1  O   UNL     1     -37.468  23.468   2.627  0.00  0.00    -0.273 OA
ATOM      2  N   UNL     1     -37.293  22.451   0.548  0.00  0.00    -0.297 N 
ATOM      3  C   UNL     1     -37.222  23.525   1.424  0.00  0.00    +0.241 C 
ATOM      4  H   UNL     1     -37.076  22.601  -0.400  0.00  0.00    +0.150 HD
ENDROOT
BRANCH   3   5
ATOM      5  C   UNL     1     -36.753  24.799   0.731  0.00  0.00    +0.149 C 
ATOM      6  C   UNL     1     -36.019  24.476  -0.560  0.00  0.00    +0.031 C 
BRANCH   5   8
ATOM      7  O   UNL     1     -37.215  27.429   1.802  0.00  0.00    -0.273 OA
ATOM      8  N   UNL     1     -35.904  25.520   1.651  0.00  0.00    -0.297 N 
ATOM      9  C   UNL     1     -36.212  26.792   2.115  0.00  0.00    +0.241 C 
ATOM     10  H   UNL     1     -35.074  25.092   1.962  0.00  0.00    +0.150 HD
BRANCH   9  11
ATOM     11  C   UNL     1     -35.178  27.305   3.108  0.00  0.00    +0.149 C 
ATOM     12  C   UNL     1     -34.004  27.949   2.388  0.00  0.00    +0.031 C 
BRANCH  11  14
ATOM     13  O   UNL     1     -36.313  26.434   5.624  0.00  0.00    -0.275 OA
ATOM     14  N   UNL     1     -34.749  26.191   3.922  0.00  0.00    -0.298 N 
ATOM     15  C   UNL     1     -35.358  25.848   5.121  0.00  0.00    +0.223 C 
ATOM     16  H   UNL     1     -33.988  25.649   3.611  0.00  0.00    +0.150 HD
BRANCH  15  17
ATOM     17  C   UNL     1     -34.695  24.639   5.757  0.00  0.00    +0.097 C 
BRANCH  17  18
ATOM     18  C   UNL     1     -34.621  23.447   4.808  0.00  0.00    +0.119 C 
BRANCH  18  20
ATOM     19  O   UNL     1     -35.937  22.129   6.375  0.00  0.00    -0.250 OA
ATOM     20  C   UNL     1     -35.541  22.328   5.235  0.00  0.00    +0.314 C 
BRANCH  20  21
ATOM     21  O   UNL     1     -35.889  21.543   4.181  0.00  0.00    -0.480 OA
ATOM     22  H   UNL     1     -35.247  21.305   3.542  0.00  0.00    +0.295 HD
ENDBRANCH  20  21
ENDBRANCH  18  20
ENDBRANCH  17  18
ENDBRANCH  15  17
ENDBRANCH  11  14
ENDBRANCH   9  11
ENDBRANCH   5   8
ENDBRANCH   3   5
BRANCH   2  23
ATOM     23  C   UNL     1     -37.671  21.124   0.972  0.00  0.00    +0.149 C 
ATOM     24  C   UNL     1     -38.961  20.684   0.298  0.00  0.00    +0.031 C 
BRANCH  23  27
ATOM     25  O   UNL     1     -36.732  19.070   0.125  0.00  0.00    -0.273 OA
ATOM     26  N   UNL     1     -35.302  20.692   1.037  0.00  0.00    -0.283 N 
ATOM     27  C   UNL     1     -36.528  20.166   0.640  0.00  0.00    +0.244 C 
ATOM     28  H   UNL     1     -35.327  21.578   1.465  0.00  0.00    +0.155 HD
BRANCH  26  29
ATOM     29  C   UNL     1     -34.024  20.101   0.899  0.00  0.00    +0.050 C 
ATOM     30  C   UNL     1     -33.746  18.885   1.525  0.00  0.00    +0.016 C 
ATOM     31  C   UNL     1     -33.042  20.733   0.137  0.00  0.00    +0.016 C 
ATOM     32  C   UNL     1     -32.487  18.301   1.387  0.00  0.00    +0.025 C 
ATOM     33  C   UNL     1     -31.782  20.149  -0.001  0.00  0.00    +0.025 C 
ATOM     34  C   UNL     1     -31.505  18.933   0.624  0.00  0.00    +0.143 C 
BRANCH  34  37
ATOM     35  O   UNL     1     -29.964  17.293   1.125  0.00  0.00    -0.126 OA
ATOM     36  O   UNL     1     -29.384  18.877  -0.279  0.00  0.00    -0.126 OA
ATOM     37  N   UNL     1     -30.223  18.340   0.484  0.00  0.00    +0.058 N 
ENDBRANCH  34  37
ENDBRANCH  26  29
ENDBRANCH  23  27
ENDBRANCH   2  23
TORSDOF 12
ENDMDL
MODEL 6
REMARK VINA RESULT:      -6.4      1.290      1.981
REMARK  Name = 5484223
REMARK  12 active torsions:
REMARK  status: ('A' for Active; 'I' for Inactive)
REMARK    1  A    between atoms: N_2  and  C_23
REMARK    2  A    between atoms: C_3  and  C_5
REMARK    3  A    between atoms: C_5  and  N_8
REMARK    4  A    between atoms: C_9  and  C_11
REMARK    5  A    between atoms: C_11  and  N_14
REMARK    6  A    between atoms: C_15  and  C_17
REMARK    7  A    between atoms: C_17  and  C_18
REMARK    8  A    between atoms: C_18  and  C_20
REMARK    9  A    between atoms: C_20  and  O_21
REMARK   10  A    between atoms: C_23  and  C_27
REMARK   11  A    between atoms: N_26  and  C_29
REMARK   12  A    between atoms: C_34  and  N_37
REMARK                            x       y       z     vdW  Elec       q    Type
REMARK                         _______ _______ _______ _____ _____    ______ ____
ROOT
ATOM      1  O   UNL     1     -33.344  26.333   3.472  0.00  0.00    -0.273 OA
ATOM      2  N   UNL     1     -35.190  27.700   3.797  0.00  0.00    -0.297 N 
ATOM      3  C   UNL     1     -34.256  26.750   4.183  0.00  0.00    +0.241 C 
ATOM      4  H   UNL     1     -35.884  27.968   4.441  0.00  0.00    +0.150 HD
ENDROOT
BRANCH   3   5
ATOM      5  C   UNL     1     -34.455  26.303   5.626  0.00  0.00    +0.149 C 
ATOM      6  C   UNL     1     -33.223  26.608   6.463  0.00  0.00    +0.031 C 
BRANCH   5   8
ATOM      7  O   UNL     1     -36.970  25.070   4.973  0.00  0.00    -0.273 OA
ATOM      8  N   UNL     1     -34.748  24.889   5.619  0.00  0.00    -0.297 N 
ATOM      9  C   UNL     1     -35.999  24.386   5.288  0.00  0.00    +0.241 C 
ATOM     10  H   UNL     1     -34.033  24.258   5.858  0.00  0.00    +0.150 HD
BRANCH   9  11
ATOM     11  C   UNL     1     -36.028  22.864   5.312  0.00  0.00    +0.149 C 
ATOM     12  C   UNL     1     -34.655  22.299   5.642  0.00  0.00    +0.031 C 
BRANCH  11  14
ATOM     13  O   UNL     1     -34.844  23.419   2.730  0.00  0.00    -0.275 OA
ATOM     14  N   UNL     1     -36.489  22.405   4.022  0.00  0.00    -0.298 N 
ATOM     15  C   UNL     1     -35.853  22.725   2.831  0.00  0.00    +0.223 C 
ATOM     16  H   UNL     1     -37.293  21.838   3.986  0.00  0.00    +0.150 HD
BRANCH  15  17
ATOM     17  C   UNL     1     -36.560  22.108   1.638  0.00  0.00    +0.097 C 
BRANCH  17  18
ATOM     18  C   UNL     1     -37.875  22.808   1.312  0.00  0.00    +0.119 C 
BRANCH  18  20
ATOM     19  O   UNL     1     -40.161  22.604   2.123  0.00  0.00    -0.250 OA
ATOM     20  C   UNL     1     -39.057  22.109   1.940  0.00  0.00    +0.314 C 
BRANCH  20  21
ATOM     21  O   UNL     1     -38.750  20.831   2.289  0.00  0.00    -0.480 OA
ATOM     22  H   UNL     1     -38.739  20.582   3.191  0.00  0.00    +0.295 HD
ENDBRANCH  20  21
ENDBRANCH  18  20
ENDBRANCH  17  18
ENDBRANCH  15  17
ENDBRANCH  11  14
ENDBRANCH   9  11
ENDBRANCH   5   8
ENDBRANCH   3   5
BRANCH   2  23
ATOM     23  C   UNL     1     -35.186  28.311   2.488  0.00  0.00    +0.149 C 
ATOM     24  C   UNL     1     -36.346  27.802   1.646  0.00  0.00    +0.031 C 
BRANCH  23  27
ATOM     25  O   UNL     1     -34.708  30.399   3.597  0.00  0.00    -0.273 OA
ATOM     26  N   UNL     1     -36.053  30.406   1.674  0.00  0.00    -0.283 N 
ATOM     27  C   UNL     1     -35.262  29.827   2.662  0.00  0.00    +0.244 C 
ATOM     28  H   UNL     1     -36.447  29.789   1.016  0.00  0.00    +0.155 HD
BRANCH  26  29
ATOM     29  C   UNL     1     -36.357  31.778   1.505  0.00  0.00    +0.050 C 
ATOM     30  C   UNL     1     -35.353  32.675   1.140  0.00  0.00    +0.016 C 
ATOM     31  C   UNL     1     -37.661  32.232   1.703  0.00  0.00    +0.016 C 
ATOM     32  C   UNL     1     -35.654  34.027   0.972  0.00  0.00    +0.025 C 
ATOM     33  C   UNL     1     -37.961  33.584   1.534  0.00  0.00    +0.025 C 
ATOM     34  C   UNL     1     -36.958  34.481   1.169  0.00  0.00    +0.143 C 
BRANCH  34  37
ATOM     35  O   UNL     1     -38.214  36.354   1.648  0.00  0.00    -0.126 OA
ATOM     36  O   UNL     1     -36.575  36.538   0.200  0.00  0.00    -0.126 OA
ATOM     37  N   UNL     1     -37.264  35.857   0.997  0.00  0.00    +0.058 N 
ENDBRANCH  34  37
ENDBRANCH  26  29
ENDBRANCH  23  27
ENDBRANCH   2  23
TORSDOF 12
ENDMDL
MODEL 7
REMARK VINA RESULT:      -6.3      5.564     11.921
REMARK  Name = 5484223
REMARK  12 active torsions:
REMARK  status: ('A' for Active; 'I' for Inactive)
REMARK    1  A    between atoms: N_2  and  C_23
REMARK    2  A    between atoms: C_3  and  C_5
REMARK    3  A    between atoms: C_5  and  N_8
REMARK    4  A    between atoms: C_9  and  C_11
REMARK    5  A    between atoms: C_11  and  N_14
REMARK    6  A    between atoms: C_15  and  C_17
REMARK    7  A    between atoms: C_17  and  C_18
REMARK    8  A    between atoms: C_18  and  C_20
REMARK    9  A    between atoms: C_20  and  O_21
REMARK   10  A    between atoms: C_23  and  C_27
REMARK   11  A    between atoms: N_26  and  C_29
REMARK   12  A    between atoms: C_34  and  N_37
REMARK                            x       y       z     vdW  Elec       q    Type
REMARK                         _______ _______ _______ _____ _____    ______ ____
ROOT
ATOM      1  O   UNL     1     -34.366  21.798  -0.332  0.00  0.00    -0.273 OA
ATOM      2  N   UNL     1     -34.749  20.069   1.168  0.00  0.00    -0.297 N 
ATOM      3  C   UNL     1     -34.888  21.366   0.693  0.00  0.00    +0.241 C 
ATOM      4  H   UNL     1     -35.209  19.820   2.001  0.00  0.00    +0.150 HD
ENDROOT
BRANCH   3   5
ATOM      5  C   UNL     1     -35.814  22.201   1.570  0.00  0.00    +0.149 C 
ATOM      6  C   UNL     1     -36.115  23.541   0.919  0.00  0.00    +0.031 C 
BRANCH   5   8
ATOM      7  O   UNL     1     -37.074  23.029   4.019  0.00  0.00    -0.273 OA
ATOM      8  N   UNL     1     -35.177  22.372   2.854  0.00  0.00    -0.297 N 
ATOM      9  C   UNL     1     -35.872  22.778   3.986  0.00  0.00    +0.241 C 
ATOM     10  H   UNL     1     -34.212  22.195   2.931  0.00  0.00    +0.150 HD
BRANCH   9  11
ATOM     11  C   UNL     1     -34.977  22.834   5.217  0.00  0.00    +0.149 C 
ATOM     12  C   UNL     1     -35.529  21.959   6.331  0.00  0.00    +0.031 C 
BRANCH  11  14
ATOM     13  O   UNL     1     -33.347  24.907   4.026  0.00  0.00    -0.275 OA
ATOM     14  N   UNL     1     -34.876  24.214   5.633  0.00  0.00    -0.298 N 
ATOM     15  C   UNL     1     -34.062  25.140   4.997  0.00  0.00    +0.223 C 
ATOM     16  H   UNL     1     -35.409  24.511   6.406  0.00  0.00    +0.150 HD
BRANCH  15  17
ATOM     17  C   UNL     1     -34.155  26.507   5.651  0.00  0.00    +0.097 C 
BRANCH  17  18
ATOM     18  C   UNL     1     -33.053  26.738   6.680  0.00  0.00    +0.119 C 
BRANCH  18  20
ATOM     19  O   UNL     1     -32.515  28.896   5.690  0.00  0.00    -0.250 OA
ATOM     20  C   UNL     1     -32.161  27.897   6.301  0.00  0.00    +0.314 C 
BRANCH  20  21
ATOM     21  O   UNL     1     -30.885  27.701   6.728  0.00  0.00    -0.480 OA
ATOM     22  H   UNL     1     -30.679  26.961   7.263  0.00  0.00    +0.295 HD
ENDBRANCH  20  21
ENDBRANCH  18  20
ENDBRANCH  17  18
ENDBRANCH  15  17
ENDBRANCH  11  14
ENDBRANCH   9  11
ENDBRANCH   5   8
ENDBRANCH   3   5
BRANCH   2  23
ATOM     23  C   UNL     1     -33.957  19.071   0.488  0.00  0.00    +0.149 C 
ATOM     24  C   UNL     1     -33.049  18.339   1.464  0.00  0.00    +0.031 C 
BRANCH  23  27
ATOM     25  O   UNL     1     -34.495  17.273  -1.026  0.00  0.00    -0.273 OA
ATOM     26  N   UNL     1     -36.223  18.321   0.167  0.00  0.00    -0.283 N 
ATOM     27  C   UNL     1     -34.903  18.098  -0.212  0.00  0.00    +0.244 C 
ATOM     28  H   UNL     1     -36.373  19.049   0.813  0.00  0.00    +0.155 HD
BRANCH  26  29
ATOM     29  C   UNL     1     -37.376  17.624  -0.267  0.00  0.00    +0.050 C 
ATOM     30  C   UNL     1     -37.534  16.274   0.047  0.00  0.00    +0.016 C 
ATOM     31  C   UNL     1     -38.354  18.287  -1.007  0.00  0.00    +0.016 C 
ATOM     32  C   UNL     1     -38.672  15.587  -0.379  0.00  0.00    +0.025 C 
ATOM     33  C   UNL     1     -39.492  17.601  -1.433  0.00  0.00    +0.025 C 
ATOM     34  C   UNL     1     -39.651  16.251  -1.119  0.00  0.00    +0.143 C 
BRANCH  34  37
ATOM     35  O   UNL     1     -40.738  14.313  -1.732  0.00  0.00    -0.126 OA
ATOM     36  O   UNL     1     -41.869  16.195  -1.744  0.00  0.00    -0.126 OA
ATOM     37  N   UNL     1     -40.808  15.553  -1.553  0.00  0.00    +0.058 N 
ENDBRANCH  34  37
ENDBRANCH  26  29
ENDBRANCH  23  27
ENDBRANCH   2  23
TORSDOF 12
ENDMDL
MODEL 8
REMARK VINA RESULT:      -6.3      3.421      8.264
REMARK  Name = 5484223
REMARK  12 active torsions:
REMARK  status: ('A' for Active; 'I' for Inactive)
REMARK    1  A    between atoms: N_2  and  C_23
REMARK    2  A    between atoms: C_3  and  C_5
REMARK    3  A    between atoms: C_5  and  N_8
REMARK    4  A    between atoms: C_9  and  C_11
REMARK    5  A    between atoms: C_11  and  N_14
REMARK    6  A    between atoms: C_15  and  C_17
REMARK    7  A    between atoms: C_17  and  C_18
REMARK    8  A    between atoms: C_18  and  C_20
REMARK    9  A    between atoms: C_20  and  O_21
REMARK   10  A    between atoms: C_23  and  C_27
REMARK   11  A    between atoms: N_26  and  C_29
REMARK   12  A    between atoms: C_34  and  N_37
REMARK                            x       y       z     vdW  Elec       q    Type
REMARK                         _______ _______ _______ _____ _____    ______ ____
ROOT
ATOM      1  O   UNL     1     -31.460  27.420   3.290  0.00  0.00    -0.273 OA
ATOM      2  N   UNL     1     -32.784  28.233   5.013  0.00  0.00    -0.297 N 
ATOM      3  C   UNL     1     -32.140  28.315   3.787  0.00  0.00    +0.241 C 
ATOM      4  H   UNL     1     -33.306  29.007   5.325  0.00  0.00    +0.150 HD
ENDROOT
BRANCH   3   5
ATOM      5  C   UNL     1     -32.409  29.641   3.086  0.00  0.00    +0.149 C 
ATOM      6  C   UNL     1     -32.902  30.687   4.073  0.00  0.00    +0.031 C 
BRANCH   5   8
ATOM      7  O   UNL     1     -35.058  28.568   3.412  0.00  0.00    -0.273 OA
ATOM      8  N   UNL     1     -33.381  29.405   2.043  0.00  0.00    -0.297 N 
ATOM      9  C   UNL     1     -34.640  28.880   2.299  0.00  0.00    +0.241 C 
ATOM     10  H   UNL     1     -33.140  29.623   1.115  0.00  0.00    +0.150 HD
BRANCH   9  11
ATOM     11  C   UNL     1     -35.484  28.775   1.036  0.00  0.00    +0.149 C 
ATOM     12  C   UNL     1     -36.146  30.106   0.712  0.00  0.00    +0.031 C 
BRANCH  11  14
ATOM     13  O   UNL     1     -35.817  26.354  -0.514  0.00  0.00    -0.275 OA
ATOM     14  N   UNL     1     -36.466  27.735   1.239  0.00  0.00    -0.298 N 
ATOM     15  C   UNL     1     -36.550  26.605   0.440  0.00  0.00    +0.223 C 
ATOM     16  H   UNL     1     -37.107  27.834   1.980  0.00  0.00    +0.150 HD
BRANCH  15  17
ATOM     17  C   UNL     1     -37.676  25.689   0.885  0.00  0.00    +0.097 C 
BRANCH  17  18
ATOM     18  C   UNL     1     -38.446  26.248   2.077  0.00  0.00    +0.119 C 
BRANCH  18  20
ATOM     19  O   UNL     1     -38.388  24.518   3.788  0.00  0.00    -0.250 OA
ATOM     20  C   UNL     1     -38.018  25.609   3.376  0.00  0.00    +0.314 C 
BRANCH  20  21
ATOM     21  O   UNL     1     -37.150  26.403   4.057  0.00  0.00    -0.480 OA
ATOM     22  H   UNL     1     -37.267  26.546   4.976  0.00  0.00    +0.295 HD
ENDBRANCH  20  21
ENDBRANCH  18  20
ENDBRANCH  17  18
ENDBRANCH  15  17
ENDBRANCH  11  14
ENDBRANCH   9  11
ENDBRANCH   5   8
ENDBRANCH   3   5
BRANCH   2  23
ATOM     23  C   UNL     1     -32.719  27.059   5.851  0.00  0.00    +0.149 C 
ATOM     24  C   UNL     1     -32.729  27.439   7.324  0.00  0.00    +0.031 C 
BRANCH  23  27
ATOM     25  O   UNL     1     -34.995  26.290   6.061  0.00  0.00    -0.273 OA
ATOM     26  N   UNL     1     -33.549  25.193   4.574  0.00  0.00    -0.283 N 
ATOM     27  C   UNL     1     -33.904  26.157   5.512  0.00  0.00    +0.244 C 
ATOM     28  H   UNL     1     -32.616  25.214   4.261  0.00  0.00    +0.155 HD
BRANCH  26  29
ATOM     29  C   UNL     1     -34.372  24.185   4.017  0.00  0.00    +0.050 C 
ATOM     30  C   UNL     1     -34.649  24.187   2.650  0.00  0.00    +0.016 C 
ATOM     31  C   UNL     1     -34.903  23.188   4.835  0.00  0.00    +0.016 C 
ATOM     32  C   UNL     1     -35.459  23.192   2.101  0.00  0.00    +0.025 C 
ATOM     33  C   UNL     1     -35.712  22.193   4.286  0.00  0.00    +0.025 C 
ATOM     34  C   UNL     1     -35.990  22.195   2.919  0.00  0.00    +0.143 C 
BRANCH  34  37
ATOM     35  O   UNL     1     -36.408  19.995   2.369  0.00  0.00    -0.126 OA
ATOM     36  O   UNL     1     -37.925  21.503   1.874  0.00  0.00    -0.126 OA
ATOM     37  N   UNL     1     -36.813  21.182   2.361  0.00  0.00    +0.058 N 
ENDBRANCH  34  37
ENDBRANCH  26  29
ENDBRANCH  23  27
ENDBRANCH   2  23
TORSDOF 12
ENDMDL
MODEL 9
REMARK VINA RESULT:      -6.3      5.149     10.866
REMARK  Name = 5484223
REMARK  12 active torsions:
REMARK  status: ('A' for Active; 'I' for Inactive)
REMARK    1  A    between atoms: N_2  and  C_23
REMARK    2  A    between atoms: C_3  and  C_5
REMARK    3  A    between atoms: C_5  and  N_8
REMARK    4  A    between atoms: C_9  and  C_11
REMARK    5  A    between atoms: C_11  and  N_14
REMARK    6  A    between atoms: C_15  and  C_17
REMARK    7  A    between atoms: C_17  and  C_18
REMARK    8  A    between atoms: C_18  and  C_20
REMARK    9  A    between atoms: C_20  and  O_21
REMARK   10  A    between atoms: C_23  and  C_27
REMARK   11  A    between atoms: N_26  and  C_29
REMARK   12  A    between atoms: C_34  and  N_37
REMARK                            x       y       z     vdW  Elec       q    Type
REMARK                         _______ _______ _______ _____ _____    ______ ____
ROOT
ATOM      1  O   UNL     1     -40.179  21.447   2.332  0.00  0.00    -0.273 OA
ATOM      2  N   UNL     1     -38.582  21.844   0.695  0.00  0.00    -0.297 N 
ATOM      3  C   UNL     1     -39.559  22.221   1.605  0.00  0.00    +0.241 C 
ATOM      4  H   UNL     1     -38.143  22.541   0.158  0.00  0.00    +0.150 HD
ENDROOT
BRANCH   3   5
ATOM      5  C   UNL     1     -39.753  23.732   1.643  0.00  0.00    +0.149 C 
ATOM      6  C   UNL     1     -40.416  24.227   0.367  0.00  0.00    +0.031 C 
BRANCH   5   8
ATOM      7  O   UNL     1     -39.213  26.265   2.895  0.00  0.00    -0.273 OA
ATOM      8  N   UNL     1     -38.459  24.344   1.834  0.00  0.00    -0.297 N 
ATOM      9  C   UNL     1     -38.297  25.576   2.453  0.00  0.00    +0.241 C 
ATOM     10  H   UNL     1     -37.660  23.868   1.512  0.00  0.00    +0.150 HD
BRANCH   9  11
ATOM     11  C   UNL     1     -36.831  25.969   2.570  0.00  0.00    +0.149 C 
ATOM     12  C   UNL     1     -36.145  25.921   1.213  0.00  0.00    +0.031 C 
BRANCH  11  14
ATOM     13  O   UNL     1     -35.297  26.687   4.917  0.00  0.00    -0.275 OA
ATOM     14  N   UNL     1     -36.201  25.072   3.510  0.00  0.00    -0.298 N 
ATOM     15  C   UNL     1     -35.481  25.511   4.612  0.00  0.00    +0.223 C 
ATOM     16  H   UNL     1     -36.286  24.102   3.362  0.00  0.00    +0.150 HD
BRANCH  15  17
ATOM     17  C   UNL     1     -34.932  24.348   5.419  0.00  0.00    +0.097 C 
BRANCH  17  18
ATOM     18  C   UNL     1     -35.165  23.003   4.738  0.00  0.00    +0.119 C 
BRANCH  18  20
ATOM     19  O   UNL     1     -36.137  22.069   6.764  0.00  0.00    -0.250 OA
ATOM     20  C   UNL     1     -35.499  21.916   5.732  0.00  0.00    +0.314 C 
BRANCH  20  21
ATOM     21  O   UNL     1     -34.996  20.715   5.341  0.00  0.00    -0.480 OA
ATOM     22  H   UNL     1     -34.726  20.587   4.453  0.00  0.00    +0.295 HD
ENDBRANCH  20  21
ENDBRANCH  18  20
ENDBRANCH  17  18
ENDBRANCH  15  17
ENDBRANCH  11  14
ENDBRANCH   9  11
ENDBRANCH   5   8
ENDBRANCH   3   5
BRANCH   2  23
ATOM     23  C   UNL     1     -38.184  20.469   0.505  0.00  0.00    +0.149 C 
ATOM     24  C   UNL     1     -38.972  19.825  -0.625  0.00  0.00    +0.031 C 
BRANCH  23  27
ATOM     25  O   UNL     1     -36.108  21.384  -0.312  0.00  0.00    -0.273 OA
ATOM     26  N   UNL     1     -36.131  19.211   0.573  0.00  0.00    -0.283 N 
ATOM     27  C   UNL     1     -36.685  20.435   0.212  0.00  0.00    +0.244 C 
ATOM     28  H   UNL     1     -36.751  18.548   0.956  0.00  0.00    +0.155 HD
BRANCH  26  29
ATOM     29  C   UNL     1     -34.780  18.806   0.455  0.00  0.00    +0.050 C 
ATOM     30  C   UNL     1     -33.802  19.395   1.257  0.00  0.00    +0.016 C 
ATOM     31  C   UNL     1     -34.427  17.817  -0.463  0.00  0.00    +0.016 C 
ATOM     32  C   UNL     1     -32.471  18.994   1.142  0.00  0.00    +0.025 C 
ATOM     33  C   UNL     1     -33.095  17.416  -0.578  0.00  0.00    +0.025 C 
ATOM     34  C   UNL     1     -32.118  18.004   0.224  0.00  0.00    +0.143 C 
BRANCH  34  37
ATOM     35  O   UNL     1     -30.232  16.970   1.055  0.00  0.00    -0.126 OA
ATOM     36  O   UNL     1     -30.134  17.873  -0.943  0.00  0.00    -0.126 OA
ATOM     37  N   UNL     1     -30.763  17.596   0.107  0.00  0.00    +0.058 N 
ENDBRANCH  34  37
ENDBRANCH  26  29
ENDBRANCH  23  27
ENDBRANCH   2  23
TORSDOF 12
ENDMDL
