MODEL 1
REMARK VINA RESULT:      -6.1      0.000      0.000
REMARK  Name = 50994612
REMARK  8 active torsions:
REMARK  status: ('A' for Active; 'I' for Inactive)
REMARK    1  A    between atoms: C_3  and  C_19
REMARK    2  A    between atoms: C_4  and  O_9
REMARK    3  A    between atoms: C_6  and  N_11
REMARK    4  A    between atoms: N_11  and  C_13
REMARK    5  A    between atoms: C_13  and  C_14
REMARK    6  A    between atoms: C_14  and  C_16
REMARK    7  A    between atoms: C_16  and  O_17
REMARK    8  A    between atoms: C_19  and  C_21
REMARK                            x       y       z     vdW  Elec       q    Type
REMARK                         _______ _______ _______ _____ _____    ______ ____
ROOT
ATOM      1  O   UNL     1     -39.045  20.565  -0.814  0.00  0.00    -0.283 OA
ATOM      2  O   UNL     1     -40.080  22.755   0.295  0.00  0.00    -0.283 OA
ATOM      3  C   UNL     1     -37.370  20.344   0.880  0.00  0.00    +0.055 C 
ATOM      4  C   UNL     1     -36.893  20.908   2.008  0.00  0.00    +0.146 C 
ATOM      5  C   UNL     1     -38.536  20.989   0.215  0.00  0.00    +0.233 C 
ATOM      6  C   UNL     1     -37.461  22.110   2.622  0.00  0.00    +0.082 C 
ATOM      7  C   UNL     1     -39.123  22.221   0.833  0.00  0.00    +0.235 C 
ATOM      8  C   UNL     1     -38.515  22.733   2.070  0.00  0.00    +0.063 C 
ENDROOT
BRANCH   4   9
ATOM      9  O   UNL     1     -35.773  20.364   2.617  0.00  0.00    -0.504 OA
ATOM     10  H   UNL     1     -35.778  19.466   2.888  0.00  0.00    +0.292 HD
ENDBRANCH   4   9
BRANCH   6  11
ATOM     11  N   UNL     1     -36.931  22.570   3.804  0.00  0.00    -0.330 N 
ATOM     12  H   UNL     1     -37.338  22.269   4.649  0.00  0.00    +0.147 HD
BRANCH  11  13
ATOM     13  C   UNL     1     -35.812  23.466   3.865  0.00  0.00    +0.099 C 
BRANCH  13  14
ATOM     14  C   UNL     1     -34.877  23.073   5.003  0.00  0.00    +0.130 C 
BRANCH  14  16
ATOM     15  O   UNL     1     -36.120  22.063   6.841  0.00  0.00    -0.250 OA
ATOM     16  C   UNL     1     -35.416  21.939   5.848  0.00  0.00    +0.316 C 
BRANCH  16  17
ATOM     17  O   UNL     1     -35.026  20.731   5.362  0.00  0.00    -0.480 OA
ATOM     18  H   UNL     1     -34.733  20.062   5.950  0.00  0.00    +0.295 HD
ENDBRANCH  16  17
ENDBRANCH  14  16
ENDBRANCH  13  14
ENDBRANCH  11  13
ENDBRANCH   6  11
BRANCH   3  19
ATOM     19  C   UNL     1     -36.818  19.140   0.226  0.00  0.00    +0.033 C 
BRANCH  19  21
ATOM     20  C   UNL     1     -34.353  18.806  -0.328  0.00  0.00    +0.004 C 
ATOM     21  C   UNL     1     -35.692  19.527  -0.777  0.00  0.00    +0.005 C 
ATOM     22  C   UNL     1     -33.173  18.809  -1.374  0.00  0.00    +0.015 C 
ATOM     23  C   UNL     1     -36.109  19.001  -2.198  0.00  0.00    +0.000 C 
ATOM     24  C   UNL     1     -33.729  18.299  -2.729  0.00  0.00    +0.004 C 
ATOM     25  C   UNL     1     -34.961  19.053  -3.214  0.00  0.00    +0.000 C 
ATOM     26  C   UNL     1     -33.856  19.208   1.084  0.00  0.00    +0.001 C 
ATOM     27  C   UNL     1     -32.050  17.900  -0.815  0.00  0.00    -0.045 C 
ATOM     28  C   UNL     1     -35.596  21.065  -0.741  0.00  0.00    +0.000 C 
ATOM     29  C   UNL     1     -32.727  18.295   1.565  0.00  0.00    +0.004 C 
ATOM     30  C   UNL     1     -32.522  20.194  -1.607  0.00  0.00    +0.004 C 
ATOM     31  C   UNL     1     -31.569  18.241   0.579  0.00  0.00    +0.022 C 
ATOM     32  C   UNL     1     -37.332  19.700  -2.813  0.00  0.00    +0.000 C 
ATOM     33  C   UNL     1     -31.490  16.863  -1.463  0.00  0.00    -0.009 C 
ENDBRANCH  19  21
ENDBRANCH   3  19
TORSDOF 8
ENDMDL
MODEL 2
REMARK VINA RESULT:      -6.1      3.610      7.682
REMARK  Name = 50994612
REMARK  8 active torsions:
REMARK  status: ('A' for Active; 'I' for Inactive)
REMARK    1  A    between atoms: C_3  and  C_19
REMARK    2  A    between atoms: C_4  and  O_9
REMARK    3  A    between atoms: C_6  and  N_11
REMARK    4  A    between atoms: N_11  and  C_13
REMARK    5  A    between atoms: C_13  and  C_14
REMARK    6  A    between atoms: C_14  and  C_16
REMARK    7  A    between atoms: C_16  and  O_17
REMARK    8  A    between atoms: C_19  and  C_21
REMARK                            x       y       z     vdW  Elec       q    Type
REMARK                         _______ _______ _______ _____ _____    ______ ____
ROOT
ATOM      1  O   UNL     1     -38.539  26.671   1.688  0.00  0.00    -0.283 OA
ATOM      2  O   UNL     1     -39.694  25.102  -0.130  0.00  0.00    -0.283 OA
ATOM      3  C   UNL     1     -37.708  24.816   2.949  0.00  0.00    +0.055 C 
ATOM      4  C   UNL     1     -37.674  23.469   2.994  0.00  0.00    +0.146 C 
ATOM      5  C   UNL     1     -38.441  25.459   1.823  0.00  0.00    +0.233 C 
ATOM      6  C   UNL     1     -38.305  22.603   1.996  0.00  0.00    +0.082 C 
ATOM      7  C   UNL     1     -39.093  24.582   0.798  0.00  0.00    +0.235 C 
ATOM      8  C   UNL     1     -38.975  23.126   0.956  0.00  0.00    +0.063 C 
ENDROOT
BRANCH   4   9
ATOM      9  O   UNL     1     -37.048  22.842   4.060  0.00  0.00    -0.504 OA
ATOM     10  H   UNL     1     -37.474  22.134   4.503  0.00  0.00    +0.292 HD
ENDBRANCH   4   9
BRANCH   6  11
ATOM     11  N   UNL     1     -38.160  21.240   2.106  0.00  0.00    -0.330 N 
ATOM     12  H   UNL     1     -38.571  20.786   2.877  0.00  0.00    +0.147 HD
BRANCH  11  13
ATOM     13  C   UNL     1     -37.441  20.449   1.150  0.00  0.00    +0.099 C 
BRANCH  13  14
ATOM     14  C   UNL     1     -35.980  20.884   1.091  0.00  0.00    +0.130 C 
BRANCH  14  16
ATOM     15  O   UNL     1     -34.163  19.506   1.951  0.00  0.00    -0.250 OA
ATOM     16  C   UNL     1     -35.125  20.233   2.156  0.00  0.00    +0.316 C 
BRANCH  16  17
ATOM     17  O   UNL     1     -35.552  20.562   3.403  0.00  0.00    -0.480 OA
ATOM     18  H   UNL     1     -36.403  20.294   3.693  0.00  0.00    +0.295 HD
ENDBRANCH  16  17
ENDBRANCH  14  16
ENDBRANCH  13  14
ENDBRANCH  11  13
ENDBRANCH   6  11
BRANCH   3  19
ATOM     19  C   UNL     1     -37.094  25.722   3.941  0.00  0.00    +0.033 C 
BRANCH  19  21
ATOM     20  C   UNL     1     -35.244  27.342   3.268  0.00  0.00    +0.004 C 
ATOM     21  C   UNL     1     -35.562  25.848   3.696  0.00  0.00    +0.005 C 
ATOM     22  C   UNL     1     -33.726  27.763   3.277  0.00  0.00    +0.015 C 
ATOM     23  C   UNL     1     -34.828  25.532   5.049  0.00  0.00    +0.000 C 
ATOM     24  C   UNL     1     -33.124  27.370   4.651  0.00  0.00    +0.004 C 
ATOM     25  C   UNL     1     -33.341  25.908   5.025  0.00  0.00    +0.000 C 
ATOM     26  C   UNL     1     -35.948  27.793   1.963  0.00  0.00    +0.001 C 
ATOM     27  C   UNL     1     -33.662  29.290   3.019  0.00  0.00    -0.045 C 
ATOM     28  C   UNL     1     -35.216  24.816   2.604  0.00  0.00    +0.000 C 
ATOM     29  C   UNL     1     -35.823  29.302   1.748  0.00  0.00    +0.004 C 
ATOM     30  C   UNL     1     -32.868  27.108   2.166  0.00  0.00    +0.004 C 
ATOM     31  C   UNL     1     -34.374  29.770   1.772  0.00  0.00    +0.022 C 
ATOM     32  C   UNL     1     -34.952  24.078   5.528  0.00  0.00    +0.000 C 
ATOM     33  C   UNL     1     -33.038  30.188   3.800  0.00  0.00    -0.009 C 
ENDBRANCH  19  21
ENDBRANCH   3  19
TORSDOF 8
ENDMDL
MODEL 3
REMARK VINA RESULT:      -6.0      5.703      8.339
REMARK  Name = 50994612
REMARK  8 active torsions:
REMARK  status: ('A' for Active; 'I' for Inactive)
REMARK    1  A    between atoms: C_3  and  C_19
REMARK    2  A    between atoms: C_4  and  O_9
REMARK    3  A    between atoms: C_6  and  N_11
REMARK    4  A    between atoms: N_11  and  C_13
REMARK    5  A    between atoms: C_13  and  C_14
REMARK    6  A    between atoms: C_14  and  C_16
REMARK    7  A    between atoms: C_16  and  O_17
REMARK    8  A    between atoms: C_19  and  C_21
REMARK                            x       y       z     vdW  Elec       q    Type
REMARK                         _______ _______ _______ _____ _____    ______ ____
ROOT
ATOM      1  O   UNL     1     -33.900  27.267   0.827  0.00  0.00    -0.283 OA
ATOM      2  O   UNL     1     -34.023  29.925   0.689  0.00  0.00    -0.283 OA
ATOM      3  C   UNL     1     -33.121  27.293   3.089  0.00  0.00    +0.055 C 
ATOM      4  C   UNL     1     -32.785  28.111   4.106  0.00  0.00    +0.146 C 
ATOM      5  C   UNL     1     -33.577  27.914   1.814  0.00  0.00    +0.233 C 
ATOM      6  C   UNL     1     -32.853  29.572   4.036  0.00  0.00    +0.082 C 
ATOM      7  C   UNL     1     -33.648  29.408   1.730  0.00  0.00    +0.235 C 
ATOM      8  C   UNL     1     -33.261  30.188   2.914  0.00  0.00    +0.063 C 
ENDROOT
BRANCH   4   9
ATOM      9  O   UNL     1     -32.302  27.564   5.285  0.00  0.00    -0.504 OA
ATOM     10  H   UNL     1     -31.677  26.867   5.256  0.00  0.00    +0.292 HD
ENDBRANCH   4   9
BRANCH   6  11
ATOM     11  N   UNL     1     -32.541  30.310   5.152  0.00  0.00    -0.330 N 
ATOM     12  H   UNL     1     -33.161  30.289   5.917  0.00  0.00    +0.147 HD
BRANCH  11  13
ATOM     13  C   UNL     1     -31.353  31.109   5.256  0.00  0.00    +0.099 C 
BRANCH  13  14
ATOM     14  C   UNL     1     -30.118  30.218   5.332  0.00  0.00    +0.130 C 
BRANCH  14  16
ATOM     15  O   UNL     1     -28.794  29.550   7.266  0.00  0.00    -0.250 OA
ATOM     16  C   UNL     1     -29.881  29.652   6.716  0.00  0.00    +0.316 C 
BRANCH  16  17
ATOM     17  O   UNL     1     -31.046  29.265   7.298  0.00  0.00    -0.480 OA
ATOM     18  H   UNL     1     -31.388  29.745   8.026  0.00  0.00    +0.295 HD
ENDBRANCH  16  17
ENDBRANCH  14  16
ENDBRANCH  13  14
ENDBRANCH  11  13
ENDBRANCH   6  11
BRANCH   3  19
ATOM     19  C   UNL     1     -33.055  25.817   3.119  0.00  0.00    +0.033 C 
BRANCH  19  21
ATOM     20  C   UNL     1     -34.722  23.969   2.567  0.00  0.00    +0.004 C 
ATOM     21  C   UNL     1     -34.437  25.213   3.507  0.00  0.00    +0.005 C 
ATOM     22  C   UNL     1     -35.912  23.028   2.994  0.00  0.00    +0.015 C 
ATOM     23  C   UNL     1     -34.347  24.723   4.998  0.00  0.00    +0.000 C 
ATOM     24  C   UNL     1     -35.714  22.647   4.484  0.00  0.00    +0.004 C 
ATOM     25  C   UNL     1     -35.536  23.845   5.409  0.00  0.00    +0.000 C 
ATOM     26  C   UNL     1     -34.790  24.315   1.057  0.00  0.00    +0.001 C 
ATOM     27  C   UNL     1     -35.890  21.793   2.059  0.00  0.00    -0.045 C 
ATOM     28  C   UNL     1     -35.464  26.351   3.339  0.00  0.00    +0.000 C 
ATOM     29  C   UNL     1     -34.799  23.056   0.190  0.00  0.00    +0.004 C 
ATOM     30  C   UNL     1     -37.319  23.656   2.836  0.00  0.00    +0.004 C 
ATOM     31  C   UNL     1     -35.916  22.097   0.577  0.00  0.00    +0.022 C 
ATOM     32  C   UNL     1     -34.189  25.842   6.039  0.00  0.00    +0.000 C 
ATOM     33  C   UNL     1     -35.853  20.510   2.462  0.00  0.00    -0.009 C 
ENDBRANCH  19  21
ENDBRANCH   3  19
TORSDOF 8
ENDMDL
MODEL 4
REMARK VINA RESULT:      -5.8      2.247      3.395
REMARK  Name = 50994612
REMARK  8 active torsions:
REMARK  status: ('A' for Active; 'I' for Inactive)
REMARK    1  A    between atoms: C_3  and  C_19
REMARK    2  A    between atoms: C_4  and  O_9
REMARK    3  A    between atoms: C_6  and  N_11
REMARK    4  A    between atoms: N_11  and  C_13
REMARK    5  A    between atoms: C_13  and  C_14
REMARK    6  A    between atoms: C_14  and  C_16
REMARK    7  A    between atoms: C_16  and  O_17
REMARK    8  A    between atoms: C_19  and  C_21
REMARK                            x       y       z     vdW  Elec       q    Type
REMARK                         _______ _______ _______ _____ _____    ______ ____
ROOT
ATOM      1  O   UNL     1     -41.156  23.166   0.786  0.00  0.00    -0.283 OA
ATOM      2  O   UNL     1     -41.427  25.769   1.287  0.00  0.00    -0.283 OA
ATOM      3  C   UNL     1     -39.194  22.980   2.140  0.00  0.00    +0.055 C 
ATOM      4  C   UNL     1     -38.350  23.683   2.923  0.00  0.00    +0.146 C 
ATOM      5  C   UNL     1     -40.335  23.704   1.516  0.00  0.00    +0.233 C 
ATOM      6  C   UNL     1     -38.497  25.112   3.203  0.00  0.00    +0.082 C 
ATOM      7  C   UNL     1     -40.493  25.168   1.793  0.00  0.00    +0.235 C 
ATOM      8  C   UNL     1     -39.509  25.817   2.671  0.00  0.00    +0.063 C 
ENDROOT
BRANCH   4   9
ATOM      9  O   UNL     1     -37.246  23.048   3.471  0.00  0.00    -0.504 OA
ATOM     10  H   UNL     1     -37.361  22.281   3.998  0.00  0.00    +0.292 HD
ENDBRANCH   4   9
BRANCH   6  11
ATOM     11  N   UNL     1     -37.611  25.719   4.061  0.00  0.00    -0.330 N 
ATOM     12  H   UNL     1     -37.841  25.764   5.018  0.00  0.00    +0.147 HD
BRANCH  11  13
ATOM     13  C   UNL     1     -36.368  26.289   3.629  0.00  0.00    +0.099 C 
BRANCH  13  14
ATOM     14  C   UNL     1     -35.354  26.283   4.768  0.00  0.00    +0.130 C 
BRANCH  14  16
ATOM     15  O   UNL     1     -33.613  24.577   4.772  0.00  0.00    -0.250 OA
ATOM     16  C   UNL     1     -34.761  24.914   5.026  0.00  0.00    +0.316 C 
BRANCH  16  17
ATOM     17  O   UNL     1     -35.670  24.080   5.595  0.00  0.00    -0.480 OA
ATOM     18  H   UNL     1     -35.820  24.111   6.519  0.00  0.00    +0.295 HD
ENDBRANCH  16  17
ENDBRANCH  14  16
ENDBRANCH  13  14
ENDBRANCH  11  13
ENDBRANCH   6  11
BRANCH   3  19
ATOM     19  C   UNL     1     -39.072  21.541   1.826  0.00  0.00    +0.033 C 
BRANCH  19  21
ATOM     20  C   UNL     1     -36.930  20.510   0.906  0.00  0.00    +0.004 C 
ATOM     21  C   UNL     1     -38.234  21.330   0.531  0.00  0.00    +0.005 C 
ATOM     22  C   UNL     1     -36.105  19.920  -0.301  0.00  0.00    +0.015 C 
ATOM     23  C   UNL     1     -39.101  20.490  -0.474  0.00  0.00    +0.000 C 
ATOM     24  C   UNL     1     -37.083  19.145  -1.220  0.00  0.00    +0.004 C 
ATOM     25  C   UNL     1     -38.291  19.961  -1.664  0.00  0.00    +0.000 C 
ATOM     26  C   UNL     1     -36.006  21.217   1.930  0.00  0.00    +0.001 C 
ATOM     27  C   UNL     1     -34.999  19.008   0.290  0.00  0.00    -0.045 C 
ATOM     28  C   UNL     1     -37.929  22.739  -0.016  0.00  0.00    +0.000 C 
ATOM     29  C   UNL     1     -34.918  20.276   2.450  0.00  0.00    +0.004 C 
ATOM     30  C   UNL     1     -35.369  20.979  -1.158  0.00  0.00    +0.004 C 
ATOM     31  C   UNL     1     -34.104  19.657   1.323  0.00  0.00    +0.022 C 
ATOM     32  C   UNL     1     -40.345  21.211  -1.017  0.00  0.00    +0.000 C 
ATOM     33  C   UNL     1     -34.788  17.723  -0.043  0.00  0.00    -0.009 C 
ENDBRANCH  19  21
ENDBRANCH   3  19
TORSDOF 8
ENDMDL
MODEL 5
REMARK VINA RESULT:      -5.8      3.080      6.721
REMARK  Name = 50994612
REMARK  8 active torsions:
REMARK  status: ('A' for Active; 'I' for Inactive)
REMARK    1  A    between atoms: C_3  and  C_19
REMARK    2  A    between atoms: C_4  and  O_9
REMARK    3  A    between atoms: C_6  and  N_11
REMARK    4  A    between atoms: N_11  and  C_13
REMARK    5  A    between atoms: C_13  and  C_14
REMARK    6  A    between atoms: C_14  and  C_16
REMARK    7  A    between atoms: C_16  and  O_17
REMARK    8  A    between atoms: C_19  and  C_21
REMARK                            x       y       z     vdW  Elec       q    Type
REMARK                         _______ _______ _______ _____ _____    ______ ____
ROOT
ATOM      1  O   UNL     1     -34.759  22.269  -1.946  0.00  0.00    -0.283 OA
ATOM      2  O   UNL     1     -36.246  20.668  -3.472  0.00  0.00    -0.283 OA
ATOM      3  C   UNL     1     -35.227  21.022   0.041  0.00  0.00    +0.055 C 
ATOM      4  C   UNL     1     -35.903  19.955   0.513  0.00  0.00    +0.146 C 
ATOM      5  C   UNL     1     -35.326  21.324  -1.414  0.00  0.00    +0.233 C 
ATOM      6  C   UNL     1     -36.719  19.071  -0.322  0.00  0.00    +0.082 C 
ATOM      7  C   UNL     1     -36.161  20.428  -2.277  0.00  0.00    +0.235 C 
ATOM      8  C   UNL     1     -36.843  19.292  -1.641  0.00  0.00    +0.063 C 
ENDROOT
BRANCH   4   9
ATOM      9  O   UNL     1     -35.876  19.682   1.872  0.00  0.00    -0.504 OA
ATOM     10  H   UNL     1     -36.398  20.190   2.462  0.00  0.00    +0.292 HD
ENDBRANCH   4   9
BRANCH   6  11
ATOM     11  N   UNL     1     -37.321  17.977   0.252  0.00  0.00    -0.330 N 
ATOM     12  H   UNL     1     -37.120  17.771   1.194  0.00  0.00    +0.147 HD
BRANCH  11  13
ATOM     13  C   UNL     1     -38.231  17.123  -0.455  0.00  0.00    +0.099 C 
BRANCH  13  14
ATOM     14  C   UNL     1     -37.682  15.703  -0.527  0.00  0.00    +0.130 C 
BRANCH  14  16
ATOM     15  O   UNL     1     -35.497  15.958  -1.578  0.00  0.00    -0.250 OA
ATOM     16  C   UNL     1     -36.170  15.655  -0.603  0.00  0.00    +0.316 C 
BRANCH  16  17
ATOM     17  O   UNL     1     -35.629  15.234   0.569  0.00  0.00    -0.480 OA
ATOM     18  H   UNL     1     -34.704  15.292   0.706  0.00  0.00    +0.295 HD
ENDBRANCH  16  17
ENDBRANCH  14  16
ENDBRANCH  13  14
ENDBRANCH  11  13
ENDBRANCH   6  11
BRANCH   3  19
ATOM     19  C   UNL     1     -34.404  21.942   0.853  0.00  0.00    +0.033 C 
BRANCH  19  21
ATOM     20  C   UNL     1     -35.102  23.159   2.981  0.00  0.00    +0.004 C 
ATOM     21  C   UNL     1     -35.270  23.112   1.406  0.00  0.00    +0.005 C 
ATOM     22  C   UNL     1     -35.639  24.453   3.703  0.00  0.00    +0.015 C 
ATOM     23  C   UNL     1     -34.724  24.450   0.788  0.00  0.00    +0.000 C 
ATOM     24  C   UNL     1     -35.048  25.690   2.979  0.00  0.00    +0.004 C 
ATOM     25  C   UNL     1     -35.292  25.699   1.474  0.00  0.00    +0.000 C 
ATOM     26  C   UNL     1     -35.567  21.872   3.710  0.00  0.00    +0.001 C 
ATOM     27  C   UNL     1     -35.206  24.374   5.189  0.00  0.00    -0.045 C 
ATOM     28  C   UNL     1     -36.717  22.823   0.957  0.00  0.00    +0.000 C 
ATOM     29  C   UNL     1     -35.137  21.868   5.177  0.00  0.00    +0.004 C 
ATOM     30  C   UNL     1     -37.182  24.590   3.717  0.00  0.00    +0.004 C 
ATOM     31  C   UNL     1     -35.610  23.111   5.919  0.00  0.00    +0.022 C 
ATOM     32  C   UNL     1     -34.929  24.595  -0.727  0.00  0.00    +0.000 C 
ATOM     33  C   UNL     1     -34.519  25.320   5.853  0.00  0.00    -0.009 C 
ENDBRANCH  19  21
ENDBRANCH   3  19
TORSDOF 8
ENDMDL
MODEL 6
REMARK VINA RESULT:      -5.7      2.685      4.152
REMARK  Name = 50994612
REMARK  8 active torsions:
REMARK  status: ('A' for Active; 'I' for Inactive)
REMARK    1  A    between atoms: C_3  and  C_19
REMARK    2  A    between atoms: C_4  and  O_9
REMARK    3  A    between atoms: C_6  and  N_11
REMARK    4  A    between atoms: N_11  and  C_13
REMARK    5  A    between atoms: C_13  and  C_14
REMARK    6  A    between atoms: C_14  and  C_16
REMARK    7  A    between atoms: C_16  and  O_17
REMARK    8  A    between atoms: C_19  and  C_21
REMARK                            x       y       z     vdW  Elec       q    Type
REMARK                         _______ _______ _______ _____ _____    ______ ____
ROOT
ATOM      1  O   UNL     1     -35.190  20.250   3.472  0.00  0.00    -0.283 OA
ATOM      2  O   UNL     1     -34.813  21.139   5.956  0.00  0.00    -0.283 OA
ATOM      3  C   UNL     1     -36.209  22.293   2.759  0.00  0.00    +0.055 C 
ATOM      4  C   UNL     1     -36.580  23.520   3.179  0.00  0.00    +0.146 C 
ATOM      5  C   UNL     1     -35.560  21.384   3.744  0.00  0.00    +0.233 C 
ATOM      6  C   UNL     1     -36.372  24.013   4.542  0.00  0.00    +0.082 C 
ATOM      7  C   UNL     1     -35.346  21.877   5.143  0.00  0.00    +0.235 C 
ATOM      8  C   UNL     1     -35.789  23.240   5.473  0.00  0.00    +0.063 C 
ENDROOT
BRANCH   4   9
ATOM      9  O   UNL     1     -37.237  24.367   2.300  0.00  0.00    -0.504 OA
ATOM     10  H   UNL     1     -38.138  24.582   2.443  0.00  0.00    +0.292 HD
ENDBRANCH   4   9
BRANCH   6  11
ATOM     11  N   UNL     1     -36.738  25.302   4.849  0.00  0.00    -0.330 N 
ATOM     12  H   UNL     1     -37.660  25.587   4.654  0.00  0.00    +0.147 HD
BRANCH  11  13
ATOM     13  C   UNL     1     -35.840  26.250   5.442  0.00  0.00    +0.099 C 
BRANCH  13  14
ATOM     14  C   UNL     1     -34.708  26.587   4.477  0.00  0.00    +0.130 C 
BRANCH  14  16
ATOM     15  O   UNL     1     -35.543  26.730   2.191  0.00  0.00    -0.250 OA
ATOM     16  C   UNL     1     -35.188  27.284   3.222  0.00  0.00    +0.316 C 
BRANCH  16  17
ATOM     17  O   UNL     1     -35.187  28.634   3.375  0.00  0.00    -0.480 OA
ATOM     18  H   UNL     1     -35.871  29.051   3.862  0.00  0.00    +0.295 HD
ENDBRANCH  16  17
ENDBRANCH  14  16
ENDBRANCH  13  14
ENDBRANCH  11  13
ENDBRANCH   6  11
BRANCH   3  19
ATOM     19  C   UNL     1     -36.410  21.757   1.397  0.00  0.00    +0.033 C 
BRANCH  19  21
ATOM     20  C   UNL     1     -34.453  20.833   0.050  0.00  0.00    +0.004 C 
ATOM     21  C   UNL     1     -35.224  22.153   0.469  0.00  0.00    +0.005 C 
ATOM     22  C   UNL     1     -33.418  20.973  -1.130  0.00  0.00    +0.015 C 
ATOM     23  C   UNL     1     -35.823  22.831  -0.816  0.00  0.00    +0.000 C 
ATOM     24  C   UNL     1     -34.129  21.679  -2.313  0.00  0.00    +0.004 C 
ATOM     25  C   UNL     1     -34.790  23.000  -1.938  0.00  0.00    +0.000 C 
ATOM     26  C   UNL     1     -33.850  20.044   1.240  0.00  0.00    +0.001 C 
ATOM     27  C   UNL     1     -32.931  19.548  -1.497  0.00  0.00    -0.045 C 
ATOM     28  C   UNL     1     -34.354  23.134   1.281  0.00  0.00    +0.000 C 
ATOM     29  C   UNL     1     -33.359  18.661   0.808  0.00  0.00    +0.004 C 
ATOM     30  C   UNL     1     -32.144  21.780  -0.778  0.00  0.00    +0.004 C 
ATOM     31  C   UNL     1     -32.372  18.735  -0.349  0.00  0.00    +0.022 C 
ATOM     32  C   UNL     1     -36.502  24.188  -0.575  0.00  0.00    +0.000 C 
ATOM     33  C   UNL     1     -32.969  19.003  -2.725  0.00  0.00    -0.009 C 
ENDBRANCH  19  21
ENDBRANCH   3  19
TORSDOF 8
ENDMDL
MODEL 7
REMARK VINA RESULT:      -5.6      4.733      7.477
REMARK  Name = 50994612
REMARK  8 active torsions:
REMARK  status: ('A' for Active; 'I' for Inactive)
REMARK    1  A    between atoms: C_3  and  C_19
REMARK    2  A    between atoms: C_4  and  O_9
REMARK    3  A    between atoms: C_6  and  N_11
REMARK    4  A    between atoms: N_11  and  C_13
REMARK    5  A    between atoms: C_13  and  C_14
REMARK    6  A    between atoms: C_14  and  C_16
REMARK    7  A    between atoms: C_16  and  O_17
REMARK    8  A    between atoms: C_19  and  C_21
REMARK                            x       y       z     vdW  Elec       q    Type
REMARK                         _______ _______ _______ _____ _____    ______ ____
ROOT
ATOM      1  O   UNL     1     -37.025  23.364   4.407  0.00  0.00    -0.283 OA
ATOM      2  O   UNL     1     -34.914  22.870   5.957  0.00  0.00    -0.283 OA
ATOM      3  C   UNL     1     -36.350  25.620   3.989  0.00  0.00    +0.055 C 
ATOM      4  C   UNL     1     -35.397  26.532   4.268  0.00  0.00    +0.146 C 
ATOM      5  C   UNL     1     -36.216  24.264   4.589  0.00  0.00    +0.233 C 
ATOM      6  C   UNL     1     -34.234  26.264   5.116  0.00  0.00    +0.082 C 
ATOM      7  C   UNL     1     -35.032  23.980   5.462  0.00  0.00    +0.235 C 
ATOM      8  C   UNL     1     -34.058  25.059   5.682  0.00  0.00    +0.063 C 
ENDROOT
BRANCH   4   9
ATOM      9  O   UNL     1     -35.524  27.820   3.769  0.00  0.00    -0.504 OA
ATOM     10  H   UNL     1     -35.902  28.493   4.301  0.00  0.00    +0.292 HD
ENDBRANCH   4   9
BRANCH   6  11
ATOM     11  N   UNL     1     -33.292  27.250   5.289  0.00  0.00    -0.330 N 
ATOM     12  H   UNL     1     -33.128  27.878   4.549  0.00  0.00    +0.147 HD
BRANCH  11  13
ATOM     13  C   UNL     1     -32.538  27.408   6.499  0.00  0.00    +0.099 C 
BRANCH  13  14
ATOM     14  C   UNL     1     -31.824  28.755   6.510  0.00  0.00    +0.130 C 
BRANCH  14  16
ATOM     15  O   UNL     1     -32.857  30.355   4.990  0.00  0.00    -0.250 OA
ATOM     16  C   UNL     1     -31.990  29.524   5.216  0.00  0.00    +0.316 C 
BRANCH  16  17
ATOM     17  O   UNL     1     -31.035  29.183   4.312  0.00  0.00    -0.480 OA
ATOM     18  H   UNL     1     -30.573  29.850   3.844  0.00  0.00    +0.295 HD
ENDBRANCH  16  17
ENDBRANCH  14  16
ENDBRANCH  13  14
ENDBRANCH  11  13
ENDBRANCH   6  11
BRANCH   3  19
ATOM     19  C   UNL     1     -37.541  25.856   3.147  0.00  0.00    +0.033 C 
BRANCH  19  21
ATOM     20  C   UNL     1     -38.312  24.393   1.207  0.00  0.00    +0.004 C 
ATOM     21  C   UNL     1     -37.250  25.478   1.665  0.00  0.00    +0.005 C 
ATOM     22  C   UNL     1     -38.395  24.106  -0.340  0.00  0.00    +0.015 C 
ATOM     23  C   UNL     1     -37.428  26.773   0.793  0.00  0.00    +0.000 C 
ATOM     24  C   UNL     1     -38.538  25.464  -1.076  0.00  0.00    +0.004 C 
ATOM     25  C   UNL     1     -37.461  26.480  -0.712  0.00  0.00    +0.000 C 
ATOM     26  C   UNL     1     -38.269  23.076   2.024  0.00  0.00    +0.001 C 
ATOM     27  C   UNL     1     -39.609  23.173  -0.579  0.00  0.00    -0.045 C 
ATOM     28  C   UNL     1     -35.798  24.960   1.631  0.00  0.00    +0.000 C 
ATOM     29  C   UNL     1     -39.475  22.186   1.721  0.00  0.00    +0.004 C 
ATOM     30  C   UNL     1     -37.167  23.364  -0.925  0.00  0.00    +0.004 C 
ATOM     31  C   UNL     1     -39.618  21.896   0.233  0.00  0.00    +0.022 C 
ATOM     32  C   UNL     1     -36.386  27.873   1.048  0.00  0.00    +0.000 C 
ATOM     33  C   UNL     1     -40.621  23.411  -1.432  0.00  0.00    -0.009 C 
ENDBRANCH  19  21
ENDBRANCH   3  19
TORSDOF 8
ENDMDL
MODEL 8
REMARK VINA RESULT:      -5.6      4.571      7.474
REMARK  Name = 50994612
REMARK  8 active torsions:
REMARK  status: ('A' for Active; 'I' for Inactive)
REMARK    1  A    between atoms: C_3  and  C_19
REMARK    2  A    between atoms: C_4  and  O_9
REMARK    3  A    between atoms: C_6  and  N_11
REMARK    4  A    between atoms: N_11  and  C_13
REMARK    5  A    between atoms: C_13  and  C_14
REMARK    6  A    between atoms: C_14  and  C_16
REMARK    7  A    between atoms: C_16  and  O_17
REMARK    8  A    between atoms: C_19  and  C_21
REMARK                            x       y       z     vdW  Elec       q    Type
REMARK                         _______ _______ _______ _____ _____    ______ ____
ROOT
ATOM      1  O   UNL     1     -39.184  26.602   2.557  0.00  0.00    -0.283 OA
ATOM      2  O   UNL     1     -40.130  28.214   0.657  0.00  0.00    -0.283 OA
ATOM      3  C   UNL     1     -40.149  24.653   1.563  0.00  0.00    +0.055 C 
ATOM      4  C   UNL     1     -40.895  24.227   0.524  0.00  0.00    +0.146 C 
ATOM      5  C   UNL     1     -39.846  26.108   1.655  0.00  0.00    +0.233 C 
ATOM      6  C   UNL     1     -41.415  25.108  -0.524  0.00  0.00    +0.082 C 
ATOM      7  C   UNL     1     -40.375  27.020   0.590  0.00  0.00    +0.235 C 
ATOM      8  C   UNL     1     -41.170  26.428  -0.496  0.00  0.00    +0.063 C 
ENDROOT
BRANCH   4   9
ATOM      9  O   UNL     1     -41.241  22.887   0.442  0.00  0.00    -0.504 OA
ATOM     10  H   UNL     1     -41.456  22.508  -0.388  0.00  0.00    +0.292 HD
ENDBRANCH   4   9
BRANCH   6  11
ATOM     11  N   UNL     1     -42.118  24.560  -1.570  0.00  0.00    -0.330 N 
ATOM     12  H   UNL     1     -41.790  23.720  -1.967  0.00  0.00    +0.147 HD
BRANCH  11  13
ATOM     13  C   UNL     1     -43.307  25.154  -2.110  0.00  0.00    +0.099 C 
BRANCH  13  14
ATOM     14  C   UNL     1     -44.438  24.133  -2.155  0.00  0.00    +0.130 C 
BRANCH  14  16
ATOM     15  O   UNL     1     -44.229  22.837  -0.101  0.00  0.00    -0.250 OA
ATOM     16  C   UNL     1     -44.159  22.901  -1.320  0.00  0.00    +0.316 C 
BRANCH  16  17
ATOM     17  O   UNL     1     -43.819  21.842  -2.100  0.00  0.00    -0.480 OA
ATOM     18  H   UNL     1     -42.971  21.451  -2.016  0.00  0.00    +0.295 HD
ENDBRANCH  16  17
ENDBRANCH  14  16
ENDBRANCH  13  14
ENDBRANCH  11  13
ENDBRANCH   6  11
BRANCH   3  19
ATOM     19  C   UNL     1     -39.617  23.797   2.643  0.00  0.00    +0.033 C 
BRANCH  19  21
ATOM     20  C   UNL     1     -37.234  23.607   3.528  0.00  0.00    +0.004 C 
ATOM     21  C   UNL     1     -38.183  23.301   2.295  0.00  0.00    +0.005 C 
ATOM     22  C   UNL     1     -35.821  22.909   3.513  0.00  0.00    +0.015 C 
ATOM     23  C   UNL     1     -38.250  21.747   2.070  0.00  0.00    +0.000 C 
ATOM     24  C   UNL     1     -36.034  21.396   3.255  0.00  0.00    +0.004 C 
ATOM     25  C   UNL     1     -36.865  21.091   2.014  0.00  0.00    +0.000 C 
ATOM     26  C   UNL     1     -37.117  25.112   3.883  0.00  0.00    +0.001 C 
ATOM     27  C   UNL     1     -35.147  23.188   4.881  0.00  0.00    -0.045 C 
ATOM     28  C   UNL     1     -37.771  24.048   1.011  0.00  0.00    +0.000 C 
ATOM     29  C   UNL     1     -36.415  25.322   5.225  0.00  0.00    +0.004 C 
ATOM     30  C   UNL     1     -34.845  23.453   2.440  0.00  0.00    +0.004 C 
ATOM     31  C   UNL     1     -35.052  24.646   5.275  0.00  0.00    +0.022 C 
ATOM     32  C   UNL     1     -39.045  21.307   0.831  0.00  0.00    +0.000 C 
ATOM     33  C   UNL     1     -34.656  22.253   5.713  0.00  0.00    -0.009 C 
ENDBRANCH  19  21
ENDBRANCH   3  19
TORSDOF 8
ENDMDL
MODEL 9
REMARK VINA RESULT:      -5.6      3.053      6.858
REMARK  Name = 50994612
REMARK  8 active torsions:
REMARK  status: ('A' for Active; 'I' for Inactive)
REMARK    1  A    between atoms: C_3  and  C_19
REMARK    2  A    between atoms: C_4  and  O_9
REMARK    3  A    between atoms: C_6  and  N_11
REMARK    4  A    between atoms: N_11  and  C_13
REMARK    5  A    between atoms: C_13  and  C_14
REMARK    6  A    between atoms: C_14  and  C_16
REMARK    7  A    between atoms: C_16  and  O_17
REMARK    8  A    between atoms: C_19  and  C_21
REMARK                            x       y       z     vdW  Elec       q    Type
REMARK                         _______ _______ _______ _____ _____    ______ ____
ROOT
ATOM      1  O   UNL     1     -34.663  21.930  -1.929  0.00  0.00    -0.283 OA
ATOM      2  O   UNL     1     -36.137  20.299  -3.435  0.00  0.00    -0.283 OA
ATOM      3  C   UNL     1     -35.211  20.770   0.090  0.00  0.00    +0.055 C 
ATOM      4  C   UNL     1     -35.922  19.735   0.583  0.00  0.00    +0.146 C 
ATOM      5  C   UNL     1     -35.263  21.017  -1.378  0.00  0.00    +0.233 C 
ATOM      6  C   UNL     1     -36.731  18.835  -0.241  0.00  0.00    +0.082 C 
ATOM      7  C   UNL     1     -36.091  20.104  -2.230  0.00  0.00    +0.235 C 
ATOM      8  C   UNL     1     -36.813  19.006  -1.571  0.00  0.00    +0.063 C 
ENDROOT
BRANCH   4   9
ATOM      9  O   UNL     1     -35.939  19.515   1.951  0.00  0.00    -0.504 OA
ATOM     10  H   UNL     1     -36.753  19.504   2.414  0.00  0.00    +0.292 HD
ENDBRANCH   4   9
BRANCH   6  11
ATOM     11  N   UNL     1     -37.371  17.776   0.357  0.00  0.00    -0.330 N 
ATOM     12  H   UNL     1     -37.979  17.959   1.109  0.00  0.00    +0.147 HD
BRANCH  11  13
ATOM     13  C   UNL     1     -37.195  16.416  -0.065  0.00  0.00    +0.099 C 
BRANCH  13  14
ATOM     14  C   UNL     1     -38.547  15.760  -0.324  0.00  0.00    +0.130 C 
BRANCH  14  16
ATOM     15  O   UNL     1     -39.251  15.965  -2.649  0.00  0.00    -0.250 OA
ATOM     16  C   UNL     1     -39.286  16.370  -1.496  0.00  0.00    +0.316 C 
BRANCH  16  17
ATOM     17  O   UNL     1     -40.021  17.447  -1.111  0.00  0.00    -0.480 OA
ATOM     18  H   UNL     1     -40.877  17.581  -1.467  0.00  0.00    +0.295 HD
ENDBRANCH  16  17
ENDBRANCH  14  16
ENDBRANCH  13  14
ENDBRANCH  11  13
ENDBRANCH   6  11
BRANCH   3  19
ATOM     19  C   UNL     1     -34.393  21.705   0.890  0.00  0.00    +0.033 C 
BRANCH  19  21
ATOM     20  C   UNL     1     -35.099  22.994   2.973  0.00  0.00    +0.004 C 
ATOM     21  C   UNL     1     -35.259  22.895   1.398  0.00  0.00    +0.005 C 
ATOM     22  C   UNL     1     -35.636  24.313   3.648  0.00  0.00    +0.015 C 
ATOM     23  C   UNL     1     -34.705  24.210   0.740  0.00  0.00    +0.000 C 
ATOM     24  C   UNL     1     -35.037  25.523   2.886  0.00  0.00    +0.004 C 
ATOM     25  C   UNL     1     -35.273  25.483   1.381  0.00  0.00    +0.000 C 
ATOM     26  C   UNL     1     -35.572  21.733   3.741  0.00  0.00    +0.001 C 
ATOM     27  C   UNL     1     -35.211  24.282   5.138  0.00  0.00    -0.045 C 
ATOM     28  C   UNL     1     -36.704  22.596   0.951  0.00  0.00    +0.000 C 
ATOM     29  C   UNL     1     -35.151  21.777   5.210  0.00  0.00    +0.004 C 
ATOM     30  C   UNL     1     -37.178  24.455   3.649  0.00  0.00    +0.004 C 
ATOM     31  C   UNL     1     -35.623  23.045   5.908  0.00  0.00    +0.022 C 
ATOM     32  C   UNL     1     -34.901  24.305  -0.781  0.00  0.00    +0.000 C 
ATOM     33  C   UNL     1     -34.525  25.248   5.774  0.00  0.00    -0.009 C 
ENDBRANCH  19  21
ENDBRANCH   3  19
TORSDOF 8
ENDMDL
