MODEL 1
REMARK VINA RESULT:      -6.4      0.000      0.000
REMARK  Name = 5281670
REMARK  6 active torsions:
REMARK  status: ('A' for Active; 'I' for Inactive)
REMARK    1  A    between atoms: C_4  and  C_12
REMARK    2  A    between atoms: C_6  and  O_22
REMARK    3  A    between atoms: C_8  and  O_24
REMARK    4  A    between atoms: C_10  and  O_26
REMARK    5  A    between atoms: C_13  and  O_18
REMARK    6  A    between atoms: C_17  and  O_20
REMARK                            x       y       z     vdW  Elec       q    Type
REMARK                         _______ _______ _______ _____ _____    ______ ____
ROOT
ATOM      1  O   UNL     1     -37.659  23.146   2.224  0.00  0.00    -0.450 OA
ATOM      2  O   UNL     1     -35.123  20.510   4.022  0.00  0.00    -0.283 OA
ATOM      3  C   UNL     1     -36.052  22.678   3.982  0.00  0.00    +0.110 A 
ATOM      4  C   UNL     1     -37.517  21.847   1.760  0.00  0.00    +0.185 A 
ATOM      5  C   UNL     1     -36.932  23.531   3.322  0.00  0.00    +0.155 A 
ATOM      6  C   UNL     1     -36.695  20.929   2.300  0.00  0.00    +0.208 A 
ATOM      7  C   UNL     1     -35.887  21.303   3.487  0.00  0.00    +0.238 A 
ATOM      8  C   UNL     1     -35.337  23.126   5.097  0.00  0.00    +0.143 C 
ATOM      9  C   UNL     1     -37.105  24.840   3.771  0.00  0.00    +0.074 C 
ATOM     10  C   UNL     1     -36.393  25.292   4.883  0.00  0.00    +0.140 C 
ATOM     11  C   UNL     1     -35.512  24.436   5.544  0.00  0.00    +0.073 C 
ENDROOT
BRANCH   4  12
ATOM     12  C   UNL     1     -38.350  21.565   0.578  0.00  0.00    +0.072 C 
ATOM     13  C   UNL     1     -39.686  21.182   0.710  0.00  0.00    +0.140 C 
ATOM     14  C   UNL     1     -37.785  21.686  -0.693  0.00  0.00    +0.009 C 
ATOM     15  C   UNL     1     -40.455  20.921  -0.425  0.00  0.00    +0.073 C 
ATOM     16  C   UNL     1     -38.553  21.425  -1.828  0.00  0.00    +0.037 C 
ATOM     17  C   UNL     1     -39.888  21.042  -1.694  0.00  0.00    +0.137 C 
BRANCH  13  18
ATOM     18  O   UNL     1     -40.265  21.057   1.939  0.00  0.00    -0.505 OA
ATOM     19  H   UNL     1     -40.888  20.375   2.095  0.00  0.00    +0.292 HD
ENDBRANCH  13  18
BRANCH  17  20
ATOM     20  O   UNL     1     -40.637  20.788  -2.801  0.00  0.00    -0.505 OA
ATOM     21  H   UNL     1     -40.307  21.004  -3.650  0.00  0.00    +0.292 HD
ENDBRANCH  17  20
ENDBRANCH   4  12
BRANCH   6  22
ATOM     22  O   UNL     1     -36.553  19.656   1.794  0.00  0.00    -0.501 OA
ATOM     23  H   UNL     1     -36.725  19.490   0.888  0.00  0.00    +0.292 HD
ENDBRANCH   6  22
BRANCH   8  24
ATOM     24  O   UNL     1     -34.463  22.333   5.777  0.00  0.00    -0.505 OA
ATOM     25  H   UNL     1     -34.100  22.626   6.589  0.00  0.00    +0.292 HD
ENDBRANCH   8  24
BRANCH  10  26
ATOM     26  O   UNL     1     -36.560  26.569   5.323  0.00  0.00    -0.505 OA
ATOM     27  H   UNL     1     -36.353  26.790   6.210  0.00  0.00    +0.292 HD
ENDBRANCH  10  26
TORSDOF 6
ENDMDL
MODEL 2
REMARK VINA RESULT:      -6.3      2.129      6.790
REMARK  Name = 5281670
REMARK  6 active torsions:
REMARK  status: ('A' for Active; 'I' for Inactive)
REMARK    1  A    between atoms: C_4  and  C_12
REMARK    2  A    between atoms: C_6  and  O_22
REMARK    3  A    between atoms: C_8  and  O_24
REMARK    4  A    between atoms: C_10  and  O_26
REMARK    5  A    between atoms: C_13  and  O_18
REMARK    6  A    between atoms: C_17  and  O_20
REMARK                            x       y       z     vdW  Elec       q    Type
REMARK                         _______ _______ _______ _____ _____    ______ ____
ROOT
ATOM      1  O   UNL     1     -35.171  21.623   2.368  0.00  0.00    -0.450 OA
ATOM      2  O   UNL     1     -39.102  21.235   1.367  0.00  0.00    -0.283 OA
ATOM      3  C   UNL     1     -36.901  20.411   1.172  0.00  0.00    +0.110 A 
ATOM      4  C   UNL     1     -36.130  22.500   2.850  0.00  0.00    +0.185 A 
ATOM      5  C   UNL     1     -35.574  20.599   1.549  0.00  0.00    +0.155 A 
ATOM      6  C   UNL     1     -37.441  22.435   2.555  0.00  0.00    +0.208 A 
ATOM      7  C   UNL     1     -37.922  21.346   1.670  0.00  0.00    +0.238 A 
ATOM      8  C   UNL     1     -37.254  19.349   0.334  0.00  0.00    +0.143 C 
ATOM      9  C   UNL     1     -34.587  19.726   1.090  0.00  0.00    +0.074 C 
ATOM     10  C   UNL     1     -34.934  18.666   0.252  0.00  0.00    +0.140 C 
ATOM     11  C   UNL     1     -36.265  18.478  -0.124  0.00  0.00    +0.073 C 
ENDROOT
BRANCH   4  12
ATOM     12  C   UNL     1     -35.564  23.550   3.715  0.00  0.00    +0.072 C 
ATOM     13  C   UNL     1     -35.614  23.445   5.106  0.00  0.00    +0.140 C 
ATOM     14  C   UNL     1     -34.970  24.667   3.124  0.00  0.00    +0.009 C 
ATOM     15  C   UNL     1     -35.071  24.453   5.904  0.00  0.00    +0.073 C 
ATOM     16  C   UNL     1     -34.428  25.675   3.921  0.00  0.00    +0.037 C 
ATOM     17  C   UNL     1     -34.478  25.568   5.311  0.00  0.00    +0.137 C 
BRANCH  13  18
ATOM     18  O   UNL     1     -36.187  22.365   5.711  0.00  0.00    -0.505 OA
ATOM     19  H   UNL     1     -36.774  22.489   6.431  0.00  0.00    +0.292 HD
ENDBRANCH  13  18
BRANCH  17  20
ATOM     20  O   UNL     1     -33.949  26.551   6.089  0.00  0.00    -0.505 OA
ATOM     21  H   UNL     1     -34.119  27.450   5.888  0.00  0.00    +0.292 HD
ENDBRANCH  17  20
ENDBRANCH   4  12
BRANCH   6  22
ATOM     22  O   UNL     1     -38.364  23.343   3.025  0.00  0.00    -0.501 OA
ATOM     23  H   UNL     1     -38.171  24.260   3.005  0.00  0.00    +0.292 HD
ENDBRANCH   6  22
BRANCH   8  24
ATOM     24  O   UNL     1     -38.536  19.122  -0.065  0.00  0.00    -0.505 OA
ATOM     25  H   UNL     1     -38.862  18.245  -0.114  0.00  0.00    +0.292 HD
ENDBRANCH   8  24
BRANCH  10  26
ATOM     26  O   UNL     1     -33.974  17.813  -0.198  0.00  0.00    -0.505 OA
ATOM     27  H   UNL     1     -34.205  16.946  -0.467  0.00  0.00    +0.292 HD
ENDBRANCH  10  26
TORSDOF 6
ENDMDL
MODEL 3
REMARK VINA RESULT:      -6.3      1.815      6.871
REMARK  Name = 5281670
REMARK  6 active torsions:
REMARK  status: ('A' for Active; 'I' for Inactive)
REMARK    1  A    between atoms: C_4  and  C_12
REMARK    2  A    between atoms: C_6  and  O_22
REMARK    3  A    between atoms: C_8  and  O_24
REMARK    4  A    between atoms: C_10  and  O_26
REMARK    5  A    between atoms: C_13  and  O_18
REMARK    6  A    between atoms: C_17  and  O_20
REMARK                            x       y       z     vdW  Elec       q    Type
REMARK                         _______ _______ _______ _____ _____    ______ ____
ROOT
ATOM      1  O   UNL     1     -36.530  22.503   2.386  0.00  0.00    -0.450 OA
ATOM      2  O   UNL     1     -40.544  23.097   2.010  0.00  0.00    -0.283 OA
ATOM      3  C   UNL     1     -38.645  21.839   1.397  0.00  0.00    +0.110 A 
ATOM      4  C   UNL     1     -37.181  23.508   3.083  0.00  0.00    +0.185 A 
ATOM      5  C   UNL     1     -37.272  21.690   1.567  0.00  0.00    +0.155 A 
ATOM      6  C   UNL     1     -38.500  23.765   3.001  0.00  0.00    +0.208 A 
ATOM      7  C   UNL     1     -39.340  22.914   2.124  0.00  0.00    +0.238 A 
ATOM      8  C   UNL     1     -39.350  20.981   0.548  0.00  0.00    +0.143 C 
ATOM      9  C   UNL     1     -36.590  20.680   0.888  0.00  0.00    +0.074 C 
ATOM     10  C   UNL     1     -37.289  19.821   0.038  0.00  0.00    +0.140 C 
ATOM     11  C   UNL     1     -38.665  19.971  -0.130  0.00  0.00    +0.073 C 
ENDROOT
BRANCH   4  12
ATOM     12  C   UNL     1     -36.271  24.306   3.923  0.00  0.00    +0.072 C 
ATOM     13  C   UNL     1     -35.805  23.822   5.147  0.00  0.00    +0.140 C 
ATOM     14  C   UNL     1     -35.872  25.569   3.479  0.00  0.00    +0.009 C 
ATOM     15  C   UNL     1     -34.943  24.597   5.924  0.00  0.00    +0.073 C 
ATOM     16  C   UNL     1     -35.010  26.344   4.256  0.00  0.00    +0.037 C 
ATOM     17  C   UNL     1     -34.546  25.858   5.479  0.00  0.00    +0.137 C 
BRANCH  13  18
ATOM     18  O   UNL     1     -36.178  22.593   5.606  0.00  0.00    -0.505 OA
ATOM     19  H   UNL     1     -35.591  21.867   5.529  0.00  0.00    +0.292 HD
ENDBRANCH  13  18
BRANCH  17  20
ATOM     20  O   UNL     1     -33.706  26.614   6.237  0.00  0.00    -0.505 OA
ATOM     21  H   UNL     1     -32.836  26.790   5.937  0.00  0.00    +0.292 HD
ENDBRANCH  17  20
ENDBRANCH   4  12
BRANCH   6  22
ATOM     22  O   UNL     1     -39.109  24.795   3.683  0.00  0.00    -0.501 OA
ATOM     23  H   UNL     1     -38.616  25.316   4.285  0.00  0.00    +0.292 HD
ENDBRANCH   6  22
BRANCH   8  24
ATOM     24  O   UNL     1     -40.693  21.085   0.346  0.00  0.00    -0.505 OA
ATOM     25  H   UNL     1     -41.289  20.698   0.956  0.00  0.00    +0.292 HD
ENDBRANCH   8  24
BRANCH  10  26
ATOM     26  O   UNL     1     -36.626  18.835  -0.626  0.00  0.00    -0.505 OA
ATOM     27  H   UNL     1     -36.605  17.966  -0.275  0.00  0.00    +0.292 HD
ENDBRANCH  10  26
TORSDOF 6
ENDMDL
MODEL 4
REMARK VINA RESULT:      -6.2      2.760      6.844
REMARK  Name = 5281670
REMARK  6 active torsions:
REMARK  status: ('A' for Active; 'I' for Inactive)
REMARK    1  A    between atoms: C_4  and  C_12
REMARK    2  A    between atoms: C_6  and  O_22
REMARK    3  A    between atoms: C_8  and  O_24
REMARK    4  A    between atoms: C_10  and  O_26
REMARK    5  A    between atoms: C_13  and  O_18
REMARK    6  A    between atoms: C_17  and  O_20
REMARK                            x       y       z     vdW  Elec       q    Type
REMARK                         _______ _______ _______ _____ _____    ______ ____
ROOT
ATOM      1  O   UNL     1     -34.505  20.573   2.367  0.00  0.00    -0.450 OA
ATOM      2  O   UNL     1     -37.696  19.631   0.013  0.00  0.00    -0.283 OA
ATOM      3  C   UNL     1     -35.493  19.125   0.688  0.00  0.00    +0.110 A 
ATOM      4  C   UNL     1     -35.680  21.307   2.413  0.00  0.00    +0.185 A 
ATOM      5  C   UNL     1     -34.438  19.500   1.515  0.00  0.00    +0.155 A 
ATOM      6  C   UNL     1     -36.767  21.056   1.660  0.00  0.00    +0.208 A 
ATOM      7  C   UNL     1     -36.737  19.908   0.722  0.00  0.00    +0.238 A 
ATOM      8  C   UNL     1     -35.367  18.022  -0.162  0.00  0.00    +0.143 C 
ATOM      9  C   UNL     1     -33.246  18.774   1.500  0.00  0.00    +0.074 C 
ATOM     10  C   UNL     1     -33.116  17.673   0.653  0.00  0.00    +0.140 C 
ATOM     11  C   UNL     1     -34.174  17.297  -0.175  0.00  0.00    +0.073 C 
ENDROOT
BRANCH   4  12
ATOM     12  C   UNL     1     -35.618  22.429   3.366  0.00  0.00    +0.072 C 
ATOM     13  C   UNL     1     -35.562  22.206   4.743  0.00  0.00    +0.140 C 
ATOM     14  C   UNL     1     -35.616  23.736   2.874  0.00  0.00    +0.009 C 
ATOM     15  C   UNL     1     -35.505  23.286   5.625  0.00  0.00    +0.073 C 
ATOM     16  C   UNL     1     -35.559  24.816   3.756  0.00  0.00    +0.037 C 
ATOM     17  C   UNL     1     -35.503  24.590   5.131  0.00  0.00    +0.137 C 
BRANCH  13  18
ATOM     18  O   UNL     1     -35.562  20.941   5.252  0.00  0.00    -0.505 OA
ATOM     19  H   UNL     1     -35.467  20.807   6.174  0.00  0.00    +0.292 HD
ENDBRANCH  13  18
BRANCH  17  20
ATOM     20  O   UNL     1     -35.447  25.643   5.991  0.00  0.00    -0.505 OA
ATOM     21  H   UNL     1     -34.807  26.316   5.867  0.00  0.00    +0.292 HD
ENDBRANCH  17  20
ENDBRANCH   4  12
BRANCH   6  22
ATOM     22  O   UNL     1     -37.907  21.827   1.707  0.00  0.00    -0.501 OA
ATOM     23  H   UNL     1     -38.328  22.090   0.912  0.00  0.00    +0.292 HD
ENDBRANCH   6  22
BRANCH   8  24
ATOM     24  O   UNL     1     -36.367  17.614  -0.991  0.00  0.00    -0.505 OA
ATOM     25  H   UNL     1     -36.923  16.904  -0.739  0.00  0.00    +0.292 HD
ENDBRANCH   8  24
BRANCH  10  26
ATOM     26  O   UNL     1     -31.954  16.963   0.636  0.00  0.00    -0.505 OA
ATOM     27  H   UNL     1     -31.320  17.084   1.316  0.00  0.00    +0.292 HD
ENDBRANCH  10  26
TORSDOF 6
ENDMDL
MODEL 5
REMARK VINA RESULT:      -6.1      3.919      8.648
REMARK  Name = 5281670
REMARK  6 active torsions:
REMARK  status: ('A' for Active; 'I' for Inactive)
REMARK    1  A    between atoms: C_4  and  C_12
REMARK    2  A    between atoms: C_6  and  O_22
REMARK    3  A    between atoms: C_8  and  O_24
REMARK    4  A    between atoms: C_10  and  O_26
REMARK    5  A    between atoms: C_13  and  O_18
REMARK    6  A    between atoms: C_17  and  O_20
REMARK                            x       y       z     vdW  Elec       q    Type
REMARK                         _______ _______ _______ _____ _____    ______ ____
ROOT
ATOM      1  O   UNL     1     -33.539  25.470   5.096  0.00  0.00    -0.450 OA
ATOM      2  O   UNL     1     -36.933  26.352   3.020  0.00  0.00    -0.283 OA
ATOM      3  C   UNL     1     -35.663  24.736   4.178  0.00  0.00    +0.110 A 
ATOM      4  C   UNL     1     -33.779  26.745   4.610  0.00  0.00    +0.185 A 
ATOM      5  C   UNL     1     -34.483  24.499   4.877  0.00  0.00    +0.155 A 
ATOM      6  C   UNL     1     -34.872  27.104   3.912  0.00  0.00    +0.208 A 
ATOM      7  C   UNL     1     -35.917  26.085   3.648  0.00  0.00    +0.238 A 
ATOM      8  C   UNL     1     -36.589  23.707   3.985  0.00  0.00    +0.143 C 
ATOM      9  C   UNL     1     -34.218  23.228   5.389  0.00  0.00    +0.074 C 
ATOM     10  C   UNL     1     -35.139  22.197   5.198  0.00  0.00    +0.140 C 
ATOM     11  C   UNL     1     -36.322  22.437   4.498  0.00  0.00    +0.073 C 
ENDROOT
BRANCH   4  12
ATOM     12  C   UNL     1     -32.689  27.690   4.912  0.00  0.00    +0.072 C 
ATOM     13  C   UNL     1     -32.242  27.882   6.221  0.00  0.00    +0.140 C 
ATOM     14  C   UNL     1     -32.098  28.400   3.865  0.00  0.00    +0.009 C 
ATOM     15  C   UNL     1     -31.208  28.782   6.482  0.00  0.00    +0.073 C 
ATOM     16  C   UNL     1     -31.063  29.299   4.126  0.00  0.00    +0.037 C 
ATOM     17  C   UNL     1     -30.619  29.491   5.434  0.00  0.00    +0.137 C 
BRANCH  13  18
ATOM     18  O   UNL     1     -32.800  27.203   7.263  0.00  0.00    -0.505 OA
ATOM     19  H   UNL     1     -32.278  26.973   8.006  0.00  0.00    +0.292 HD
ENDBRANCH  13  18
BRANCH  17  20
ATOM     20  O   UNL     1     -29.611  30.368   5.689  0.00  0.00    -0.505 OA
ATOM     21  H   UNL     1     -29.795  31.283   5.770  0.00  0.00    +0.292 HD
ENDBRANCH  17  20
ENDBRANCH   4  12
BRANCH   6  22
ATOM     22  O   UNL     1     -35.064  28.373   3.413  0.00  0.00    -0.501 OA
ATOM     23  H   UNL     1     -35.825  28.862   3.656  0.00  0.00    +0.292 HD
ENDBRANCH   6  22
BRANCH   8  24
ATOM     24  O   UNL     1     -37.757  23.886   3.307  0.00  0.00    -0.505 OA
ATOM     25  H   UNL     1     -38.006  23.282   2.637  0.00  0.00    +0.292 HD
ENDBRANCH   8  24
BRANCH  10  26
ATOM     26  O   UNL     1     -34.883  20.957   5.696  0.00  0.00    -0.505 OA
ATOM     27  H   UNL     1     -34.398  20.338   5.186  0.00  0.00    +0.292 HD
ENDBRANCH  10  26
TORSDOF 6
ENDMDL
MODEL 6
REMARK VINA RESULT:      -6.1      4.704      7.560
REMARK  Name = 5281670
REMARK  6 active torsions:
REMARK  status: ('A' for Active; 'I' for Inactive)
REMARK    1  A    between atoms: C_4  and  C_12
REMARK    2  A    between atoms: C_6  and  O_22
REMARK    3  A    between atoms: C_8  and  O_24
REMARK    4  A    between atoms: C_10  and  O_26
REMARK    5  A    between atoms: C_13  and  O_18
REMARK    6  A    between atoms: C_17  and  O_20
REMARK                            x       y       z     vdW  Elec       q    Type
REMARK                         _______ _______ _______ _____ _____    ______ ____
ROOT
ATOM      1  O   UNL     1     -33.132  27.086   5.082  0.00  0.00    -0.450 OA
ATOM      2  O   UNL     1     -33.330  30.143   2.394  0.00  0.00    -0.283 OA
ATOM      3  C   UNL     1     -32.362  29.272   4.361  0.00  0.00    +0.110 A 
ATOM      4  C   UNL     1     -33.976  27.030   3.984  0.00  0.00    +0.185 A 
ATOM      5  C   UNL     1     -32.343  28.196   5.244  0.00  0.00    +0.155 A 
ATOM      6  C   UNL     1     -34.096  28.004   3.063  0.00  0.00    +0.208 A 
ATOM      7  C   UNL     1     -33.265  29.225   3.201  0.00  0.00    +0.238 A 
ATOM      8  C   UNL     1     -31.536  30.378   4.577  0.00  0.00    +0.143 C 
ATOM      9  C   UNL     1     -31.496  28.218   6.353  0.00  0.00    +0.074 C 
ATOM     10  C   UNL     1     -30.670  29.320   6.573  0.00  0.00    +0.140 C 
ATOM     11  C   UNL     1     -30.689  30.397   5.687  0.00  0.00    +0.073 C 
ENDROOT
BRANCH   4  12
ATOM     12  C   UNL     1     -34.766  25.788   3.930  0.00  0.00    +0.072 C 
ATOM     13  C   UNL     1     -35.928  25.637   4.689  0.00  0.00    +0.140 C 
ATOM     14  C   UNL     1     -34.338  24.748   3.101  0.00  0.00    +0.009 C 
ATOM     15  C   UNL     1     -36.660  24.451   4.620  0.00  0.00    +0.073 C 
ATOM     16  C   UNL     1     -35.070  23.562   3.032  0.00  0.00    +0.037 C 
ATOM     17  C   UNL     1     -36.230  23.413   3.792  0.00  0.00    +0.137 C 
BRANCH  13  18
ATOM     18  O   UNL     1     -36.370  26.635   5.506  0.00  0.00    -0.505 OA
ATOM     19  H   UNL     1     -35.815  27.367   5.694  0.00  0.00    +0.292 HD
ENDBRANCH  13  18
BRANCH  17  20
ATOM     20  O   UNL     1     -36.943  22.256   3.725  0.00  0.00    -0.505 OA
ATOM     21  H   UNL     1     -37.469  22.073   2.972  0.00  0.00    +0.292 HD
ENDBRANCH  17  20
ENDBRANCH   4  12
BRANCH   6  22
ATOM     22  O   UNL     1     -34.970  27.931   2.001  0.00  0.00    -0.501 OA
ATOM     23  H   UNL     1     -35.829  27.578   2.124  0.00  0.00    +0.292 HD
ENDBRANCH   6  22
BRANCH   8  24
ATOM     24  O   UNL     1     -31.517  31.457   3.745  0.00  0.00    -0.505 OA
ATOM     25  H   UNL     1     -32.275  32.001   3.668  0.00  0.00    +0.292 HD
ENDBRANCH   8  24
BRANCH  10  26
ATOM     26  O   UNL     1     -29.843  29.344   7.654  0.00  0.00    -0.505 OA
ATOM     27  H   UNL     1     -29.707  28.566   8.158  0.00  0.00    +0.292 HD
ENDBRANCH  10  26
TORSDOF 6
ENDMDL
MODEL 7
REMARK VINA RESULT:      -6.1      2.399      7.268
REMARK  Name = 5281670
REMARK  6 active torsions:
REMARK  status: ('A' for Active; 'I' for Inactive)
REMARK    1  A    between atoms: C_4  and  C_12
REMARK    2  A    between atoms: C_6  and  O_22
REMARK    3  A    between atoms: C_8  and  O_24
REMARK    4  A    between atoms: C_10  and  O_26
REMARK    5  A    between atoms: C_13  and  O_18
REMARK    6  A    between atoms: C_17  and  O_20
REMARK                            x       y       z     vdW  Elec       q    Type
REMARK                         _______ _______ _______ _____ _____    ______ ____
ROOT
ATOM      1  O   UNL     1     -34.956  23.358   3.201  0.00  0.00    -0.450 OA
ATOM      2  O   UNL     1     -39.013  23.711   3.057  0.00  0.00    -0.283 OA
ATOM      3  C   UNL     1     -37.103  22.413   2.579  0.00  0.00    +0.110 A 
ATOM      4  C   UNL     1     -35.603  24.474   3.707  0.00  0.00    +0.185 A 
ATOM      5  C   UNL     1     -35.714  22.354   2.656  0.00  0.00    +0.155 A 
ATOM      6  C   UNL     1     -36.936  24.659   3.686  0.00  0.00    +0.208 A 
ATOM      7  C   UNL     1     -37.795  23.601   3.103  0.00  0.00    +0.238 A 
ATOM      8  C   UNL     1     -37.824  21.358   2.013  0.00  0.00    +0.143 C 
ATOM      9  C   UNL     1     -35.034  21.239   2.166  0.00  0.00    +0.074 C 
ATOM     10  C   UNL     1     -35.750  20.184   1.598  0.00  0.00    +0.140 C 
ATOM     11  C   UNL     1     -37.142  20.244   1.523  0.00  0.00    +0.073 C 
ENDROOT
BRANCH   4  12
ATOM     12  C   UNL     1     -34.674  25.476   4.260  0.00  0.00    +0.072 C 
ATOM     13  C   UNL     1     -33.981  26.356   3.427  0.00  0.00    +0.140 C 
ATOM     14  C   UNL     1     -34.490  25.538   5.643  0.00  0.00    +0.009 C 
ATOM     15  C   UNL     1     -33.106  27.295   3.975  0.00  0.00    +0.073 C 
ATOM     16  C   UNL     1     -33.616  26.478   6.191  0.00  0.00    +0.037 C 
ATOM     17  C   UNL     1     -32.924  27.356   5.357  0.00  0.00    +0.137 C 
BRANCH  13  18
ATOM     18  O   UNL     1     -34.141  26.318   2.073  0.00  0.00    -0.505 OA
ATOM     19  H   UNL     1     -33.840  25.576   1.587  0.00  0.00    +0.292 HD
ENDBRANCH  13  18
BRANCH  17  20
ATOM     20  O   UNL     1     -32.072  28.272   5.891  0.00  0.00    -0.505 OA
ATOM     21  H   UNL     1     -32.004  28.362   6.821  0.00  0.00    +0.292 HD
ENDBRANCH  17  20
ENDBRANCH   4  12
BRANCH   6  22
ATOM     22  O   UNL     1     -37.545  25.797   4.168  0.00  0.00    -0.501 OA
ATOM     23  H   UNL     1     -38.002  26.368   3.583  0.00  0.00    +0.292 HD
ENDBRANCH   6  22
BRANCH   8  24
ATOM     24  O   UNL     1     -39.183  21.366   1.912  0.00  0.00    -0.505 OA
ATOM     25  H   UNL     1     -39.708  21.167   2.662  0.00  0.00    +0.292 HD
ENDBRANCH   8  24
BRANCH  10  26
ATOM     26  O   UNL     1     -35.089  19.095   1.118  0.00  0.00    -0.505 OA
ATOM     27  H   UNL     1     -34.627  18.530   1.706  0.00  0.00    +0.292 HD
ENDBRANCH  10  26
TORSDOF 6
ENDMDL
MODEL 8
REMARK VINA RESULT:      -5.9      2.409      3.669
REMARK  Name = 5281670
REMARK  6 active torsions:
REMARK  status: ('A' for Active; 'I' for Inactive)
REMARK    1  A    between atoms: C_4  and  C_12
REMARK    2  A    between atoms: C_6  and  O_22
REMARK    3  A    between atoms: C_8  and  O_24
REMARK    4  A    between atoms: C_10  and  O_26
REMARK    5  A    between atoms: C_13  and  O_18
REMARK    6  A    between atoms: C_17  and  O_20
REMARK                            x       y       z     vdW  Elec       q    Type
REMARK                         _______ _______ _______ _____ _____    ______ ____
ROOT
ATOM      1  O   UNL     1     -36.201  22.823   1.642  0.00  0.00    -0.450 OA
ATOM      2  O   UNL     1     -35.872  23.071   5.696  0.00  0.00    -0.283 OA
ATOM      3  C   UNL     1     -36.393  24.151   3.665  0.00  0.00    +0.110 A 
ATOM      4  C   UNL     1     -35.820  21.731   2.405  0.00  0.00    +0.185 A 
ATOM      5  C   UNL     1     -36.484  24.002   2.284  0.00  0.00    +0.155 A 
ATOM      6  C   UNL     1     -35.684  21.744   3.744  0.00  0.00    +0.208 A 
ATOM      7  C   UNL     1     -35.976  22.998   4.479  0.00  0.00    +0.238 A 
ATOM      8  C   UNL     1     -36.693  25.377   4.265  0.00  0.00    +0.143 C 
ATOM      9  C   UNL     1     -36.876  25.080   1.490  0.00  0.00    +0.074 C 
ATOM     10  C   UNL     1     -37.176  26.306   2.084  0.00  0.00    +0.140 C 
ATOM     11  C   UNL     1     -37.085  26.454   3.468  0.00  0.00    +0.073 C 
ENDROOT
BRANCH   4  12
ATOM     12  C   UNL     1     -35.545  20.532   1.594  0.00  0.00    +0.072 C 
ATOM     13  C   UNL     1     -36.575  19.841   0.953  0.00  0.00    +0.140 C 
ATOM     14  C   UNL     1     -34.227  20.086   1.468  0.00  0.00    +0.009 C 
ATOM     15  C   UNL     1     -36.289  18.708   0.190  0.00  0.00    +0.073 C 
ATOM     16  C   UNL     1     -33.941  18.953   0.705  0.00  0.00    +0.037 C 
ATOM     17  C   UNL     1     -34.973  18.264   0.067  0.00  0.00    +0.137 C 
BRANCH  13  18
ATOM     18  O   UNL     1     -37.871  20.253   1.058  0.00  0.00    -0.505 OA
ATOM     19  H   UNL     1     -38.351  20.489   0.288  0.00  0.00    +0.292 HD
ENDBRANCH  13  18
BRANCH  17  20
ATOM     20  O   UNL     1     -34.693  17.160  -0.677  0.00  0.00    -0.505 OA
ATOM     21  H   UNL     1     -33.973  17.168  -1.276  0.00  0.00    +0.292 HD
ENDBRANCH  17  20
ENDBRANCH   4  12
BRANCH   6  22
ATOM     22  O   UNL     1     -35.270  20.648   4.469  0.00  0.00    -0.501 OA
ATOM     23  H   UNL     1     -35.111  20.728   5.389  0.00  0.00    +0.292 HD
ENDBRANCH   6  22
BRANCH   8  24
ATOM     24  O   UNL     1     -36.619  25.575   5.610  0.00  0.00    -0.505 OA
ATOM     25  H   UNL     1     -37.403  25.693   6.110  0.00  0.00    +0.292 HD
ENDBRANCH   8  24
BRANCH  10  26
ATOM     26  O   UNL     1     -37.559  27.360   1.312  0.00  0.00    -0.505 OA
ATOM     27  H   UNL     1     -37.335  28.234   1.566  0.00  0.00    +0.292 HD
ENDBRANCH  10  26
TORSDOF 6
ENDMDL
MODEL 9
REMARK VINA RESULT:      -5.9      3.653      6.573
REMARK  Name = 5281670
REMARK  6 active torsions:
REMARK  status: ('A' for Active; 'I' for Inactive)
REMARK    1  A    between atoms: C_4  and  C_12
REMARK    2  A    between atoms: C_6  and  O_22
REMARK    3  A    between atoms: C_8  and  O_24
REMARK    4  A    between atoms: C_10  and  O_26
REMARK    5  A    between atoms: C_13  and  O_18
REMARK    6  A    between atoms: C_17  and  O_20
REMARK                            x       y       z     vdW  Elec       q    Type
REMARK                         _______ _______ _______ _____ _____    ______ ____
ROOT
ATOM      1  O   UNL     1     -35.010  26.321   3.181  0.00  0.00    -0.450 OA
ATOM      2  O   UNL     1     -38.421  27.288   1.171  0.00  0.00    -0.283 OA
ATOM      3  C   UNL     1     -36.253  27.924   1.849  0.00  0.00    +0.110 A 
ATOM      4  C   UNL     1     -36.077  25.440   3.100  0.00  0.00    +0.185 A 
ATOM      5  C   UNL     1     -35.117  27.536   2.553  0.00  0.00    +0.155 A 
ATOM      6  C   UNL     1     -37.233  25.696   2.460  0.00  0.00    +0.208 A 
ATOM      7  C   UNL     1     -37.394  26.998   1.770  0.00  0.00    +0.238 A 
ATOM      8  C   UNL     1     -36.306  29.176   1.228  0.00  0.00    +0.143 C 
ATOM      9  C   UNL     1     -34.022  28.396   2.643  0.00  0.00    +0.074 C 
ATOM     10  C   UNL     1     -34.071  29.647   2.026  0.00  0.00    +0.140 C 
ATOM     11  C   UNL     1     -35.210  30.035   1.320  0.00  0.00    +0.073 C 
ENDROOT
BRANCH   4  12
ATOM     12  C   UNL     1     -35.833  24.176   3.818  0.00  0.00    +0.072 C 
ATOM     13  C   UNL     1     -35.693  24.149   5.207  0.00  0.00    +0.140 C 
ATOM     14  C   UNL     1     -35.742  22.989   3.087  0.00  0.00    +0.009 C 
ATOM     15  C   UNL     1     -35.463  22.939   5.863  0.00  0.00    +0.073 C 
ATOM     16  C   UNL     1     -35.511  21.779   3.744  0.00  0.00    +0.037 C 
ATOM     17  C   UNL     1     -35.372  21.755   5.132  0.00  0.00    +0.137 C 
BRANCH  13  18
ATOM     18  O   UNL     1     -35.778  25.292   5.946  0.00  0.00    -0.505 OA
ATOM     19  H   UNL     1     -36.206  25.280   6.779  0.00  0.00    +0.292 HD
ENDBRANCH  13  18
BRANCH  17  20
ATOM     20  O   UNL     1     -35.147  20.575   5.772  0.00  0.00    -0.505 OA
ATOM     21  H   UNL     1     -34.602  19.924   5.376  0.00  0.00    +0.292 HD
ENDBRANCH  17  20
ENDBRANCH   4  12
BRANCH   6  22
ATOM     22  O   UNL     1     -38.286  24.810   2.427  0.00  0.00    -0.501 OA
ATOM     23  H   UNL     1     -38.978  24.926   1.806  0.00  0.00    +0.292 HD
ENDBRANCH   6  22
BRANCH   8  24
ATOM     24  O   UNL     1     -37.393  29.605   0.529  0.00  0.00    -0.505 OA
ATOM     25  H   UNL     1     -37.948  28.984   0.100  0.00  0.00    +0.292 HD
ENDBRANCH   8  24
BRANCH  10  26
ATOM     26  O   UNL     1     -33.005  30.489   2.112  0.00  0.00    -0.505 OA
ATOM     27  H   UNL     1     -32.350  30.486   1.442  0.00  0.00    +0.292 HD
ENDBRANCH  10  26
TORSDOF 6
ENDMDL
