MODEL 1
REMARK VINA RESULT:      -6.4      0.000      0.000
REMARK  Name = 53318662
REMARK  9 active torsions:
REMARK  status: ('A' for Active; 'I' for Inactive)
REMARK    1  A    between atoms: C_5  and  C_27
REMARK    2  A    between atoms: C_11  and  O_23
REMARK    3  A    between atoms: C_19  and  O_25
REMARK    4  A    between atoms: C_27  and  C_29
REMARK    5  A    between atoms: C_29  and  C_30
REMARK    6  A    between atoms: C_30  and  C_31
REMARK    7  A    between atoms: C_31  and  C_33
REMARK    8  A    between atoms: C_33  and  C_36
REMARK    9  A    between atoms: C_36  and  O_37
REMARK                            x       y       z     vdW  Elec       q    Type
REMARK                         _______ _______ _______ _____ _____    ______ ____
ROOT
ATOM      1  O   UNL     1     -37.066  28.379   1.242  0.00  0.00    -0.289 OA
ATOM      2  O   UNL     1     -33.518  24.724   4.315  0.00  0.00    -0.292 OA
ATOM      3  C   UNL     1     -37.222  24.936   2.155  0.00  0.00    +0.036 C 
ATOM      4  C   UNL     1     -36.192  24.933   3.306  0.00  0.00    +0.028 C 
ATOM      5  C   UNL     1     -38.146  23.787   2.631  0.00  0.00    +0.003 C 
ATOM      6  C   UNL     1     -34.376  28.351   2.409  0.00  0.00    +0.022 C 
ATOM      7  C   UNL     1     -35.844  23.443   3.428  0.00  0.00    +0.005 C 
ATOM      8  C   UNL     1     -35.149  26.014   3.141  0.00  0.00    +0.011 C 
ATOM      9  C   UNL     1     -37.157  22.706   3.109  0.00  0.00    +0.000 C 
ATOM     10  C   UNL     1     -33.256  28.162   3.496  0.00  0.00    +0.014 C 
ATOM     11  C   UNL     1     -37.862  26.323   2.106  0.00  0.00    +0.171 C 
ATOM     12  C   UNL     1     -35.410  27.205   2.545  0.00  0.00    +0.013 C 
ATOM     13  C   UNL     1     -32.170  29.275   3.463  0.00  0.00    +0.028 C 
ATOM     14  C   UNL     1     -36.602  24.615   0.765  0.00  0.00    +0.003 C 
ATOM     15  C   UNL     1     -34.981  29.766   2.654  0.00  0.00    +0.007 C 
ATOM     16  C   UNL     1     -36.788  27.387   1.917  0.00  0.00    +0.195 C 
ATOM     17  C   UNL     1     -32.682  26.753   3.426  0.00  0.00    +0.069 C 
ATOM     18  C   UNL     1     -33.776  25.750   3.687  0.00  0.00    +0.169 C 
ATOM     19  C   UNL     1     -32.820  30.659   3.660  0.00  0.00    +0.110 C 
ATOM     20  C   UNL     1     -33.944  30.896   2.661  0.00  0.00    +0.030 C 
ATOM     21  C   UNL     1     -33.819  28.270   0.966  0.00  0.00    +0.004 C 
ATOM     22  C   UNL     1     -31.063  29.059   4.504  0.00  0.00    +0.003 C 
ENDROOT
BRANCH  11  23
ATOM     23  O   UNL     1     -38.546  26.646   3.306  0.00  0.00    -0.377 OA
ATOM     24  H   UNL     1     -38.976  27.509   3.211  0.00  0.00    +0.211 HD
ENDBRANCH  11  23
BRANCH  19  25
ATOM     25  O   UNL     1     -33.368  30.787   4.972  0.00  0.00    -0.384 OA
ATOM     26  H   UNL     1     -34.303  31.039   4.908  0.00  0.00    +0.210 HD
ENDBRANCH  19  25
BRANCH   5  27
ATOM     27  C   UNL     1     -39.152  23.265   1.616  0.00  0.00    +0.000 C 
ATOM     28  C   UNL     1     -40.486  23.999   1.776  0.00  0.00    +0.000 C 
BRANCH  27  29
ATOM     29  C   UNL     1     -39.306  21.734   1.761  0.00  0.00    +0.004 C 
BRANCH  29  30
ATOM     30  C   UNL     1     -39.309  20.983   0.421  0.00  0.00    +0.023 C 
BRANCH  30  31
ATOM     31  C   UNL     1     -37.965  20.773  -0.271  0.00  0.00    -0.034 C 
ATOM     32  C   UNL     1     -37.450  21.638  -1.162  0.00  0.00    -0.009 C 
BRANCH  31  33
ATOM     33  C   UNL     1     -37.256  19.482   0.134  0.00  0.00    +0.117 C 
ATOM     34  C   UNL     1     -36.514  18.744  -0.982  0.00  0.00    +0.016 C 
BRANCH  33  36
ATOM     35  O   UNL     1     -35.145  20.255   1.098  0.00  0.00    -0.250 OA
ATOM     36  C   UNL     1     -36.269  19.793   1.252  0.00  0.00    +0.317 C 
BRANCH  36  37
ATOM     37  O   UNL     1     -36.767  19.471   2.476  0.00  0.00    -0.480 OA
ATOM     38  H   UNL     1     -37.221  18.660   2.598  0.00  0.00    +0.295 HD
ENDBRANCH  36  37
ENDBRANCH  33  36
ENDBRANCH  31  33
ENDBRANCH  30  31
ENDBRANCH  29  30
ENDBRANCH  27  29
ENDBRANCH   5  27
TORSDOF 9
ENDMDL
MODEL 2
REMARK VINA RESULT:      -6.4      2.077      3.438
REMARK  Name = 53318662
REMARK  9 active torsions:
REMARK  status: ('A' for Active; 'I' for Inactive)
REMARK    1  A    between atoms: C_5  and  C_27
REMARK    2  A    between atoms: C_11  and  O_23
REMARK    3  A    between atoms: C_19  and  O_25
REMARK    4  A    between atoms: C_27  and  C_29
REMARK    5  A    between atoms: C_29  and  C_30
REMARK    6  A    between atoms: C_30  and  C_31
REMARK    7  A    between atoms: C_31  and  C_33
REMARK    8  A    between atoms: C_33  and  C_36
REMARK    9  A    between atoms: C_36  and  O_37
REMARK                            x       y       z     vdW  Elec       q    Type
REMARK                         _______ _______ _______ _____ _____    ______ ____
ROOT
ATOM      1  O   UNL     1     -32.790  28.384   1.252  0.00  0.00    -0.289 OA
ATOM      2  O   UNL     1     -32.818  27.064   7.052  0.00  0.00    -0.292 OA
ATOM      3  C   UNL     1     -34.911  26.438   3.356  0.00  0.00    +0.036 C 
ATOM      4  C   UNL     1     -34.496  27.010   4.730  0.00  0.00    +0.028 C 
ATOM      5  C   UNL     1     -36.376  26.044   3.670  0.00  0.00    +0.003 C 
ATOM      6  C   UNL     1     -31.067  28.672   3.607  0.00  0.00    +0.022 C 
ATOM      7  C   UNL     1     -34.985  25.922   5.697  0.00  0.00    +0.005 C 
ATOM      8  C   UNL     1     -33.079  27.534   4.726  0.00  0.00    +0.011 C 
ATOM      9  C   UNL     1     -36.280  25.385   5.061  0.00  0.00    +0.000 C 
ATOM     10  C   UNL     1     -30.649  29.049   5.074  0.00  0.00    +0.014 C 
ATOM     11  C   UNL     1     -34.731  27.545   2.318  0.00  0.00    +0.171 C 
ATOM     12  C   UNL     1     -32.498  28.078   3.626  0.00  0.00    +0.013 C 
ATOM     13  C   UNL     1     -29.228  29.675   5.169  0.00  0.00    +0.028 C 
ATOM     14  C   UNL     1     -34.079  25.197   2.923  0.00  0.00    +0.003 C 
ATOM     15  C   UNL     1     -30.950  29.984   2.774  0.00  0.00    +0.007 C 
ATOM     16  C   UNL     1     -33.289  28.037   2.323  0.00  0.00    +0.195 C 
ATOM     17  C   UNL     1     -30.849  27.859   6.004  0.00  0.00    +0.069 C 
ATOM     18  C   UNL     1     -32.303  27.463   6.008  0.00  0.00    +0.169 C 
ATOM     19  C   UNL     1     -29.145  30.941   4.292  0.00  0.00    +0.110 C 
ATOM     20  C   UNL     1     -29.575  30.657   2.859  0.00  0.00    +0.030 C 
ATOM     21  C   UNL     1     -30.151  27.586   2.991  0.00  0.00    +0.004 C 
ATOM     22  C   UNL     1     -28.817  30.004   6.611  0.00  0.00    +0.003 C 
ENDROOT
BRANCH  11  23
ATOM     23  O   UNL     1     -35.546  28.675   2.585  0.00  0.00    -0.377 OA
ATOM     24  H   UNL     1     -36.356  28.390   3.036  0.00  0.00    +0.211 HD
ENDBRANCH  11  23
BRANCH  19  25
ATOM     25  O   UNL     1     -29.985  31.976   4.803  0.00  0.00    -0.384 OA
ATOM     26  H   UNL     1     -29.477  32.533   5.413  0.00  0.00    +0.210 HD
ENDBRANCH  19  25
BRANCH   5  27
ATOM     27  C   UNL     1     -37.074  25.165   2.643  0.00  0.00    +0.000 C 
ATOM     28  C   UNL     1     -37.981  26.021   1.753  0.00  0.00    +0.000 C 
BRANCH  27  29
ATOM     29  C   UNL     1     -37.851  24.035   3.354  0.00  0.00    +0.004 C 
BRANCH  29  30
ATOM     30  C   UNL     1     -37.651  22.651   2.716  0.00  0.00    +0.023 C 
BRANCH  30  31
ATOM     31  C   UNL     1     -36.261  22.029   2.808  0.00  0.00    -0.034 C 
ATOM     32  C   UNL     1     -35.557  21.960   3.951  0.00  0.00    -0.009 C 
BRANCH  31  33
ATOM     33  C   UNL     1     -35.733  21.495   1.477  0.00  0.00    +0.117 C 
ATOM     34  C   UNL     1     -34.500  22.203   0.911  0.00  0.00    +0.016 C 
BRANCH  33  36
ATOM     35  O   UNL     1     -34.295  19.538   1.759  0.00  0.00    -0.250 OA
ATOM     36  C   UNL     1     -35.417  20.013   1.632  0.00  0.00    +0.317 C 
BRANCH  36  37
ATOM     37  O   UNL     1     -36.538  19.245   1.587  0.00  0.00    -0.480 OA
ATOM     38  H   UNL     1     -37.365  19.609   1.836  0.00  0.00    +0.295 HD
ENDBRANCH  36  37
ENDBRANCH  33  36
ENDBRANCH  31  33
ENDBRANCH  30  31
ENDBRANCH  29  30
ENDBRANCH  27  29
ENDBRANCH   5  27
TORSDOF 9
ENDMDL
MODEL 3
REMARK VINA RESULT:      -6.4      2.088      9.262
REMARK  Name = 53318662
REMARK  9 active torsions:
REMARK  status: ('A' for Active; 'I' for Inactive)
REMARK    1  A    between atoms: C_5  and  C_27
REMARK    2  A    between atoms: C_11  and  O_23
REMARK    3  A    between atoms: C_19  and  O_25
REMARK    4  A    between atoms: C_27  and  C_29
REMARK    5  A    between atoms: C_29  and  C_30
REMARK    6  A    between atoms: C_30  and  C_31
REMARK    7  A    between atoms: C_31  and  C_33
REMARK    8  A    between atoms: C_33  and  C_36
REMARK    9  A    between atoms: C_36  and  O_37
REMARK                            x       y       z     vdW  Elec       q    Type
REMARK                         _______ _______ _______ _____ _____    ______ ____
ROOT
ATOM      1  O   UNL     1     -33.633  20.007   1.463  0.00  0.00    -0.289 OA
ATOM      2  O   UNL     1     -39.365  20.000  -0.128  0.00  0.00    -0.292 OA
ATOM      3  C   UNL     1     -36.399  22.165   2.096  0.00  0.00    +0.036 C 
ATOM      4  C   UNL     1     -37.554  21.205   1.739  0.00  0.00    +0.028 C 
ATOM      5  C   UNL     1     -37.109  23.045   3.155  0.00  0.00    +0.003 C 
ATOM      6  C   UNL     1     -35.437  18.567  -0.345  0.00  0.00    +0.022 C 
ATOM      7  C   UNL     1     -38.726  22.174   1.517  0.00  0.00    +0.005 C 
ATOM      8  C   UNL     1     -37.140  20.166   0.724  0.00  0.00    +0.011 C 
ATOM      9  C   UNL     1     -38.495  23.307   2.532  0.00  0.00    +0.000 C 
ATOM     10  C   UNL     1     -36.704  17.760  -0.808  0.00  0.00    +0.014 C 
ATOM     11  C   UNL     1     -35.234  21.320   2.611  0.00  0.00    +0.171 C 
ATOM     12  C   UNL     1     -35.878  19.672   0.649  0.00  0.00    +0.013 C 
ATOM     13  C   UNL     1     -36.372  16.608  -1.799  0.00  0.00    +0.028 C 
ATOM     14  C   UNL     1     -35.909  23.024   0.894  0.00  0.00    +0.003 C 
ATOM     15  C   UNL     1     -34.463  17.523   0.279  0.00  0.00    +0.007 C 
ATOM     16  C   UNL     1     -34.825  20.298   1.558  0.00  0.00    +0.195 C 
ATOM     17  C   UNL     1     -37.778  18.710  -1.322  0.00  0.00    +0.069 C 
ATOM     18  C   UNL     1     -38.188  19.651  -0.218  0.00  0.00    +0.169 C 
ATOM     19  C   UNL     1     -35.370  15.627  -1.158  0.00  0.00    +0.110 C 
ATOM     20  C   UNL     1     -34.129  16.349  -0.649  0.00  0.00    +0.030 C 
ATOM     21  C   UNL     1     -34.734  19.292  -1.520  0.00  0.00    +0.004 C 
ATOM     22  C   UNL     1     -37.621  15.851  -2.272  0.00  0.00    +0.003 C 
ENDROOT
BRANCH  11  23
ATOM     23  O   UNL     1     -35.572  20.589   3.778  0.00  0.00    -0.377 OA
ATOM     24  H   UNL     1     -34.797  20.092   4.084  0.00  0.00    +0.211 HD
ENDBRANCH  11  23
BRANCH  19  25
ATOM     25  O   UNL     1     -35.958  14.940  -0.053  0.00  0.00    -0.384 OA
ATOM     26  H   UNL     1     -35.267  14.469   0.439  0.00  0.00    +0.210 HD
ENDBRANCH  19  25
BRANCH   5  27
ATOM     27  C   UNL     1     -36.391  24.322   3.565  0.00  0.00    +0.000 C 
ATOM     28  C   UNL     1     -35.992  24.246   5.042  0.00  0.00    +0.000 C 
BRANCH  27  29
ATOM     29  C   UNL     1     -37.278  25.550   3.262  0.00  0.00    +0.004 C 
BRANCH  29  30
ATOM     30  C   UNL     1     -36.694  26.487   2.193  0.00  0.00    +0.023 C 
BRANCH  30  31
ATOM     31  C   UNL     1     -35.183  26.690   2.187  0.00  0.00    -0.034 C 
ATOM     32  C   UNL     1     -34.376  26.206   1.227  0.00  0.00    -0.009 C 
BRANCH  31  33
ATOM     33  C   UNL     1     -34.662  27.491   3.379  0.00  0.00    +0.117 C 
ATOM     34  C   UNL     1     -33.414  26.935   4.069  0.00  0.00    +0.016 C 
BRANCH  33  36
ATOM     35  O   UNL     1     -33.370  29.279   2.322  0.00  0.00    -0.250 OA
ATOM     36  C   UNL     1     -34.373  28.917   2.925  0.00  0.00    +0.317 C 
BRANCH  36  37
ATOM     37  O   UNL     1     -35.358  29.779   3.292  0.00  0.00    -0.480 OA
ATOM     38  H   UNL     1     -35.142  30.651   3.558  0.00  0.00    +0.295 HD
ENDBRANCH  36  37
ENDBRANCH  33  36
ENDBRANCH  31  33
ENDBRANCH  30  31
ENDBRANCH  29  30
ENDBRANCH  27  29
ENDBRANCH   5  27
TORSDOF 9
ENDMDL
MODEL 4
REMARK VINA RESULT:      -6.3      2.080      9.301
REMARK  Name = 53318662
REMARK  9 active torsions:
REMARK  status: ('A' for Active; 'I' for Inactive)
REMARK    1  A    between atoms: C_5  and  C_27
REMARK    2  A    between atoms: C_11  and  O_23
REMARK    3  A    between atoms: C_19  and  O_25
REMARK    4  A    between atoms: C_27  and  C_29
REMARK    5  A    between atoms: C_29  and  C_30
REMARK    6  A    between atoms: C_30  and  C_31
REMARK    7  A    between atoms: C_31  and  C_33
REMARK    8  A    between atoms: C_33  and  C_36
REMARK    9  A    between atoms: C_36  and  O_37
REMARK                            x       y       z     vdW  Elec       q    Type
REMARK                         _______ _______ _______ _____ _____    ______ ____
ROOT
ATOM      1  O   UNL     1     -34.238  19.735   1.212  0.00  0.00    -0.289 OA
ATOM      2  O   UNL     1     -39.941  21.329   0.640  0.00  0.00    -0.292 OA
ATOM      3  C   UNL     1     -36.182  22.496   2.355  0.00  0.00    +0.036 C 
ATOM      4  C   UNL     1     -37.595  21.896   2.186  0.00  0.00    +0.028 C 
ATOM      5  C   UNL     1     -36.449  23.461   3.537  0.00  0.00    +0.003 C 
ATOM      6  C   UNL     1     -36.631  18.936  -0.283  0.00  0.00    +0.022 C 
ATOM      7  C   UNL     1     -38.483  23.150   2.189  0.00  0.00    +0.005 C 
ATOM      8  C   UNL     1     -37.646  20.852   1.095  0.00  0.00    +0.011 C 
ATOM      9  C   UNL     1     -37.795  24.115   3.170  0.00  0.00    +0.000 C 
ATOM     10  C   UNL     1     -38.126  18.520  -0.534  0.00  0.00    +0.014 C 
ATOM     11  C   UNL     1     -35.220  21.345   2.644  0.00  0.00    +0.171 C 
ATOM     12  C   UNL     1     -36.592  20.051   0.793  0.00  0.00    +0.013 C 
ATOM     13  C   UNL     1     -38.282  17.387  -1.588  0.00  0.00    +0.028 C 
ATOM     14  C   UNL     1     -35.682  23.272   1.102  0.00  0.00    +0.003 C 
ATOM     15  C   UNL     1     -35.886  17.635   0.143  0.00  0.00    +0.007 C 
ATOM     16  C   UNL     1     -35.277  20.320   1.518  0.00  0.00    +0.195 C 
ATOM     17  C   UNL     1     -38.975  19.748  -0.835  0.00  0.00    +0.069 C 
ATOM     18  C   UNL     1     -38.932  20.690   0.340  0.00  0.00    +0.169 C 
ATOM     19  C   UNL     1     -37.489  16.139  -1.149  0.00  0.00    +0.110 C 
ATOM     20  C   UNL     1     -36.035  16.477  -0.850  0.00  0.00    +0.030 C 
ATOM     21  C   UNL     1     -35.961  19.525  -1.548  0.00  0.00    +0.004 C 
ATOM     22  C   UNL     1     -39.747  17.015  -1.851  0.00  0.00    +0.003 C 
ENDROOT
BRANCH  11  23
ATOM     23  O   UNL     1     -35.547  20.653   3.838  0.00  0.00    -0.377 OA
ATOM     24  H   UNL     1     -35.979  21.262   4.457  0.00  0.00    +0.211 HD
ENDBRANCH  11  23
BRANCH  19  25
ATOM     25  O   UNL     1     -38.053  15.560   0.028  0.00  0.00    -0.384 OA
ATOM     26  H   UNL     1     -37.534  15.831   0.802  0.00  0.00    +0.210 HD
ENDBRANCH  19  25
BRANCH   5  27
ATOM     27  C   UNL     1     -35.357  24.477   3.840  0.00  0.00    +0.000 C 
ATOM     28  C   UNL     1     -34.822  24.262   5.259  0.00  0.00    +0.000 C 
BRANCH  27  29
ATOM     29  C   UNL     1     -35.893  25.910   3.629  0.00  0.00    +0.004 C 
BRANCH  29  30
ATOM     30  C   UNL     1     -35.237  26.649   2.453  0.00  0.00    +0.023 C 
BRANCH  30  31
ATOM     31  C   UNL     1     -33.713  26.710   2.424  0.00  0.00    -0.034 C 
ATOM     32  C   UNL     1     -32.943  25.723   1.934  0.00  0.00    -0.009 C 
BRANCH  31  33
ATOM     33  C   UNL     1     -33.134  27.997   3.011  0.00  0.00    +0.117 C 
ATOM     34  C   UNL     1     -34.081  29.199   3.059  0.00  0.00    +0.016 C 
BRANCH  33  36
ATOM     35  O   UNL     1     -33.344  27.489   5.393  0.00  0.00    -0.250 OA
ATOM     36  C   UNL     1     -32.634  27.713   4.421  0.00  0.00    +0.317 C 
BRANCH  36  37
ATOM     37  O   UNL     1     -31.277  27.762   4.501  0.00  0.00    -0.480 OA
ATOM     38  H   UNL     1     -30.835  28.587   4.459  0.00  0.00    +0.295 HD
ENDBRANCH  36  37
ENDBRANCH  33  36
ENDBRANCH  31  33
ENDBRANCH  30  31
ENDBRANCH  29  30
ENDBRANCH  27  29
ENDBRANCH   5  27
TORSDOF 9
ENDMDL
MODEL 5
REMARK VINA RESULT:      -6.3      1.952      2.613
REMARK  Name = 53318662
REMARK  9 active torsions:
REMARK  status: ('A' for Active; 'I' for Inactive)
REMARK    1  A    between atoms: C_5  and  C_27
REMARK    2  A    between atoms: C_11  and  O_23
REMARK    3  A    between atoms: C_19  and  O_25
REMARK    4  A    between atoms: C_27  and  C_29
REMARK    5  A    between atoms: C_29  and  C_30
REMARK    6  A    between atoms: C_30  and  C_31
REMARK    7  A    between atoms: C_31  and  C_33
REMARK    8  A    between atoms: C_33  and  C_36
REMARK    9  A    between atoms: C_36  and  O_37
REMARK                            x       y       z     vdW  Elec       q    Type
REMARK                         _______ _______ _______ _____ _____    ______ ____
ROOT
ATOM      1  O   UNL     1     -35.943  26.841   0.304  0.00  0.00    -0.289 OA
ATOM      2  O   UNL     1     -33.484  25.766   5.613  0.00  0.00    -0.292 OA
ATOM      3  C   UNL     1     -35.735  23.981   2.422  0.00  0.00    +0.036 C 
ATOM      4  C   UNL     1     -35.373  24.678   3.752  0.00  0.00    +0.028 C 
ATOM      5  C   UNL     1     -36.494  22.748   2.973  0.00  0.00    +0.003 C 
ATOM      6  C   UNL     1     -34.153  28.139   2.230  0.00  0.00    +0.022 C 
ATOM      7  C   UNL     1     -34.799  23.519   4.581  0.00  0.00    +0.005 C 
ATOM      8  C   UNL     1     -34.637  25.979   3.533  0.00  0.00    +0.011 C 
ATOM      9  C   UNL     1     -35.622  22.289   4.159  0.00  0.00    +0.000 C 
ATOM     10  C   UNL     1     -33.644  28.687   3.612  0.00  0.00    +0.014 C 
ATOM     11  C   UNL     1     -36.570  24.958   1.597  0.00  0.00    +0.171 C 
ATOM     12  C   UNL     1     -34.853  26.774   2.454  0.00  0.00    +0.013 C 
ATOM     13  C   UNL     1     -32.939  30.069   3.506  0.00  0.00    +0.028 C 
ATOM     14  C   UNL     1     -34.494  23.546   1.590  0.00  0.00    +0.003 C 
ATOM     15  C   UNL     1     -35.099  29.235   1.653  0.00  0.00    +0.007 C 
ATOM     16  C   UNL     1     -35.794  26.250   1.374  0.00  0.00    +0.195 C 
ATOM     17  C   UNL     1     -32.806  27.632   4.323  0.00  0.00    +0.069 C 
ATOM     18  C   UNL     1     -33.646  26.407   4.575  0.00  0.00    +0.169 C 
ATOM     19  C   UNL     1     -33.895  31.108   2.886  0.00  0.00    +0.110 C 
ATOM     20  C   UNL     1     -34.459  30.625   1.557  0.00  0.00    +0.030 C 
ATOM     21  C   UNL     1     -32.997  27.879   1.234  0.00  0.00    +0.004 C 
ATOM     22  C   UNL     1     -32.413  30.575   4.856  0.00  0.00    +0.003 C 
ENDROOT
BRANCH  11  23
ATOM     23  O   UNL     1     -37.779  25.318   2.245  0.00  0.00    -0.377 OA
ATOM     24  H   UNL     1     -38.024  26.223   1.995  0.00  0.00    +0.211 HD
ENDBRANCH  11  23
BRANCH  19  25
ATOM     25  O   UNL     1     -34.995  31.377   3.755  0.00  0.00    -0.384 OA
ATOM     26  H   UNL     1     -35.503  32.128   3.410  0.00  0.00    +0.210 HD
ENDBRANCH  19  25
BRANCH   5  27
ATOM     27  C   UNL     1     -36.782  21.632   1.980  0.00  0.00    +0.000 C 
ATOM     28  C   UNL     1     -38.292  21.499   1.766  0.00  0.00    +0.000 C 
BRANCH  27  29
ATOM     29  C   UNL     1     -36.142  20.312   2.466  0.00  0.00    +0.004 C 
BRANCH  29  30
ATOM     30  C   UNL     1     -34.754  20.039   1.866  0.00  0.00    +0.023 C 
BRANCH  30  31
ATOM     31  C   UNL     1     -34.694  19.234   0.572  0.00  0.00    -0.034 C 
ATOM     32  C   UNL     1     -35.786  18.829  -0.098  0.00  0.00    -0.009 C 
BRANCH  31  33
ATOM     33  C   UNL     1     -33.273  18.920   0.105  0.00  0.00    +0.117 C 
ATOM     34  C   UNL     1     -32.213  19.979   0.418  0.00  0.00    +0.016 C 
BRANCH  33  36
ATOM     35  O   UNL     1     -33.258  16.492   0.398  0.00  0.00    -0.250 OA
ATOM     36  C   UNL     1     -32.835  17.596   0.719  0.00  0.00    +0.317 C 
BRANCH  36  37
ATOM     37  O   UNL     1     -31.919  17.770   1.708  0.00  0.00    -0.480 OA
ATOM     38  H   UNL     1     -31.756  18.628   2.049  0.00  0.00    +0.295 HD
ENDBRANCH  36  37
ENDBRANCH  33  36
ENDBRANCH  31  33
ENDBRANCH  30  31
ENDBRANCH  29  30
ENDBRANCH  27  29
ENDBRANCH   5  27
TORSDOF 9
ENDMDL
MODEL 6
REMARK VINA RESULT:      -6.3      2.235      8.739
REMARK  Name = 53318662
REMARK  9 active torsions:
REMARK  status: ('A' for Active; 'I' for Inactive)
REMARK    1  A    between atoms: C_5  and  C_27
REMARK    2  A    between atoms: C_11  and  O_23
REMARK    3  A    between atoms: C_19  and  O_25
REMARK    4  A    between atoms: C_27  and  C_29
REMARK    5  A    between atoms: C_29  and  C_30
REMARK    6  A    between atoms: C_30  and  C_31
REMARK    7  A    between atoms: C_31  and  C_33
REMARK    8  A    between atoms: C_33  and  C_36
REMARK    9  A    between atoms: C_36  and  O_37
REMARK                            x       y       z     vdW  Elec       q    Type
REMARK                         _______ _______ _______ _____ _____    ______ ____
ROOT
ATOM      1  O   UNL     1     -34.185  19.961   1.011  0.00  0.00    -0.289 OA
ATOM      2  O   UNL     1     -38.862  23.407  -0.268  0.00  0.00    -0.292 OA
ATOM      3  C   UNL     1     -35.871  22.606   2.706  0.00  0.00    +0.036 C 
ATOM      4  C   UNL     1     -37.203  22.598   1.924  0.00  0.00    +0.028 C 
ATOM      5  C   UNL     1     -36.378  23.119   4.077  0.00  0.00    +0.003 C 
ATOM      6  C   UNL     1     -35.950  20.565  -1.251  0.00  0.00    +0.022 C 
ATOM      7  C   UNL     1     -37.781  23.983   2.249  0.00  0.00    +0.005 C 
ATOM      8  C   UNL     1     -37.034  22.085   0.513  0.00  0.00    +0.011 C 
ATOM      9  C   UNL     1     -37.344  24.260   3.699  0.00  0.00    +0.000 C 
ATOM     10  C   UNL     1     -37.292  20.773  -2.043  0.00  0.00    +0.014 C 
ATOM     11  C   UNL     1     -35.317  21.182   2.695  0.00  0.00    +0.171 C 
ATOM     12  C   UNL     1     -36.111  21.149   0.176  0.00  0.00    +0.013 C 
ATOM     13  C   UNL     1     -37.248  20.204  -3.490  0.00  0.00    +0.028 C 
ATOM     14  C   UNL     1     -34.805  23.570   2.108  0.00  0.00    +0.003 C 
ATOM     15  C   UNL     1     -35.671  19.032  -1.268  0.00  0.00    +0.007 C 
ATOM     16  C   UNL     1     -35.137  20.702   1.261  0.00  0.00    +0.195 C 
ATOM     17  C   UNL     1     -37.724  22.232  -1.980  0.00  0.00    +0.069 C 
ATOM     18  C   UNL     1     -37.951  22.628  -0.543  0.00  0.00    +0.169 C 
ATOM     19  C   UNL     1     -36.921  18.697  -3.459  0.00  0.00    +0.110 C 
ATOM     20  C   UNL     1     -35.649  18.417  -2.672  0.00  0.00    +0.030 C 
ATOM     21  C   UNL     1     -34.759  21.314  -1.898  0.00  0.00    +0.004 C 
ATOM     22  C   UNL     1     -38.550  20.446  -4.265  0.00  0.00    +0.003 C 
ENDROOT
BRANCH  11  23
ATOM     23  O   UNL     1     -36.188  20.258   3.326  0.00  0.00    -0.377 OA
ATOM     24  H   UNL     1     -36.979  20.133   2.778  0.00  0.00    +0.211 HD
ENDBRANCH  11  23
BRANCH  19  25
ATOM     25  O   UNL     1     -37.980  17.954  -2.856  0.00  0.00    -0.384 OA
ATOM     26  H   UNL     1     -37.735  17.723  -1.946  0.00  0.00    +0.210 HD
ENDBRANCH  19  25
BRANCH   5  27
ATOM     27  C   UNL     1     -35.312  23.549   5.074  0.00  0.00    +0.000 C 
ATOM     28  C   UNL     1     -35.234  22.541   6.224  0.00  0.00    +0.000 C 
BRANCH  27  29
ATOM     29  C   UNL     1     -35.599  24.983   5.572  0.00  0.00    +0.004 C 
BRANCH  29  30
ATOM     30  C   UNL     1     -34.393  25.929   5.462  0.00  0.00    +0.023 C 
BRANCH  30  31
ATOM     31  C   UNL     1     -34.223  26.703   4.159  0.00  0.00    -0.034 C 
ATOM     32  C   UNL     1     -35.251  27.046   3.363  0.00  0.00    -0.009 C 
BRANCH  31  33
ATOM     33  C   UNL     1     -32.771  27.051   3.831  0.00  0.00    +0.117 C 
ATOM     34  C   UNL     1     -32.491  27.475   2.388  0.00  0.00    +0.016 C 
BRANCH  33  36
ATOM     35  O   UNL     1     -32.806  29.280   4.837  0.00  0.00    -0.250 OA
ATOM     36  C   UNL     1     -32.309  28.162   4.765  0.00  0.00    +0.317 C 
BRANCH  36  37
ATOM     37  O   UNL     1     -31.238  27.787   5.514  0.00  0.00    -0.480 OA
ATOM     38  H   UNL     1     -31.255  26.974   5.981  0.00  0.00    +0.295 HD
ENDBRANCH  36  37
ENDBRANCH  33  36
ENDBRANCH  31  33
ENDBRANCH  30  31
ENDBRANCH  29  30
ENDBRANCH  27  29
ENDBRANCH   5  27
TORSDOF 9
ENDMDL
MODEL 7
REMARK VINA RESULT:      -6.2      1.955      9.306
REMARK  Name = 53318662
REMARK  9 active torsions:
REMARK  status: ('A' for Active; 'I' for Inactive)
REMARK    1  A    between atoms: C_5  and  C_27
REMARK    2  A    between atoms: C_11  and  O_23
REMARK    3  A    between atoms: C_19  and  O_25
REMARK    4  A    between atoms: C_27  and  C_29
REMARK    5  A    between atoms: C_29  and  C_30
REMARK    6  A    between atoms: C_30  and  C_31
REMARK    7  A    between atoms: C_31  and  C_33
REMARK    8  A    between atoms: C_33  and  C_36
REMARK    9  A    between atoms: C_36  and  O_37
REMARK                            x       y       z     vdW  Elec       q    Type
REMARK                         _______ _______ _______ _____ _____    ______ ____
ROOT
ATOM      1  O   UNL     1     -34.840  19.876   0.977  0.00  0.00    -0.289 OA
ATOM      2  O   UNL     1     -40.352  22.111   0.876  0.00  0.00    -0.292 OA
ATOM      3  C   UNL     1     -36.417  22.691   2.493  0.00  0.00    +0.036 C 
ATOM      4  C   UNL     1     -37.894  22.264   2.341  0.00  0.00    +0.028 C 
ATOM      5  C   UNL     1     -36.525  23.549   3.778  0.00  0.00    +0.003 C 
ATOM      6  C   UNL     1     -37.368  19.493  -0.458  0.00  0.00    +0.022 C 
ATOM      7  C   UNL     1     -38.637  23.596   2.517  0.00  0.00    +0.005 C 
ATOM      8  C   UNL     1     -38.106  21.350   1.157  0.00  0.00    +0.011 C 
ATOM      9  C   UNL     1     -37.806  24.377   3.550  0.00  0.00    +0.000 C 
ATOM     10  C   UNL     1     -38.909  19.265  -0.667  0.00  0.00    +0.014 C 
ATOM     11  C   UNL     1     -35.576  21.421   2.614  0.00  0.00    +0.171 C 
ATOM     12  C   UNL     1     -37.160  20.480   0.720  0.00  0.00    +0.013 C 
ATOM     13  C   UNL     1     -39.234  18.271  -1.819  0.00  0.00    +0.028 C 
ATOM     14  C   UNL     1     -35.889  23.537   1.298  0.00  0.00    +0.003 C 
ATOM     15  C   UNL     1     -36.753  18.084  -0.204  0.00  0.00    +0.007 C 
ATOM     16  C   UNL     1     -35.794  20.532   1.396  0.00  0.00    +0.195 C 
ATOM     17  C   UNL     1     -39.630  20.600  -0.799  0.00  0.00    +0.069 C 
ATOM     18  C   UNL     1     -39.433  21.405   0.460  0.00  0.00    +0.169 C 
ATOM     19  C   UNL     1     -38.565  16.908  -1.550  0.00  0.00    +0.110 C 
ATOM     20  C   UNL     1     -37.071  17.058  -1.298  0.00  0.00    +0.030 C 
ATOM     21  C   UNL     1     -36.692  20.138  -1.692  0.00  0.00    +0.004 C 
ATOM     22  C   UNL     1     -40.741  18.085  -2.038  0.00  0.00    +0.003 C 
ENDROOT
BRANCH  11  23
ATOM     23  O   UNL     1     -35.926  20.646   3.749  0.00  0.00    -0.377 OA
ATOM     24  H   UNL     1     -36.763  20.185   3.581  0.00  0.00    +0.211 HD
ENDBRANCH  11  23
BRANCH  19  25
ATOM     25  O   UNL     1     -39.138  16.271  -0.408  0.00  0.00    -0.384 OA
ATOM     26  H   UNL     1     -39.842  15.668  -0.693  0.00  0.00    +0.210 HD
ENDBRANCH  19  25
BRANCH   5  27
ATOM     27  C   UNL     1     -35.316  24.407   4.120  0.00  0.00    +0.000 C 
ATOM     28  C   UNL     1     -34.570  23.806   5.315  0.00  0.00    +0.000 C 
BRANCH  27  29
ATOM     29  C   UNL     1     -35.758  25.865   4.380  0.00  0.00    +0.004 C 
BRANCH  29  30
ATOM     30  C   UNL     1     -34.819  26.915   3.765  0.00  0.00    +0.023 C 
BRANCH  30  31
ATOM     31  C   UNL     1     -35.294  27.627   2.502  0.00  0.00    -0.034 C 
ATOM     32  C   UNL     1     -36.407  27.281   1.832  0.00  0.00    -0.009 C 
BRANCH  31  33
ATOM     33  C   UNL     1     -34.382  28.770   2.058  0.00  0.00    +0.117 C 
ATOM     34  C   UNL     1     -34.756  29.454   0.740  0.00  0.00    +0.016 C 
BRANCH  33  36
ATOM     35  O   UNL     1     -33.357  30.108   3.829  0.00  0.00    -0.250 OA
ATOM     36  C   UNL     1     -34.341  29.823   3.158  0.00  0.00    +0.317 C 
BRANCH  36  37
ATOM     37  O   UNL     1     -35.552  30.413   3.346  0.00  0.00    -0.480 OA
ATOM     38  H   UNL     1     -36.319  30.040   2.957  0.00  0.00    +0.295 HD
ENDBRANCH  36  37
ENDBRANCH  33  36
ENDBRANCH  31  33
ENDBRANCH  30  31
ENDBRANCH  29  30
ENDBRANCH  27  29
ENDBRANCH   5  27
TORSDOF 9
ENDMDL
MODEL 8
REMARK VINA RESULT:      -6.2      3.685      9.817
REMARK  Name = 53318662
REMARK  9 active torsions:
REMARK  status: ('A' for Active; 'I' for Inactive)
REMARK    1  A    between atoms: C_5  and  C_27
REMARK    2  A    between atoms: C_11  and  O_23
REMARK    3  A    between atoms: C_19  and  O_25
REMARK    4  A    between atoms: C_27  and  C_29
REMARK    5  A    between atoms: C_29  and  C_30
REMARK    6  A    between atoms: C_30  and  C_31
REMARK    7  A    between atoms: C_31  and  C_33
REMARK    8  A    between atoms: C_33  and  C_36
REMARK    9  A    between atoms: C_36  and  O_37
REMARK                            x       y       z     vdW  Elec       q    Type
REMARK                         _______ _______ _______ _____ _____    ______ ____
ROOT
ATOM      1  O   UNL     1     -32.622  28.420   3.566  0.00  0.00    -0.289 OA
ATOM      2  O   UNL     1     -37.918  28.041   0.882  0.00  0.00    -0.292 OA
ATOM      3  C   UNL     1     -34.618  30.675   1.658  0.00  0.00    +0.036 C 
ATOM      4  C   UNL     1     -35.982  29.960   1.768  0.00  0.00    +0.028 C 
ATOM      5  C   UNL     1     -35.103  32.140   1.521  0.00  0.00    +0.003 C 
ATOM      6  C   UNL     1     -34.630  26.394   2.884  0.00  0.00    +0.022 C 
ATOM      7  C   UNL     1     -36.769  30.579   0.604  0.00  0.00    +0.005 C 
ATOM      8  C   UNL     1     -35.831  28.469   1.961  0.00  0.00    +0.011 C 
ATOM      9  C   UNL     1     -36.281  32.037   0.532  0.00  0.00    +0.000 C 
ATOM     10  C   UNL     1     -36.043  25.713   2.786  0.00  0.00    +0.014 C 
ATOM     11  C   UNL     1     -33.822  30.357   2.924  0.00  0.00    +0.171 C 
ATOM     12  C   UNL     1     -34.784  27.915   2.625  0.00  0.00    +0.013 C 
ATOM     13  C   UNL     1     -36.008  24.180   3.050  0.00  0.00    +0.028 C 
ATOM     14  C   UNL     1     -33.787  30.243   0.415  0.00  0.00    +0.003 C 
ATOM     15  C   UNL     1     -34.087  26.059   4.306  0.00  0.00    +0.007 C 
ATOM     16  C   UNL     1     -33.668  28.850   3.079  0.00  0.00    +0.195 C 
ATOM     17  C   UNL     1     -36.721  26.085   1.474  0.00  0.00    +0.069 C 
ATOM     18  C   UNL     1     -36.906  27.580   1.409  0.00  0.00    +0.169 C 
ATOM     19  C   UNL     1     -35.419  23.895   4.446  0.00  0.00    +0.110 C 
ATOM     20  C   UNL     1     -34.061  24.560   4.627  0.00  0.00    +0.030 C 
ATOM     21  C   UNL     1     -33.643  25.866   1.816  0.00  0.00    +0.004 C 
ATOM     22  C   UNL     1     -37.387  23.521   2.915  0.00  0.00    +0.003 C 
ENDROOT
BRANCH  11  23
ATOM     23  O   UNL     1     -34.467  30.822   4.098  0.00  0.00    -0.377 OA
ATOM     24  H   UNL     1     -35.173  30.205   4.346  0.00  0.00    +0.211 HD
ENDBRANCH  11  23
BRANCH  19  25
ATOM     25  O   UNL     1     -36.281  24.377   5.477  0.00  0.00    -0.384 OA
ATOM     26  H   UNL     1     -35.991  24.023   6.332  0.00  0.00    +0.210 HD
ENDBRANCH  19  25
BRANCH   5  27
ATOM     27  C   UNL     1     -34.058  33.161   1.095  0.00  0.00    +0.000 C 
ATOM     28  C   UNL     1     -33.333  33.712   2.327  0.00  0.00    +0.000 C 
BRANCH  27  29
ATOM     29  C   UNL     1     -34.718  34.279   0.257  0.00  0.00    +0.004 C 
BRANCH  29  30
ATOM     30  C   UNL     1     -35.027  35.553   1.059  0.00  0.00    +0.023 C 
BRANCH  30  31
ATOM     31  C   UNL     1     -36.299  36.316   0.705  0.00  0.00    -0.034 C 
ATOM     32  C   UNL     1     -36.304  37.595   0.293  0.00  0.00    -0.009 C 
BRANCH  31  33
ATOM     33  C   UNL     1     -37.578  35.494   0.868  0.00  0.00    +0.117 C 
ATOM     34  C   UNL     1     -38.490  35.895   2.029  0.00  0.00    +0.016 C 
BRANCH  33  36
ATOM     35  O   UNL     1     -39.423  36.184  -0.581  0.00  0.00    -0.250 OA
ATOM     36  C   UNL     1     -38.377  35.566  -0.427  0.00  0.00    +0.317 C 
BRANCH  36  37
ATOM     37  O   UNL     1     -37.809  34.829  -1.418  0.00  0.00    -0.480 OA
ATOM     38  H   UNL     1     -38.349  34.328  -1.998  0.00  0.00    +0.295 HD
ENDBRANCH  36  37
ENDBRANCH  33  36
ENDBRANCH  31  33
ENDBRANCH  30  31
ENDBRANCH  29  30
ENDBRANCH  27  29
ENDBRANCH   5  27
TORSDOF 9
ENDMDL
MODEL 9
REMARK VINA RESULT:      -6.2      2.657      5.072
REMARK  Name = 53318662
REMARK  9 active torsions:
REMARK  status: ('A' for Active; 'I' for Inactive)
REMARK    1  A    between atoms: C_5  and  C_27
REMARK    2  A    between atoms: C_11  and  O_23
REMARK    3  A    between atoms: C_19  and  O_25
REMARK    4  A    between atoms: C_27  and  C_29
REMARK    5  A    between atoms: C_29  and  C_30
REMARK    6  A    between atoms: C_30  and  C_31
REMARK    7  A    between atoms: C_31  and  C_33
REMARK    8  A    between atoms: C_33  and  C_36
REMARK    9  A    between atoms: C_36  and  O_37
REMARK                            x       y       z     vdW  Elec       q    Type
REMARK                         _______ _______ _______ _____ _____    ______ ____
ROOT
ATOM      1  O   UNL     1     -37.888  22.543   3.092  0.00  0.00    -0.289 OA
ATOM      2  O   UNL     1     -32.838  23.643   0.146  0.00  0.00    -0.292 OA
ATOM      3  C   UNL     1     -36.252  21.045   0.301  0.00  0.00    +0.036 C 
ATOM      4  C   UNL     1     -34.832  21.616   0.505  0.00  0.00    +0.028 C 
ATOM      5  C   UNL     1     -35.897  19.709  -0.398  0.00  0.00    +0.003 C 
ATOM      6  C   UNL     1     -35.796  24.593   2.953  0.00  0.00    +0.022 C 
ATOM      7  C   UNL     1     -34.201  21.425  -0.883  0.00  0.00    +0.005 C 
ATOM      8  C   UNL     1     -34.848  22.942   1.228  0.00  0.00    +0.011 C 
ATOM      9  C   UNL     1     -34.807  20.113  -1.411  0.00  0.00    +0.000 C 
ATOM     10  C   UNL     1     -34.348  25.206   2.946  0.00  0.00    +0.014 C 
ATOM     11  C   UNL     1     -36.904  20.918   1.677  0.00  0.00    +0.171 C 
ATOM     12  C   UNL     1     -35.785  23.263   2.157  0.00  0.00    +0.013 C 
ATOM     13  C   UNL     1     -34.240  26.541   3.737  0.00  0.00    +0.028 C 
ATOM     14  C   UNL     1     -37.153  21.929  -0.609  0.00  0.00    +0.003 C 
ATOM     15  C   UNL     1     -36.183  24.416   4.452  0.00  0.00    +0.007 C 
ATOM     16  C   UNL     1     -36.926  22.274   2.371  0.00  0.00    +0.195 C 
ATOM     17  C   UNL     1     -33.821  25.303   1.520  0.00  0.00    +0.069 C 
ATOM     18  C   UNL     1     -33.760  23.926   0.911  0.00  0.00    +0.169 C 
ATOM     19  C   UNL     1     -34.679  26.329   5.200  0.00  0.00    +0.110 C 
ATOM     20  C   UNL     1     -36.063  25.699   5.283  0.00  0.00    +0.030 C 
ATOM     21  C   UNL     1     -36.830  25.511   2.256  0.00  0.00    +0.004 C 
ATOM     22  C   UNL     1     -32.831  27.148   3.692  0.00  0.00    +0.003 C 
ENDROOT
BRANCH  11  23
ATOM     23  O   UNL     1     -36.197  20.036   2.532  0.00  0.00    -0.377 OA
ATOM     24  H   UNL     1     -36.784  19.318   2.815  0.00  0.00    +0.211 HD
ENDBRANCH  11  23
BRANCH  19  25
ATOM     25  O   UNL     1     -33.769  25.473   5.891  0.00  0.00    -0.384 OA
ATOM     26  H   UNL     1     -33.292  25.985   6.563  0.00  0.00    +0.210 HD
ENDBRANCH  19  25
BRANCH   5  27
ATOM     27  C   UNL     1     -37.052  18.953  -1.039  0.00  0.00    +0.000 C 
ATOM     28  C   UNL     1     -37.567  17.875  -0.080  0.00  0.00    +0.000 C 
BRANCH  27  29
ATOM     29  C   UNL     1     -36.612  18.365  -2.398  0.00  0.00    +0.004 C 
BRANCH  29  30
ATOM     30  C   UNL     1     -36.275  16.867  -2.344  0.00  0.00    +0.023 C 
BRANCH  30  31
ATOM     31  C   UNL     1     -34.806  16.472  -2.458  0.00  0.00    -0.034 C 
ATOM     32  C   UNL     1     -34.068  16.682  -3.562  0.00  0.00    -0.009 C 
BRANCH  31  33
ATOM     33  C   UNL     1     -34.245  15.806  -1.202  0.00  0.00    +0.117 C 
ATOM     34  C   UNL     1     -33.859  16.746  -0.058  0.00  0.00    +0.016 C 
BRANCH  33  36
ATOM     35  O   UNL     1     -35.660  13.814  -1.293  0.00  0.00    -0.250 OA
ATOM     36  C   UNL     1     -35.263  14.799  -0.683  0.00  0.00    +0.317 C 
BRANCH  36  37
ATOM     37  O   UNL     1     -35.723  15.129   0.554  0.00  0.00    -0.480 OA
ATOM     38  H   UNL     1     -36.617  15.385   0.668  0.00  0.00    +0.295 HD
ENDBRANCH  36  37
ENDBRANCH  33  36
ENDBRANCH  31  33
ENDBRANCH  30  31
ENDBRANCH  29  30
ENDBRANCH  27  29
ENDBRANCH   5  27
TORSDOF 9
ENDMDL
