MODEL 1
REMARK VINA RESULT:      -5.9      0.000      0.000
REMARK  Name = 193492
REMARK  6 active torsions:
REMARK  status: ('A' for Active; 'I' for Inactive)
REMARK    1  A    between atoms: S_1  and  C_5
REMARK    2  A    between atoms: S_1  and  N_17
REMARK    3  A    between atoms: C_8  and  S_11
REMARK    4  A    between atoms: S_11  and  N_14
REMARK    5  A    between atoms: N_17  and  C_19
REMARK    6  A    between atoms: C_19  and  C_22
REMARK                            x       y       z     vdW  Elec       q    Type
REMARK                         _______ _______ _______ _____ _____    ______ ____
ROOT
ATOM      1  S   UNL     1     -32.791  28.981   3.334  0.00  0.00    +0.063 S 
ATOM      2  O   UNL     1     -33.950  29.755   3.735  0.00  0.00    -0.153 OA
ATOM      3  O   UNL     1     -32.098  29.318   2.104  0.00  0.00    -0.153 OA
ENDROOT
BRANCH   1   5
ATOM      4 CL   UNL     1     -28.644  29.396   8.008  0.00  0.00    -0.081 Cl
ATOM      5  C   UNL     1     -31.608  29.088   4.649  0.00  0.00    +0.124 C 
ATOM      6  C   UNL     1     -30.451  28.336   4.575  0.00  0.00    +0.041 C 
ATOM      7  C   UNL     1     -31.868  29.922   5.720  0.00  0.00    +0.021 C 
ATOM      8  C   UNL     1     -29.520  28.421   5.611  0.00  0.00    +0.133 C 
ATOM      9  C   UNL     1     -30.937  30.008   6.755  0.00  0.00    +0.014 C 
ATOM     10  C   UNL     1     -29.763  29.256   6.700  0.00  0.00    +0.076 C 
BRANCH   8  11
ATOM     11  S   UNL     1     -28.064  27.452   5.489  0.00  0.00    +0.058 S 
ATOM     12  O   UNL     1     -26.938  28.350   5.290  0.00  0.00    -0.153 OA
ATOM     13  O   UNL     1     -28.055  26.502   6.590  0.00  0.00    -0.153 OA
BRANCH  11  14
ATOM     14  N   UNL     1     -28.364  26.608   4.035  0.00  0.00    -0.203 NA
ATOM     15  H   UNL     1     -29.228  26.072   4.125  0.00  0.00    +0.144 HD
ATOM     16  H   UNL     1     -27.590  25.972   3.845  0.00  0.00    +0.144 HD
ENDBRANCH  11  14
ENDBRANCH   8  11
ENDBRANCH   1   5
BRANCH   1  17
ATOM     17  N   UNL     1     -33.221  27.285   3.367  0.00  0.00    -0.150 NA
ATOM     18  C   UNL     1     -32.639  26.455   2.255  0.00  0.00    +0.115 C 
BRANCH  17  19
ATOM     19  C   UNL     1     -34.551  26.906   3.739  0.00  0.00    +0.136 C 
BRANCH  19  22
ATOM     20  O   UNL     1     -34.141  24.691   4.607  0.00  0.00    -0.454 OA
ATOM     21  O   UNL     1     -35.213  22.743   4.043  0.00  0.00    -0.250 OA
ATOM     22  C   UNL     1     -34.542  26.020   4.987  0.00  0.00    +0.153 C 
ATOM     23  C   UNL     1     -35.930  25.829   5.578  0.00  0.00    +0.053 C 
ATOM     24  C   UNL     1     -36.484  24.666   4.788  0.00  0.00    +0.113 C 
ATOM     25  C   UNL     1     -33.552  26.557   6.016  0.00  0.00    +0.045 C 
ATOM     26  C   UNL     1     -35.243  23.898   4.442  0.00  0.00    +0.317 C 
ENDBRANCH  19  22
ENDBRANCH  17  19
ENDBRANCH   1  17
TORSDOF 6
ENDMDL
MODEL 2
REMARK VINA RESULT:      -5.9      4.787      7.023
REMARK  Name = 193492
REMARK  6 active torsions:
REMARK  status: ('A' for Active; 'I' for Inactive)
REMARK    1  A    between atoms: S_1  and  C_5
REMARK    2  A    between atoms: S_1  and  N_17
REMARK    3  A    between atoms: C_8  and  S_11
REMARK    4  A    between atoms: S_11  and  N_14
REMARK    5  A    between atoms: N_17  and  C_19
REMARK    6  A    between atoms: C_19  and  C_22
REMARK                            x       y       z     vdW  Elec       q    Type
REMARK                         _______ _______ _______ _____ _____    ______ ____
ROOT
ATOM      1  S   UNL     1     -35.347  26.363   1.505  0.00  0.00    +0.063 S 
ATOM      2  O   UNL     1     -34.850  27.178   0.413  0.00  0.00    -0.153 OA
ATOM      3  O   UNL     1     -36.773  26.327   1.777  0.00  0.00    -0.153 OA
ENDROOT
BRANCH   1   5
ATOM      4 CL   UNL     1     -33.473  20.495   0.378  0.00  0.00    -0.081 Cl
ATOM      5  C   UNL     1     -34.830  24.697   1.195  0.00  0.00    +0.124 C 
ATOM      6  C   UNL     1     -35.556  23.655   1.739  0.00  0.00    +0.041 C 
ATOM      7  C   UNL     1     -33.710  24.477   0.415  0.00  0.00    +0.021 C 
ATOM      8  C   UNL     1     -35.147  22.344   1.494  0.00  0.00    +0.133 C 
ATOM      9  C   UNL     1     -33.302  23.165   0.169  0.00  0.00    +0.014 C 
ATOM     10  C   UNL     1     -34.021  22.099   0.710  0.00  0.00    +0.076 C 
BRANCH   8  11
ATOM     11  S   UNL     1     -36.088  21.045   2.202  0.00  0.00    +0.058 S 
ATOM     12  O   UNL     1     -36.623  20.232   1.121  0.00  0.00    -0.153 OA
ATOM     13  O   UNL     1     -35.295  20.428   3.254  0.00  0.00    -0.153 OA
BRANCH  11  14
ATOM     14  N   UNL     1     -37.363  21.927   2.917  0.00  0.00    -0.203 NA
ATOM     15  H   UNL     1     -37.753  21.392   3.693  0.00  0.00    +0.144 HD
ATOM     16  H   UNL     1     -38.090  22.097   2.222  0.00  0.00    +0.144 HD
ENDBRANCH  11  14
ENDBRANCH   8  11
ENDBRANCH   1   5
BRANCH   1  17
ATOM     17  N   UNL     1     -34.443  26.764   2.948  0.00  0.00    -0.150 NA
ATOM     18  C   UNL     1     -33.591  28.000   2.848  0.00  0.00    +0.115 C 
BRANCH  17  19
ATOM     19  C   UNL     1     -33.851  25.713   3.720  0.00  0.00    +0.136 C 
BRANCH  19  22
ATOM     20  O   UNL     1     -34.458  24.327   5.600  0.00  0.00    -0.454 OA
ATOM     21  O   UNL     1     -36.032  22.660   5.665  0.00  0.00    -0.250 OA
ATOM     22  C   UNL     1     -34.413  25.691   5.143  0.00  0.00    +0.153 C 
ATOM     23  C   UNL     1     -35.863  26.147   5.207  0.00  0.00    +0.053 C 
ATOM     24  C   UNL     1     -36.634  24.882   4.911  0.00  0.00    +0.113 C 
ATOM     25  C   UNL     1     -33.520  26.496   6.082  0.00  0.00    +0.045 C 
ATOM     26  C   UNL     1     -35.717  23.819   5.438  0.00  0.00    +0.317 C 
ENDBRANCH  19  22
ENDBRANCH  17  19
ENDBRANCH   1  17
TORSDOF 6
ENDMDL
MODEL 3
REMARK VINA RESULT:      -5.8      5.445      9.266
REMARK  Name = 193492
REMARK  6 active torsions:
REMARK  status: ('A' for Active; 'I' for Inactive)
REMARK    1  A    between atoms: S_1  and  C_5
REMARK    2  A    between atoms: S_1  and  N_17
REMARK    3  A    between atoms: C_8  and  S_11
REMARK    4  A    between atoms: S_11  and  N_14
REMARK    5  A    between atoms: N_17  and  C_19
REMARK    6  A    between atoms: C_19  and  C_22
REMARK                            x       y       z     vdW  Elec       q    Type
REMARK                         _______ _______ _______ _____ _____    ______ ____
ROOT
ATOM      1  S   UNL     1     -35.904  22.770   3.768  0.00  0.00    +0.063 S 
ATOM      2  O   UNL     1     -36.184  22.661   5.187  0.00  0.00    -0.153 OA
ATOM      3  O   UNL     1     -35.304  21.645   3.071  0.00  0.00    -0.153 OA
ENDROOT
BRANCH   1   5
ATOM      4 CL   UNL     1     -41.322  24.104   0.926  0.00  0.00    -0.081 Cl
ATOM      5  C   UNL     1     -37.436  23.133   2.956  0.00  0.00    +0.124 C 
ATOM      6  C   UNL     1     -37.952  22.222   2.054  0.00  0.00    +0.041 C 
ATOM      7  C   UNL     1     -38.082  24.321   3.243  0.00  0.00    +0.021 C 
ATOM      8  C   UNL     1     -39.158  22.509   1.415  0.00  0.00    +0.133 C 
ATOM      9  C   UNL     1     -39.289  24.607   2.605  0.00  0.00    +0.014 C 
ATOM     10  C   UNL     1     -39.827  23.701   1.690  0.00  0.00    +0.076 C 
BRANCH   8  11
ATOM     11  S   UNL     1     -39.784  21.334   0.274  0.00  0.00    +0.058 S 
ATOM     12  O   UNL     1     -41.080  20.883   0.753  0.00  0.00    -0.153 OA
ATOM     13  O   UNL     1     -39.653  21.885  -1.066  0.00  0.00    -0.153 OA
BRANCH  11  14
ATOM     14  N   UNL     1     -38.650  20.071   0.464  0.00  0.00    -0.203 NA
ATOM     15  H   UNL     1     -38.198  20.154   1.375  0.00  0.00    +0.144 HD
ATOM     16  H   UNL     1     -37.947  20.132  -0.271  0.00  0.00    +0.144 HD
ENDBRANCH  11  14
ENDBRANCH   8  11
ENDBRANCH   1   5
BRANCH   1  17
ATOM     17  N   UNL     1     -34.990  24.236   3.496  0.00  0.00    -0.150 NA
ATOM     18  C   UNL     1     -34.475  24.420   2.094  0.00  0.00    +0.115 C 
BRANCH  17  19
ATOM     19  C   UNL     1     -34.091  24.700   4.509  0.00  0.00    +0.136 C 
BRANCH  19  22
ATOM     20  O   UNL     1     -34.624  27.007   4.042  0.00  0.00    -0.454 OA
ATOM     21  O   UNL     1     -33.231  28.630   3.213  0.00  0.00    -0.250 OA
ATOM     22  C   UNL     1     -34.564  26.031   5.098  0.00  0.00    +0.153 C 
ATOM     23  C   UNL     1     -33.568  26.621   6.085  0.00  0.00    +0.053 C 
ATOM     24  C   UNL     1     -32.613  27.384   5.196  0.00  0.00    +0.113 C 
ATOM     25  C   UNL     1     -35.953  25.880   5.710  0.00  0.00    +0.045 C 
ATOM     26  C   UNL     1     -33.492  27.775   4.046  0.00  0.00    +0.317 C 
ENDBRANCH  19  22
ENDBRANCH  17  19
ENDBRANCH   1  17
TORSDOF 6
ENDMDL
MODEL 4
REMARK VINA RESULT:      -5.7      3.658      5.453
REMARK  Name = 193492
REMARK  6 active torsions:
REMARK  status: ('A' for Active; 'I' for Inactive)
REMARK    1  A    between atoms: S_1  and  C_5
REMARK    2  A    between atoms: S_1  and  N_17
REMARK    3  A    between atoms: C_8  and  S_11
REMARK    4  A    between atoms: S_11  and  N_14
REMARK    5  A    between atoms: N_17  and  C_19
REMARK    6  A    between atoms: C_19  and  C_22
REMARK                            x       y       z     vdW  Elec       q    Type
REMARK                         _______ _______ _______ _____ _____    ______ ____
ROOT
ATOM      1  S   UNL     1     -37.733  25.362   2.798  0.00  0.00    +0.063 S 
ATOM      2  O   UNL     1     -38.465  24.285   3.438  0.00  0.00    -0.153 OA
ATOM      3  O   UNL     1     -38.422  26.598   2.473  0.00  0.00    -0.153 OA
ENDROOT
BRANCH   1   5
ATOM      4 CL   UNL     1     -32.965  26.805   6.592  0.00  0.00    -0.081 Cl
ATOM      5  C   UNL     1     -36.378  25.779   3.859  0.00  0.00    +0.124 C 
ATOM      6  C   UNL     1     -35.379  26.604   3.381  0.00  0.00    +0.041 C 
ATOM      7  C   UNL     1     -36.351  25.270   5.144  0.00  0.00    +0.021 C 
ATOM      8  C   UNL     1     -34.311  26.932   4.217  0.00  0.00    +0.133 C 
ATOM      9  C   UNL     1     -35.284  25.599   5.982  0.00  0.00    +0.014 C 
ATOM     10  C   UNL     1     -34.264  26.430   5.517  0.00  0.00    +0.076 C 
BRANCH   8  11
ATOM     11  S   UNL     1     -33.058  27.978   3.579  0.00  0.00    +0.058 S 
ATOM     12  O   UNL     1     -33.066  29.215   4.344  0.00  0.00    -0.153 OA
ATOM     13  O   UNL     1     -31.833  27.202   3.459  0.00  0.00    -0.153 OA
BRANCH  11  14
ATOM     14  N   UNL     1     -33.668  28.289   2.014  0.00  0.00    -0.203 NA
ATOM     15  H   UNL     1     -33.907  27.406   1.561  0.00  0.00    +0.144 HD
ATOM     16  H   UNL     1     -32.960  28.772   1.463  0.00  0.00    +0.144 HD
ENDBRANCH  11  14
ENDBRANCH   8  11
ENDBRANCH   1   5
BRANCH   1  17
ATOM     17  N   UNL     1     -36.913  24.713   1.395  0.00  0.00    -0.150 NA
ATOM     18  C   UNL     1     -37.229  25.400   0.094  0.00  0.00    +0.115 C 
BRANCH  17  19
ATOM     19  C   UNL     1     -36.739  23.297   1.276  0.00  0.00    +0.136 C 
BRANCH  19  22
ATOM     20  O   UNL     1     -34.958  21.713   0.897  0.00  0.00    -0.454 OA
ATOM     21  O   UNL     1     -34.999  19.446   1.244  0.00  0.00    -0.250 OA
ATOM     22  C   UNL     1     -35.316  22.882   1.655  0.00  0.00    +0.153 C 
ATOM     23  C   UNL     1     -35.205  22.428   3.103  0.00  0.00    +0.053 C 
ATOM     24  C   UNL     1     -35.585  20.967   3.035  0.00  0.00    +0.113 C 
ATOM     25  C   UNL     1     -34.330  24.001   1.331  0.00  0.00    +0.045 C 
ATOM     26  C   UNL     1     -35.144  20.588   1.653  0.00  0.00    +0.317 C 
ENDBRANCH  19  22
ENDBRANCH  17  19
ENDBRANCH   1  17
TORSDOF 6
ENDMDL
MODEL 5
REMARK VINA RESULT:      -5.6      5.377      8.790
REMARK  Name = 193492
REMARK  6 active torsions:
REMARK  status: ('A' for Active; 'I' for Inactive)
REMARK    1  A    between atoms: S_1  and  C_5
REMARK    2  A    between atoms: S_1  and  N_17
REMARK    3  A    between atoms: C_8  and  S_11
REMARK    4  A    between atoms: S_11  and  N_14
REMARK    5  A    between atoms: N_17  and  C_19
REMARK    6  A    between atoms: C_19  and  C_22
REMARK                            x       y       z     vdW  Elec       q    Type
REMARK                         _______ _______ _______ _____ _____    ______ ____
ROOT
ATOM      1  S   UNL     1     -36.038  22.580   3.507  0.00  0.00    +0.063 S 
ATOM      2  O   UNL     1     -36.312  22.562   4.932  0.00  0.00    -0.153 OA
ATOM      3  O   UNL     1     -35.526  21.383   2.864  0.00  0.00    -0.153 OA
ENDROOT
BRANCH   1   5
ATOM      4 CL   UNL     1     -41.390  24.049   0.607  0.00  0.00    -0.081 Cl
ATOM      5  C   UNL     1     -37.548  23.011   2.687  0.00  0.00    +0.124 C 
ATOM      6  C   UNL     1     -37.823  24.343   2.442  0.00  0.00    +0.041 C 
ATOM      7  C   UNL     1     -38.418  22.005   2.311  0.00  0.00    +0.021 C 
ATOM      8  C   UNL     1     -39.012  24.681   1.796  0.00  0.00    +0.133 C 
ATOM      9  C   UNL     1     -39.607  22.344   1.664  0.00  0.00    +0.014 C 
ATOM     10  C   UNL     1     -39.904  23.682   1.408  0.00  0.00    +0.076 C 
BRANCH   8  11
ATOM     11  S   UNL     1     -39.334  26.380   1.503  0.00  0.00    +0.058 S 
ATOM     12  O   UNL     1     -39.444  26.578   0.067  0.00  0.00    -0.153 OA
ATOM     13  O   UNL     1     -40.413  26.798   2.382  0.00  0.00    -0.153 OA
BRANCH  11  14
ATOM     14  N   UNL     1     -37.874  27.079   2.049  0.00  0.00    -0.203 NA
ATOM     15  H   UNL     1     -38.078  27.945   2.549  0.00  0.00    +0.144 HD
ATOM     16  H   UNL     1     -37.274  27.282   1.250  0.00  0.00    +0.144 HD
ENDBRANCH  11  14
ENDBRANCH   8  11
ENDBRANCH   1   5
BRANCH   1  17
ATOM     17  N   UNL     1     -35.024  23.963   3.159  0.00  0.00    -0.150 NA
ATOM     18  C   UNL     1     -34.348  23.939   1.814  0.00  0.00    +0.115 C 
BRANCH  17  19
ATOM     19  C   UNL     1     -34.221  24.525   4.202  0.00  0.00    +0.136 C 
BRANCH  19  22
ATOM     20  O   UNL     1     -35.193  26.594   3.427  0.00  0.00    -0.454 OA
ATOM     21  O   UNL     1     -34.302  28.091   1.936  0.00  0.00    -0.250 OA
ATOM     22  C   UNL     1     -34.733  25.909   4.606  0.00  0.00    +0.153 C 
ATOM     23  C   UNL     1     -33.629  26.807   5.144  0.00  0.00    +0.053 C 
ATOM     24  C   UNL     1     -33.043  27.419   3.892  0.00  0.00    +0.113 C 
ATOM     25  C   UNL     1     -35.894  25.782   5.588  0.00  0.00    +0.045 C 
ATOM     26  C   UNL     1     -34.223  27.440   2.967  0.00  0.00    +0.317 C 
ENDBRANCH  19  22
ENDBRANCH  17  19
ENDBRANCH   1  17
TORSDOF 6
ENDMDL
MODEL 6
REMARK VINA RESULT:      -5.6      4.409      6.804
REMARK  Name = 193492
REMARK  6 active torsions:
REMARK  status: ('A' for Active; 'I' for Inactive)
REMARK    1  A    between atoms: S_1  and  C_5
REMARK    2  A    between atoms: S_1  and  N_17
REMARK    3  A    between atoms: C_8  and  S_11
REMARK    4  A    between atoms: S_11  and  N_14
REMARK    5  A    between atoms: N_17  and  C_19
REMARK    6  A    between atoms: C_19  and  C_22
REMARK                            x       y       z     vdW  Elec       q    Type
REMARK                         _______ _______ _______ _____ _____    ______ ____
ROOT
ATOM      1  S   UNL     1     -35.819  21.685   2.215  0.00  0.00    +0.063 S 
ATOM      2  O   UNL     1     -34.973  21.806   1.042  0.00  0.00    -0.153 OA
ATOM      3  O   UNL     1     -35.849  20.432   2.947  0.00  0.00    -0.153 OA
ENDROOT
BRANCH   1   5
ATOM      4 CL   UNL     1     -34.067  26.108   6.287  0.00  0.00    -0.081 Cl
ATOM      5  C   UNL     1     -35.320  22.946   3.355  0.00  0.00    +0.124 C 
ATOM      6  C   UNL     1     -34.820  24.137   2.863  0.00  0.00    +0.041 C 
ATOM      7  C   UNL     1     -35.441  22.711   4.712  0.00  0.00    +0.021 C 
ATOM      8  C   UNL     1     -34.426  25.129   3.762  0.00  0.00    +0.133 C 
ATOM      9  C   UNL     1     -35.049  23.704   5.610  0.00  0.00    +0.014 C 
ATOM     10  C   UNL     1     -34.541  24.913   5.134  0.00  0.00    +0.076 C 
BRANCH   8  11
ATOM     11  S   UNL     1     -33.792  26.626   3.106  0.00  0.00    +0.058 S 
ATOM     12  O   UNL     1     -32.532  26.915   3.771  0.00  0.00    -0.153 OA
ATOM     13  O   UNL     1     -33.851  26.550   1.655  0.00  0.00    -0.153 OA
BRANCH  11  14
ATOM     14  N   UNL     1     -34.972  27.736   3.648  0.00  0.00    -0.203 NA
ATOM     15  H   UNL     1     -35.189  27.550   4.627  0.00  0.00    +0.144 HD
ATOM     16  H   UNL     1     -35.818  27.633   3.088  0.00  0.00    +0.144 HD
ENDBRANCH  11  14
ENDBRANCH   8  11
ENDBRANCH   1   5
BRANCH   1  17
ATOM     17  N   UNL     1     -37.435  22.200   1.785  0.00  0.00    -0.150 NA
ATOM     18  C   UNL     1     -38.430  21.088   1.586  0.00  0.00    +0.115 C 
BRANCH  17  19
ATOM     19  C   UNL     1     -37.605  23.298   0.883  0.00  0.00    +0.136 C 
BRANCH  19  22
ATOM     20  O   UNL     1     -38.497  25.540   0.888  0.00  0.00    -0.454 OA
ATOM     21  O   UNL     1     -37.572  27.417   1.827  0.00  0.00    -0.250 OA
ATOM     22  C   UNL     1     -38.767  24.194   1.317  0.00  0.00    +0.153 C 
ATOM     23  C   UNL     1     -38.884  24.307   2.829  0.00  0.00    +0.053 C 
ATOM     24  C   UNL     1     -37.929  25.429   3.165  0.00  0.00    +0.113 C 
ATOM     25  C   UNL     1     -40.070  23.724   0.677  0.00  0.00    +0.045 C 
ATOM     26  C   UNL     1     -37.972  26.266   1.921  0.00  0.00    +0.317 C 
ENDBRANCH  19  22
ENDBRANCH  17  19
ENDBRANCH   1  17
TORSDOF 6
ENDMDL
MODEL 7
REMARK VINA RESULT:      -5.5      5.968      9.471
REMARK  Name = 193492
REMARK  6 active torsions:
REMARK  status: ('A' for Active; 'I' for Inactive)
REMARK    1  A    between atoms: S_1  and  C_5
REMARK    2  A    between atoms: S_1  and  N_17
REMARK    3  A    between atoms: C_8  and  S_11
REMARK    4  A    between atoms: S_11  and  N_14
REMARK    5  A    between atoms: N_17  and  C_19
REMARK    6  A    between atoms: C_19  and  C_22
REMARK                            x       y       z     vdW  Elec       q    Type
REMARK                         _______ _______ _______ _____ _____    ______ ____
ROOT
ATOM      1  S   UNL     1     -36.839  22.717   3.155  0.00  0.00    +0.063 S 
ATOM      2  O   UNL     1     -38.272  22.798   2.939  0.00  0.00    -0.153 OA
ATOM      3  O   UNL     1     -36.329  22.563   4.506  0.00  0.00    -0.153 OA
ENDROOT
BRANCH   1   5
ATOM      4 CL   UNL     1     -34.682  17.861  -0.159  0.00  0.00    -0.081 Cl
ATOM      5  C   UNL     1     -36.243  21.342   2.210  0.00  0.00    +0.124 C 
ATOM      6  C   UNL     1     -37.090  20.729   1.307  0.00  0.00    +0.041 C 
ATOM      7  C   UNL     1     -34.942  20.912   2.397  0.00  0.00    +0.021 C 
ATOM      8  C   UNL     1     -36.620  19.647   0.563  0.00  0.00    +0.133 C 
ATOM      9  C   UNL     1     -34.472  19.830   1.653  0.00  0.00    +0.014 C 
ATOM     10  C   UNL     1     -35.312  19.197   0.736  0.00  0.00    +0.076 C 
BRANCH   8  11
ATOM     11  S   UNL     1     -37.721  18.889  -0.572  0.00  0.00    +0.058 S 
ATOM     12  O   UNL     1     -37.301  19.247  -1.917  0.00  0.00    -0.153 OA
ATOM     13  O   UNL     1     -37.867  17.490  -0.201  0.00  0.00    -0.153 OA
BRANCH  11  14
ATOM     14  N   UNL     1     -39.172  19.711  -0.205  0.00  0.00    -0.203 NA
ATOM     15  H   UNL     1     -39.602  19.290   0.618  0.00  0.00    +0.144 HD
ATOM     16  H   UNL     1     -39.812  19.641  -0.996  0.00  0.00    +0.144 HD
ENDBRANCH  11  14
ENDBRANCH   8  11
ENDBRANCH   1   5
BRANCH   1  17
ATOM     17  N   UNL     1     -36.081  24.071   2.348  0.00  0.00    -0.150 NA
ATOM     18  C   UNL     1     -36.059  23.991   0.846  0.00  0.00    +0.115 C 
BRANCH  17  19
ATOM     19  C   UNL     1     -34.904  24.657   2.915  0.00  0.00    +0.136 C 
BRANCH  19  22
ATOM     20  O   UNL     1     -33.982  26.602   4.007  0.00  0.00    -0.454 OA
ATOM     21  O   UNL     1     -32.873  26.691   6.012  0.00  0.00    -0.250 OA
ATOM     22  C   UNL     1     -35.210  26.025   3.528  0.00  0.00    +0.153 C 
ATOM     23  C   UNL     1     -36.078  25.927   4.773  0.00  0.00    +0.053 C 
ATOM     24  C   UNL     1     -35.073  25.688   5.876  0.00  0.00    +0.113 C 
ATOM     25  C   UNL     1     -35.816  26.955   2.481  0.00  0.00    +0.045 C 
ATOM     26  C   UNL     1     -33.853  26.385   5.351  0.00  0.00    +0.317 C 
ENDBRANCH  19  22
ENDBRANCH  17  19
ENDBRANCH   1  17
TORSDOF 6
ENDMDL
MODEL 8
REMARK VINA RESULT:      -5.5      5.701      8.291
REMARK  Name = 193492
REMARK  6 active torsions:
REMARK  status: ('A' for Active; 'I' for Inactive)
REMARK    1  A    between atoms: S_1  and  C_5
REMARK    2  A    between atoms: S_1  and  N_17
REMARK    3  A    between atoms: C_8  and  S_11
REMARK    4  A    between atoms: S_11  and  N_14
REMARK    5  A    between atoms: N_17  and  C_19
REMARK    6  A    between atoms: C_19  and  C_22
REMARK                            x       y       z     vdW  Elec       q    Type
REMARK                         _______ _______ _______ _____ _____    ______ ____
ROOT
ATOM      1  S   UNL     1     -34.793  24.052   4.285  0.00  0.00    +0.063 S 
ATOM      2  O   UNL     1     -35.118  22.976   5.203  0.00  0.00    -0.153 OA
ATOM      3  O   UNL     1     -33.499  24.704   4.379  0.00  0.00    -0.153 OA
ENDROOT
BRANCH   1   5
ATOM      4 CL   UNL     1     -35.264  21.798  -1.539  0.00  0.00    -0.081 Cl
ATOM      5  C   UNL     1     -34.934  23.401   2.643  0.00  0.00    +0.124 C 
ATOM      6  C   UNL     1     -35.552  22.180   2.455  0.00  0.00    +0.041 C 
ATOM      7  C   UNL     1     -34.423  24.131   1.586  0.00  0.00    +0.021 C 
ATOM      8  C   UNL     1     -35.662  21.668   1.161  0.00  0.00    +0.133 C 
ATOM      9  C   UNL     1     -34.534  23.620   0.293  0.00  0.00    +0.014 C 
ATOM     10  C   UNL     1     -35.153  22.388   0.081  0.00  0.00    +0.076 C 
BRANCH   8  11
ATOM     11  S   UNL     1     -36.448  20.115   0.957  0.00  0.00    +0.058 S 
ATOM     12  O   UNL     1     -37.667  20.321   0.192  0.00  0.00    -0.153 OA
ATOM     13  O   UNL     1     -35.453  19.157   0.499  0.00  0.00    -0.153 OA
BRANCH  11  14
ATOM     14  N   UNL     1     -36.862  19.751   2.573  0.00  0.00    -0.203 NA
ATOM     15  H   UNL     1     -37.779  19.306   2.598  0.00  0.00    +0.144 HD
ATOM     16  H   UNL     1     -36.888  20.612   3.119  0.00  0.00    +0.144 HD
ENDBRANCH  11  14
ENDBRANCH   8  11
ENDBRANCH   1   5
BRANCH   1  17
ATOM     17  N   UNL     1     -36.091  25.223   4.327  0.00  0.00    -0.150 NA
ATOM     18  C   UNL     1     -36.102  26.126   5.532  0.00  0.00    +0.115 C 
BRANCH  17  19
ATOM     19  C   UNL     1     -37.396  24.842   3.878  0.00  0.00    +0.136 C 
BRANCH  19  22
ATOM     20  O   UNL     1     -39.032  26.373   2.981  0.00  0.00    -0.454 OA
ATOM     21  O   UNL     1     -41.279  26.016   2.694  0.00  0.00    -0.250 OA
ATOM     22  C   UNL     1     -37.822  25.664   2.659  0.00  0.00    +0.153 C 
ATOM     23  C   UNL     1     -38.211  24.794   1.474  0.00  0.00    +0.053 C 
ATOM     24  C   UNL     1     -39.666  24.482   1.739  0.00  0.00    +0.113 C 
ATOM     25  C   UNL     1     -36.740  26.676   2.294  0.00  0.00    +0.045 C 
ATOM     26  C   UNL     1     -40.117  25.693   2.500  0.00  0.00    +0.317 C 
ENDBRANCH  19  22
ENDBRANCH  17  19
ENDBRANCH   1  17
TORSDOF 6
ENDMDL
MODEL 9
REMARK VINA RESULT:      -5.4     11.779     14.283
REMARK  Name = 193492
REMARK  6 active torsions:
REMARK  status: ('A' for Active; 'I' for Inactive)
REMARK    1  A    between atoms: S_1  and  C_5
REMARK    2  A    between atoms: S_1  and  N_17
REMARK    3  A    between atoms: C_8  and  S_11
REMARK    4  A    between atoms: S_11  and  N_14
REMARK    5  A    between atoms: N_17  and  C_19
REMARK    6  A    between atoms: C_19  and  C_22
REMARK                            x       y       z     vdW  Elec       q    Type
REMARK                         _______ _______ _______ _____ _____    ______ ____
ROOT
ATOM      1  S   UNL     1     -46.519  27.371   7.097  0.00  0.00    +0.063 S 
ATOM      2  O   UNL     1     -47.953  27.228   6.923  0.00  0.00    -0.153 OA
ATOM      3  O   UNL     1     -45.854  26.639   8.159  0.00  0.00    -0.153 OA
ENDROOT
BRANCH   1   5
ATOM      4 CL   UNL     1     -43.857  25.651   1.697  0.00  0.00    -0.081 Cl
ATOM      5  C   UNL     1     -45.754  26.895   5.572  0.00  0.00    +0.124 C 
ATOM      6  C   UNL     1     -44.601  27.540   5.169  0.00  0.00    +0.041 C 
ATOM      7  C   UNL     1     -46.329  25.889   4.818  0.00  0.00    +0.021 C 
ATOM      8  C   UNL     1     -43.999  27.164   3.967  0.00  0.00    +0.133 C 
ATOM      9  C   UNL     1     -45.727  25.513   3.617  0.00  0.00    +0.014 C 
ATOM     10  C   UNL     1     -44.562  26.152   3.192  0.00  0.00    +0.076 C 
BRANCH   8  11
ATOM     11  S   UNL     1     -42.539  28.004   3.482  0.00  0.00    +0.058 S 
ATOM     12  O   UNL     1     -41.426  27.073   3.581  0.00  0.00    -0.153 OA
ATOM     13  O   UNL     1     -42.804  28.693   2.228  0.00  0.00    -0.153 OA
BRANCH  11  14
ATOM     14  N   UNL     1     -42.407  29.162   4.730  0.00  0.00    -0.203 NA
ATOM     15  H   UNL     1     -41.449  29.511   4.770  0.00  0.00    +0.144 HD
ATOM     16  H   UNL     1     -42.648  28.729   5.622  0.00  0.00    +0.144 HD
ENDBRANCH  11  14
ENDBRANCH   8  11
ENDBRANCH   1   5
BRANCH   1  17
ATOM     17  N   UNL     1     -46.142  29.077   7.179  0.00  0.00    -0.150 NA
ATOM     18  C   UNL     1     -45.326  29.496   8.372  0.00  0.00    +0.115 C 
BRANCH  17  19
ATOM     19  C   UNL     1     -47.132  30.035   6.789  0.00  0.00    +0.136 C 
BRANCH  19  22
ATOM     20  O   UNL     1     -45.404  30.572   5.192  0.00  0.00    -0.454 OA
ATOM     21  O   UNL     1     -43.657  32.036   5.454  0.00  0.00    -0.250 OA
ATOM     22  C   UNL     1     -46.826  30.610   5.404  0.00  0.00    +0.153 C 
ATOM     23  C   UNL     1     -47.174  32.087   5.295  0.00  0.00    +0.053 C 
ATOM     24  C   UNL     1     -45.935  32.772   5.824  0.00  0.00    +0.113 C 
ATOM     25  C   UNL     1     -47.508  29.781   4.320  0.00  0.00    +0.045 C 
ATOM     26  C   UNL     1     -44.855  31.794   5.468  0.00  0.00    +0.317 C 
ENDBRANCH  19  22
ENDBRANCH  17  19
ENDBRANCH   1  17
TORSDOF 6
ENDMDL
