MODEL 1
REMARK VINA RESULT:      -6.5      0.000      0.000
REMARK  Name = 193835
REMARK  6 active torsions:
REMARK  status: ('A' for Active; 'I' for Inactive)
REMARK    1  A    between atoms: C_2  and  N_8
REMARK    2  A    between atoms: C_3  and  C_21
REMARK    3  A    between atoms: C_9  and  C_13
REMARK    4  A    between atoms: N_20  and  C_23
REMARK    5  A    between atoms: C_23  and  C_24
REMARK    6  A    between atoms: C_24  and  C_27
REMARK                            x       y       z     vdW  Elec       q    Type
REMARK                         _______ _______ _______ _____ _____    ______ ____
ROOT
ATOM      1  N   UNL     1     -35.837  29.340   0.833  0.00  0.00    -0.280 N 
ATOM      2  C   UNL     1     -36.702  31.275   1.416  0.00  0.00    +0.067 C 
ATOM      3  C   UNL     1     -35.452  29.573   2.128  0.00  0.00    +0.107 C 
ATOM      4  C   UNL     1     -35.985  30.783   2.515  0.00  0.00    +0.035 C 
ATOM      5  C   UNL     1     -36.607  30.383   0.388  0.00  0.00    +0.080 C 
ATOM      6  C   UNL     1     -35.496  28.176   0.045  0.00  0.00    +0.117 C 
ENDROOT
BRANCH   2   8
ATOM      7  O   UNL     1     -39.649  31.764   1.197  0.00  0.00    -0.273 OA
ATOM      8  N   UNL     1     -37.412  32.480   1.354  0.00  0.00    -0.281 N 
ATOM      9  C   UNL     1     -38.788  32.636   1.252  0.00  0.00    +0.249 C 
ATOM     10  H   UNL     1     -36.878  33.306   1.386  0.00  0.00    +0.155 HD
BRANCH   9  13
ATOM     11  N   UNL     1     -40.428  34.206   1.958  0.00  0.00    -0.253 NA
ATOM     12  N   UNL     1     -41.295  35.833   3.460  0.00  0.00    -0.346 N 
ATOM     13  C   UNL     1     -39.161  34.079   1.213  0.00  0.00    +0.181 C 
ATOM     14  C   UNL     1     -38.163  34.957   1.943  0.00  0.00    +0.041 C 
ATOM     15  C   UNL     1     -39.040  36.063   2.477  0.00  0.00    +0.063 C 
ATOM     16  C   UNL     1     -40.334  35.310   2.642  0.00  0.00    +0.097 C 
ATOM     17  H   UNL     1     -42.148  35.358   3.583  0.00  0.00    +0.143 HD
ATOM     18  H   UNL     1     -41.134  36.683   3.928  0.00  0.00    +0.143 HD
ENDBRANCH   9  13
ENDBRANCH   2   8
BRANCH   3  21
ATOM     19  O   UNL     1     -33.387  28.747   2.946  0.00  0.00    -0.269 OA
ATOM     20  N   UNL     1     -35.301  27.681   3.637  0.00  0.00    -0.299 N 
ATOM     21  C   UNL     1     -34.639  28.688   2.905  0.00  0.00    +0.260 C 
ATOM     22  H   UNL     1     -36.285  27.647   3.597  0.00  0.00    +0.150 HD
BRANCH  20  23
ATOM     23  C   UNL     1     -34.616  26.697   4.444  0.00  0.00    +0.097 C 
BRANCH  23  24
ATOM     24  C   UNL     1     -35.554  25.989   5.413  0.00  0.00    +0.081 C 
BRANCH  24  27
ATOM     25  N   UNL     1     -36.537  23.862   4.631  0.00  0.00    -0.346 N 
ATOM     26  N   UNL     1     -37.590  25.910   4.115  0.00  0.00    -0.289 NA
ATOM     27  C   UNL     1     -36.638  25.227   4.675  0.00  0.00    +0.095 C 
ATOM     28  H   UNL     1     -37.221  23.332   4.162  0.00  0.00    +0.143 HD
ATOM     29  H   UNL     1     -35.780  23.411   5.071  0.00  0.00    +0.143 HD
ATOM     30  H   UNL     1     -38.309  25.445   3.629  0.00  0.00    +0.188 HD
ENDBRANCH  24  27
ENDBRANCH  23  24
ENDBRANCH  20  23
ENDBRANCH   3  21
TORSDOF 6
ENDMDL
MODEL 2
REMARK VINA RESULT:      -6.2      6.537      7.824
REMARK  Name = 193835
REMARK  6 active torsions:
REMARK  status: ('A' for Active; 'I' for Inactive)
REMARK    1  A    between atoms: C_2  and  N_8
REMARK    2  A    between atoms: C_3  and  C_21
REMARK    3  A    between atoms: C_9  and  C_13
REMARK    4  A    between atoms: N_20  and  C_23
REMARK    5  A    between atoms: C_23  and  C_24
REMARK    6  A    between atoms: C_24  and  C_27
REMARK                            x       y       z     vdW  Elec       q    Type
REMARK                         _______ _______ _______ _____ _____    ______ ____
ROOT
ATOM      1  N   UNL     1     -34.476  25.095   2.874  0.00  0.00    -0.280 N 
ATOM      2  C   UNL     1     -33.882  26.706   4.245  0.00  0.00    +0.067 C 
ATOM      3  C   UNL     1     -35.468  25.200   3.814  0.00  0.00    +0.107 C 
ATOM      4  C   UNL     1     -35.115  26.207   4.686  0.00  0.00    +0.035 C 
ATOM      5  C   UNL     1     -33.497  26.017   3.132  0.00  0.00    +0.080 C 
ATOM      6  C   UNL     1     -34.454  24.161   1.769  0.00  0.00    +0.117 C 
ENDROOT
BRANCH   2   8
ATOM      7  O   UNL     1     -32.413  26.785   6.854  0.00  0.00    -0.273 OA
ATOM      8  N   UNL     1     -33.142  27.741   4.830  0.00  0.00    -0.281 N 
ATOM      9  C   UNL     1     -32.483  27.710   6.051  0.00  0.00    +0.249 C 
ATOM     10  H   UNL     1     -33.084  28.581   4.320  0.00  0.00    +0.155 HD
BRANCH   9  13
ATOM     11  N   UNL     1     -30.357  28.765   6.202  0.00  0.00    -0.253 NA
ATOM     12  N   UNL     1     -28.549  30.024   5.308  0.00  0.00    -0.346 N 
ATOM     13  C   UNL     1     -31.807  29.010   6.326  0.00  0.00    +0.181 C 
ATOM     14  C   UNL     1     -32.137  30.068   5.290  0.00  0.00    +0.041 C 
ATOM     15  C   UNL     1     -30.865  30.879   5.245  0.00  0.00    +0.063 C 
ATOM     16  C   UNL     1     -29.865  29.814   5.607  0.00  0.00    +0.097 C 
ATOM     17  H   UNL     1     -27.878  29.341   5.536  0.00  0.00    +0.143 HD
ATOM     18  H   UNL     1     -28.271  30.857   4.865  0.00  0.00    +0.143 HD
ENDBRANCH   9  13
ENDBRANCH   2   8
BRANCH   3  21
ATOM     19  O   UNL     1     -36.747  23.336   4.523  0.00  0.00    -0.269 OA
ATOM     20  N   UNL     1     -37.731  24.796   3.048  0.00  0.00    -0.299 N 
ATOM     21  C   UNL     1     -36.645  24.388   3.849  0.00  0.00    +0.260 C 
ATOM     22  H   UNL     1     -37.638  25.625   2.524  0.00  0.00    +0.150 HD
BRANCH  20  23
ATOM     23  C   UNL     1     -38.975  24.065   2.955  0.00  0.00    +0.097 C 
BRANCH  23  24
ATOM     24  C   UNL     1     -39.058  23.224   1.688  0.00  0.00    +0.081 C 
BRANCH  24  27
ATOM     25  N   UNL     1     -37.924  21.161   2.439  0.00  0.00    -0.346 N 
ATOM     26  N   UNL     1     -40.208  21.104   1.847  0.00  0.00    -0.289 NA
ATOM     27  C   UNL     1     -39.088  21.741   2.010  0.00  0.00    +0.095 C 
ATOM     28  H   UNL     1     -37.902  20.202   2.657  0.00  0.00    +0.143 HD
ATOM     29  H   UNL     1     -37.107  21.705   2.529  0.00  0.00    +0.143 HD
ATOM     30  H   UNL     1     -40.260  20.142   2.047  0.00  0.00    +0.188 HD
ENDBRANCH  24  27
ENDBRANCH  23  24
ENDBRANCH  20  23
ENDBRANCH   3  21
TORSDOF 6
ENDMDL
MODEL 3
REMARK VINA RESULT:      -6.2      6.388      9.368
REMARK  Name = 193835
REMARK  6 active torsions:
REMARK  status: ('A' for Active; 'I' for Inactive)
REMARK    1  A    between atoms: C_2  and  N_8
REMARK    2  A    between atoms: C_3  and  C_21
REMARK    3  A    between atoms: C_9  and  C_13
REMARK    4  A    between atoms: N_20  and  C_23
REMARK    5  A    between atoms: C_23  and  C_24
REMARK    6  A    between atoms: C_24  and  C_27
REMARK                            x       y       z     vdW  Elec       q    Type
REMARK                         _______ _______ _______ _____ _____    ______ ____
ROOT
ATOM      1  N   UNL     1     -32.608  27.962   3.620  0.00  0.00    -0.280 N 
ATOM      2  C   UNL     1     -33.566  26.306   4.701  0.00  0.00    +0.067 C 
ATOM      3  C   UNL     1     -32.384  28.178   4.954  0.00  0.00    +0.107 C 
ATOM      4  C   UNL     1     -32.977  27.149   5.653  0.00  0.00    +0.035 C 
ATOM      5  C   UNL     1     -33.336  26.812   3.456  0.00  0.00    +0.080 C 
ATOM      6  C   UNL     1     -32.152  28.806   2.537  0.00  0.00    +0.117 C 
ENDROOT
BRANCH   2   8
ATOM      7  O   UNL     1     -36.417  25.929   5.538  0.00  0.00    -0.273 OA
ATOM      8  N   UNL     1     -34.281  25.129   4.957  0.00  0.00    -0.281 N 
ATOM      9  C   UNL     1     -35.610  25.026   5.345  0.00  0.00    +0.249 C 
ATOM     10  H   UNL     1     -33.787  24.284   4.851  0.00  0.00    +0.155 HD
BRANCH   9  13
ATOM     11  N   UNL     1     -36.285  23.072   4.170  0.00  0.00    -0.253 NA
ATOM     12  N   UNL     1     -35.861  20.992   3.099  0.00  0.00    -0.346 N 
ATOM     13  C   UNL     1     -36.006  23.599   5.520  0.00  0.00    +0.181 C 
ATOM     14  C   UNL     1     -34.880  22.747   6.072  0.00  0.00    +0.041 C 
ATOM     15  C   UNL     1     -35.146  21.408   5.427  0.00  0.00    +0.063 C 
ATOM     16  C   UNL     1     -35.803  21.862   4.151  0.00  0.00    +0.097 C 
ATOM     17  H   UNL     1     -36.286  21.267   2.255  0.00  0.00    +0.143 HD
ATOM     18  H   UNL     1     -35.476  20.090   3.184  0.00  0.00    +0.143 HD
ENDBRANCH   9  13
ENDBRANCH   2   8
BRANCH   3  21
ATOM     19  O   UNL     1     -32.200  30.315   5.960  0.00  0.00    -0.269 OA
ATOM     20  N   UNL     1     -30.250  29.221   5.438  0.00  0.00    -0.299 N 
ATOM     21  C   UNL     1     -31.657  29.290   5.486  0.00  0.00    +0.260 C 
ATOM     22  H   UNL     1     -29.836  28.409   5.064  0.00  0.00    +0.150 HD
BRANCH  20  23
ATOM     23  C   UNL     1     -29.381  30.275   5.909  0.00  0.00    +0.097 C 
BRANCH  23  24
ATOM     24  C   UNL     1     -28.054  29.741   6.431  0.00  0.00    +0.081 C 
BRANCH  24  27
ATOM     25  N   UNL     1     -28.221  27.475   7.402  0.00  0.00    -0.346 N 
ATOM     26  N   UNL     1     -28.469  29.373   8.783  0.00  0.00    -0.289 NA
ATOM     27  C   UNL     1     -28.258  28.826   7.625  0.00  0.00    +0.095 C 
ATOM     28  H   UNL     1     -28.349  26.849   8.150  0.00  0.00    +0.143 HD
ATOM     29  H   UNL     1     -28.066  27.131   6.492  0.00  0.00    +0.143 HD
ATOM     30  H   UNL     1     -28.605  28.807   9.577  0.00  0.00    +0.188 HD
ENDBRANCH  24  27
ENDBRANCH  23  24
ENDBRANCH  20  23
ENDBRANCH   3  21
TORSDOF 6
ENDMDL
MODEL 4
REMARK VINA RESULT:      -6.1      6.607      8.258
REMARK  Name = 193835
REMARK  6 active torsions:
REMARK  status: ('A' for Active; 'I' for Inactive)
REMARK    1  A    between atoms: C_2  and  N_8
REMARK    2  A    between atoms: C_3  and  C_21
REMARK    3  A    between atoms: C_9  and  C_13
REMARK    4  A    between atoms: N_20  and  C_23
REMARK    5  A    between atoms: C_23  and  C_24
REMARK    6  A    between atoms: C_24  and  C_27
REMARK                            x       y       z     vdW  Elec       q    Type
REMARK                         _______ _______ _______ _____ _____    ______ ____
ROOT
ATOM      1  N   UNL     1     -35.596  23.912   4.542  0.00  0.00    -0.280 N 
ATOM      2  C   UNL     1     -34.714  25.885   4.939  0.00  0.00    +0.067 C 
ATOM      3  C   UNL     1     -36.443  24.842   3.997  0.00  0.00    +0.107 C 
ATOM      4  C   UNL     1     -35.908  26.089   4.235  0.00  0.00    +0.035 C 
ATOM      5  C   UNL     1     -34.529  24.547   5.123  0.00  0.00    +0.080 C 
ATOM      6  C   UNL     1     -35.781  22.478   4.513  0.00  0.00    +0.117 C 
ENDROOT
BRANCH   2   8
ATOM      7  O   UNL     1     -32.546  27.346   3.477  0.00  0.00    -0.273 OA
ATOM      8  N   UNL     1     -33.833  26.875   5.391  0.00  0.00    -0.281 N 
ATOM      9  C   UNL     1     -32.844  27.514   4.655  0.00  0.00    +0.249 C 
ATOM     10  H   UNL     1     -33.924  27.148   6.333  0.00  0.00    +0.155 HD
BRANCH   9  13
ATOM     11  N   UNL     1     -31.144  27.748   6.301  0.00  0.00    -0.253 NA
ATOM     12  N   UNL     1     -28.904  28.151   6.991  0.00  0.00    -0.346 N 
ATOM     13  C   UNL     1     -32.114  28.510   5.491  0.00  0.00    +0.181 C 
ATOM     14  C   UNL     1     -31.291  29.475   4.660  0.00  0.00    +0.041 C 
ATOM     15  C   UNL     1     -30.122  29.764   5.571  0.00  0.00    +0.063 C 
ATOM     16  C   UNL     1     -30.058  28.467   6.331  0.00  0.00    +0.097 C 
ATOM     17  H   UNL     1     -28.841  27.308   7.494  0.00  0.00    +0.143 HD
ATOM     18  H   UNL     1     -28.137  28.766   6.963  0.00  0.00    +0.143 HD
ENDBRANCH   9  13
ENDBRANCH   2   8
BRANCH   3  21
ATOM     19  O   UNL     1     -38.785  24.512   3.862  0.00  0.00    -0.269 OA
ATOM     20  N   UNL     1     -37.560  24.195   1.946  0.00  0.00    -0.299 N 
ATOM     21  C   UNL     1     -37.659  24.529   3.312  0.00  0.00    +0.260 C 
ATOM     22  H   UNL     1     -36.669  24.213   1.525  0.00  0.00    +0.150 HD
BRANCH  20  23
ATOM     23  C   UNL     1     -38.694  23.828   1.127  0.00  0.00    +0.097 C 
BRANCH  23  24
ATOM     24  C   UNL     1     -38.572  22.417   0.569  0.00  0.00    +0.081 C 
BRANCH  24  27
ATOM     25  N   UNL     1     -37.763  20.678   2.127  0.00  0.00    -0.346 N 
ATOM     26  N   UNL     1     -40.065  21.190   2.020  0.00  0.00    -0.289 NA
ATOM     27  C   UNL     1     -38.837  21.374   1.639  0.00  0.00    +0.095 C 
ATOM     28  H   UNL     1     -37.894  19.993   2.821  0.00  0.00    +0.143 HD
ATOM     29  H   UNL     1     -36.859  20.863   1.782  0.00  0.00    +0.143 HD
ATOM     30  H   UNL     1     -40.270  20.521   2.712  0.00  0.00    +0.188 HD
ENDBRANCH  24  27
ENDBRANCH  23  24
ENDBRANCH  20  23
ENDBRANCH   3  21
TORSDOF 6
ENDMDL
MODEL 5
REMARK VINA RESULT:      -6.1      6.624     12.414
REMARK  Name = 193835
REMARK  6 active torsions:
REMARK  status: ('A' for Active; 'I' for Inactive)
REMARK    1  A    between atoms: C_2  and  N_8
REMARK    2  A    between atoms: C_3  and  C_21
REMARK    3  A    between atoms: C_9  and  C_13
REMARK    4  A    between atoms: N_20  and  C_23
REMARK    5  A    between atoms: C_23  and  C_24
REMARK    6  A    between atoms: C_24  and  C_27
REMARK                            x       y       z     vdW  Elec       q    Type
REMARK                         _______ _______ _______ _____ _____    ______ ____
ROOT
ATOM      1  N   UNL     1     -37.012  21.889   2.501  0.00  0.00    -0.280 N 
ATOM      2  C   UNL     1     -35.861  20.208   1.678  0.00  0.00    +0.067 C 
ATOM      3  C   UNL     1     -35.915  21.728   3.307  0.00  0.00    +0.107 C 
ATOM      4  C   UNL     1     -35.177  20.677   2.808  0.00  0.00    +0.035 C 
ATOM      5  C   UNL     1     -36.986  20.957   1.497  0.00  0.00    +0.080 C 
ATOM      6  C   UNL     1     -38.046  22.887   2.669  0.00  0.00    +0.117 C 
ENDROOT
BRANCH   2   8
ATOM      7  O   UNL     1     -33.846  20.126  -0.535  0.00  0.00    -0.273 OA
ATOM      8  N   UNL     1     -35.476  19.146   0.851  0.00  0.00    -0.281 N 
ATOM      9  C   UNL     1     -34.528  19.178  -0.163  0.00  0.00    +0.249 C 
ATOM     10  H   UNL     1     -35.925  18.284   1.005  0.00  0.00    +0.155 HD
BRANCH   9  13
ATOM     11  N   UNL     1     -33.086  17.305  -0.418  0.00  0.00    -0.253 NA
ATOM     12  N   UNL     1     -32.309  15.135   0.167  0.00  0.00    -0.346 N 
ATOM     13  C   UNL     1     -34.400  17.844  -0.817  0.00  0.00    +0.181 C 
ATOM     14  C   UNL     1     -35.426  16.847  -0.311  0.00  0.00    +0.041 C 
ATOM     15  C   UNL     1     -34.677  15.541  -0.407  0.00  0.00    +0.063 C 
ATOM     16  C   UNL     1     -33.269  16.033  -0.203  0.00  0.00    +0.097 C 
ATOM     17  H   UNL     1     -31.381  15.435   0.306  0.00  0.00    +0.143 HD
ATOM     18  H   UNL     1     -32.543  14.188   0.296  0.00  0.00    +0.143 HD
ENDBRANCH   9  13
ENDBRANCH   2   8
BRANCH   3  21
ATOM     19  O   UNL     1     -35.989  22.242   5.619  0.00  0.00    -0.269 OA
ATOM     20  N   UNL     1     -34.913  23.729   4.238  0.00  0.00    -0.299 N 
ATOM     21  C   UNL     1     -35.625  22.532   4.455  0.00  0.00    +0.260 C 
ATOM     22  H   UNL     1     -34.632  23.945   3.319  0.00  0.00    +0.150 HD
BRANCH  20  23
ATOM     23  C   UNL     1     -34.571  24.658   5.292  0.00  0.00    +0.097 C 
BRANCH  23  24
ATOM     24  C   UNL     1     -35.721  25.597   5.630  0.00  0.00    +0.081 C 
BRANCH  24  27
ATOM     25  N   UNL     1     -35.353  27.337   3.915  0.00  0.00    -0.346 N 
ATOM     26  N   UNL     1     -37.346  26.073   3.906  0.00  0.00    -0.289 NA
ATOM     27  C   UNL     1     -36.185  26.367   4.407  0.00  0.00    +0.095 C 
ATOM     28  H   UNL     1     -35.617  27.859   3.124  0.00  0.00    +0.143 HD
ATOM     29  H   UNL     1     -34.489  27.513   4.355  0.00  0.00    +0.143 HD
ATOM     30  H   UNL     1     -37.675  26.554   3.113  0.00  0.00    +0.188 HD
ENDBRANCH  24  27
ENDBRANCH  23  24
ENDBRANCH  20  23
ENDBRANCH   3  21
TORSDOF 6
ENDMDL
MODEL 6
REMARK VINA RESULT:      -6.1      7.316     10.945
REMARK  Name = 193835
REMARK  6 active torsions:
REMARK  status: ('A' for Active; 'I' for Inactive)
REMARK    1  A    between atoms: C_2  and  N_8
REMARK    2  A    between atoms: C_3  and  C_21
REMARK    3  A    between atoms: C_9  and  C_13
REMARK    4  A    between atoms: N_20  and  C_23
REMARK    5  A    between atoms: C_23  and  C_24
REMARK    6  A    between atoms: C_24  and  C_27
REMARK                            x       y       z     vdW  Elec       q    Type
REMARK                         _______ _______ _______ _____ _____    ______ ____
ROOT
ATOM      1  N   UNL     1     -34.912  19.331   1.183  0.00  0.00    -0.280 N 
ATOM      2  C   UNL     1     -35.696  20.865   2.548  0.00  0.00    +0.067 C 
ATOM      3  C   UNL     1     -36.238  19.495   0.876  0.00  0.00    +0.107 C 
ATOM      4  C   UNL     1     -36.751  20.455   1.721  0.00  0.00    +0.035 C 
ATOM      5  C   UNL     1     -34.572  20.171   2.211  0.00  0.00    +0.080 C 
ATOM      6  C   UNL     1     -33.999  18.419   0.530  0.00  0.00    +0.117 C 
ENDROOT
BRANCH   2   8
ATOM      7  O   UNL     1     -34.876  23.745   2.515  0.00  0.00    -0.273 OA
ATOM      8  N   UNL     1     -35.756  21.829   3.561  0.00  0.00    -0.281 N 
ATOM      9  C   UNL     1     -35.356  23.156   3.478  0.00  0.00    +0.249 C 
ATOM     10  H   UNL     1     -36.122  21.535   4.426  0.00  0.00    +0.155 HD
BRANCH   9  13
ATOM     11  N   UNL     1     -34.296  24.495   5.133  0.00  0.00    -0.253 NA
ATOM     12  N   UNL     1     -33.709  26.580   6.114  0.00  0.00    -0.346 N 
ATOM     13  C   UNL     1     -35.580  23.864   4.771  0.00  0.00    +0.181 C 
ATOM     14  C   UNL     1     -36.578  25.000   4.646  0.00  0.00    +0.041 C 
ATOM     15  C   UNL     1     -36.065  25.989   5.665  0.00  0.00    +0.063 C 
ATOM     16  C   UNL     1     -34.597  25.662   5.627  0.00  0.00    +0.097 C 
ATOM     17  H   UNL     1     -32.744  26.387   6.099  0.00  0.00    +0.143 HD
ATOM     18  H   UNL     1     -34.034  27.434   6.479  0.00  0.00    +0.143 HD
ENDBRANCH   9  13
ENDBRANCH   2   8
BRANCH   3  21
ATOM     19  O   UNL     1     -37.034  19.175  -1.332  0.00  0.00    -0.269 OA
ATOM     20  N   UNL     1     -37.546  17.562   0.221  0.00  0.00    -0.299 N 
ATOM     21  C   UNL     1     -36.930  18.775  -0.149  0.00  0.00    +0.260 C 
ATOM     22  H   UNL     1     -37.455  17.259   1.154  0.00  0.00    +0.150 HD
BRANCH  20  23
ATOM     23  C   UNL     1     -38.304  16.738  -0.695  0.00  0.00    +0.097 C 
BRANCH  23  24
ATOM     24  C   UNL     1     -37.668  15.370  -0.903  0.00  0.00    +0.081 C 
BRANCH  24  27
ATOM     25  N   UNL     1     -35.428  15.753  -1.874  0.00  0.00    -0.346 N 
ATOM     26  N   UNL     1     -35.645  15.172   0.404  0.00  0.00    -0.289 NA
ATOM     27  C   UNL     1     -36.158  15.435  -0.759  0.00  0.00    +0.095 C 
ATOM     28  H   UNL     1     -34.447  15.805  -1.822  0.00  0.00    +0.143 HD
ATOM     29  H   UNL     1     -35.886  15.931  -2.728  0.00  0.00    +0.143 HD
ATOM     30  H   UNL     1     -34.670  15.205   0.529  0.00  0.00    +0.188 HD
ENDBRANCH  24  27
ENDBRANCH  23  24
ENDBRANCH  20  23
ENDBRANCH   3  21
TORSDOF 6
ENDMDL
MODEL 7
REMARK VINA RESULT:      -6.0      7.335     12.867
REMARK  Name = 193835
REMARK  6 active torsions:
REMARK  status: ('A' for Active; 'I' for Inactive)
REMARK    1  A    between atoms: C_2  and  N_8
REMARK    2  A    between atoms: C_3  and  C_21
REMARK    3  A    between atoms: C_9  and  C_13
REMARK    4  A    between atoms: N_20  and  C_23
REMARK    5  A    between atoms: C_23  and  C_24
REMARK    6  A    between atoms: C_24  and  C_27
REMARK                            x       y       z     vdW  Elec       q    Type
REMARK                         _______ _______ _______ _____ _____    ______ ____
ROOT
ATOM      1  N   UNL     1     -34.783  22.228   1.421  0.00  0.00    -0.280 N 
ATOM      2  C   UNL     1     -34.593  20.039   1.388  0.00  0.00    +0.067 C 
ATOM      3  C   UNL     1     -35.372  21.762   2.568  0.00  0.00    +0.107 C 
ATOM      4  C   UNL     1     -35.264  20.388   2.568  0.00  0.00    +0.035 C 
ATOM      5  C   UNL     1     -34.302  21.174   0.691  0.00  0.00    +0.080 C 
ATOM      6  C   UNL     1     -34.673  23.617   1.030  0.00  0.00    +0.117 C 
ENDROOT
BRANCH   2   8
ATOM      7  O   UNL     1     -35.931  18.266  -0.621  0.00  0.00    -0.273 OA
ATOM      8  N   UNL     1     -34.262  18.745   0.969  0.00  0.00    -0.281 N 
ATOM      9  C   UNL     1     -34.931  17.975   0.026  0.00  0.00    +0.249 C 
ATOM     10  H   UNL     1     -33.470  18.337   1.387  0.00  0.00    +0.155 HD
BRANCH   9  13
ATOM     11  N   UNL     1     -35.347  15.640  -0.149  0.00  0.00    -0.253 NA
ATOM     12  N   UNL     1     -35.723  13.642  -1.383  0.00  0.00    -0.346 N 
ATOM     13  C   UNL     1     -34.270  16.649  -0.147  0.00  0.00    +0.181 C 
ATOM     14  C   UNL     1     -33.576  16.516  -1.489  0.00  0.00    +0.041 C 
ATOM     15  C   UNL     1     -33.728  15.044  -1.783  0.00  0.00    +0.063 C 
ATOM     16  C   UNL     1     -35.018  14.767  -1.058  0.00  0.00    +0.097 C 
ATOM     17  H   UNL     1     -36.569  13.441  -0.921  0.00  0.00    +0.143 HD
ATOM     18  H   UNL     1     -35.386  13.034  -2.079  0.00  0.00    +0.143 HD
ENDBRANCH   9  13
ENDBRANCH   2   8
BRANCH   3  21
ATOM     19  O   UNL     1     -37.192  22.915   3.554  0.00  0.00    -0.269 OA
ATOM     20  N   UNL     1     -35.147  23.083   4.587  0.00  0.00    -0.299 N 
ATOM     21  C   UNL     1     -35.981  22.591   3.563  0.00  0.00    +0.260 C 
ATOM     22  H   UNL     1     -34.198  22.819   4.583  0.00  0.00    +0.150 HD
BRANCH  20  23
ATOM     23  C   UNL     1     -35.610  23.953   5.645  0.00  0.00    +0.097 C 
BRANCH  23  24
ATOM     24  C   UNL     1     -35.024  25.355   5.539  0.00  0.00    +0.081 C 
BRANCH  24  27
ATOM     25  N   UNL     1     -35.283  27.365   4.126  0.00  0.00    -0.346 N 
ATOM     26  N   UNL     1     -37.104  25.895   4.434  0.00  0.00    -0.289 NA
ATOM     27  C   UNL     1     -35.871  26.242   4.645  0.00  0.00    +0.095 C 
ATOM     28  H   UNL     1     -35.799  27.966   3.542  0.00  0.00    +0.143 HD
ATOM     29  H   UNL     1     -34.344  27.572   4.338  0.00  0.00    +0.143 HD
ATOM     30  H   UNL     1     -37.679  26.449   3.859  0.00  0.00    +0.188 HD
ENDBRANCH  24  27
ENDBRANCH  23  24
ENDBRANCH  20  23
ENDBRANCH   3  21
TORSDOF 6
ENDMDL
MODEL 8
REMARK VINA RESULT:      -5.9      6.088      9.758
REMARK  Name = 193835
REMARK  6 active torsions:
REMARK  status: ('A' for Active; 'I' for Inactive)
REMARK    1  A    between atoms: C_2  and  N_8
REMARK    2  A    between atoms: C_3  and  C_21
REMARK    3  A    between atoms: C_9  and  C_13
REMARK    4  A    between atoms: N_20  and  C_23
REMARK    5  A    between atoms: C_23  and  C_24
REMARK    6  A    between atoms: C_24  and  C_27
REMARK                            x       y       z     vdW  Elec       q    Type
REMARK                         _______ _______ _______ _____ _____    ______ ____
ROOT
ATOM      1  N   UNL     1     -42.766  26.507   2.239  0.00  0.00    -0.280 N 
ATOM      2  C   UNL     1     -40.740  26.164   3.018  0.00  0.00    +0.067 C 
ATOM      3  C   UNL     1     -42.786  26.857   3.564  0.00  0.00    +0.107 C 
ATOM      4  C   UNL     1     -41.523  26.651   4.074  0.00  0.00    +0.035 C 
ATOM      5  C   UNL     1     -41.510  26.079   1.896  0.00  0.00    +0.080 C 
ATOM      6  C   UNL     1     -43.887  26.575   1.327  0.00  0.00    +0.117 C 
ENDROOT
BRANCH   2   8
ATOM      7  O   UNL     1     -39.443  23.465   2.962  0.00  0.00    -0.273 OA
ATOM      8  N   UNL     1     -39.385  25.816   3.077  0.00  0.00    -0.281 N 
ATOM      9  C   UNL     1     -38.849  24.535   3.046  0.00  0.00    +0.249 C 
ATOM     10  H   UNL     1     -38.743  26.558   3.147  0.00  0.00    +0.155 HD
BRANCH   9  13
ATOM     11  N   UNL     1     -37.018  24.485   4.562  0.00  0.00    -0.253 NA
ATOM     12  N   UNL     1     -35.300  23.372   5.772  0.00  0.00    -0.346 N 
ATOM     13  C   UNL     1     -37.361  24.576   3.130  0.00  0.00    +0.181 C 
ATOM     14  C   UNL     1     -36.708  23.376   2.471  0.00  0.00    +0.041 C 
ATOM     15  C   UNL     1     -35.472  23.181   3.315  0.00  0.00    +0.063 C 
ATOM     16  C   UNL     1     -35.971  23.713   4.632  0.00  0.00    +0.097 C 
ATOM     17  H   UNL     1     -35.608  23.709   6.644  0.00  0.00    +0.143 HD
ATOM     18  H   UNL     1     -34.509  22.790   5.722  0.00  0.00    +0.143 HD
ENDBRANCH   9  13
ENDBRANCH   2   8
BRANCH   3  21
ATOM     19  O   UNL     1     -44.915  26.630   4.580  0.00  0.00    -0.269 OA
ATOM     20  N   UNL     1     -43.971  28.724   4.557  0.00  0.00    -0.299 N 
ATOM     21  C   UNL     1     -43.939  27.347   4.256  0.00  0.00    +0.260 C 
ATOM     22  H   UNL     1     -43.197  29.276   4.298  0.00  0.00    +0.150 HD
BRANCH  20  23
ATOM     23  C   UNL     1     -45.078  29.371   5.226  0.00  0.00    +0.097 C 
BRANCH  23  24
ATOM     24  C   UNL     1     -44.886  29.429   6.736  0.00  0.00    +0.081 C 
BRANCH  24  27
ATOM     25  N   UNL     1     -43.416  30.473   8.424  0.00  0.00    -0.346 N 
ATOM     26  N   UNL     1     -43.396  31.253   6.197  0.00  0.00    -0.289 NA
ATOM     27  C   UNL     1     -43.832  30.451   7.120  0.00  0.00    +0.095 C 
ATOM     28  H   UNL     1     -42.734  31.121   8.713  0.00  0.00    +0.143 HD
ATOM     29  H   UNL     1     -43.799  29.840   9.074  0.00  0.00    +0.143 HD
ATOM     30  H   UNL     1     -42.712  31.927   6.414  0.00  0.00    +0.188 HD
ENDBRANCH  24  27
ENDBRANCH  23  24
ENDBRANCH  20  23
ENDBRANCH   3  21
TORSDOF 6
ENDMDL
MODEL 9
REMARK VINA RESULT:      -5.9      5.701      6.040
REMARK  Name = 193835
REMARK  6 active torsions:
REMARK  status: ('A' for Active; 'I' for Inactive)
REMARK    1  A    between atoms: C_2  and  N_8
REMARK    2  A    between atoms: C_3  and  C_21
REMARK    3  A    between atoms: C_9  and  C_13
REMARK    4  A    between atoms: N_20  and  C_23
REMARK    5  A    between atoms: C_23  and  C_24
REMARK    6  A    between atoms: C_24  and  C_27
REMARK                            x       y       z     vdW  Elec       q    Type
REMARK                         _______ _______ _______ _____ _____    ______ ____
ROOT
ATOM      1  N   UNL     1     -40.035  25.304   1.512  0.00  0.00    -0.280 N 
ATOM      2  C   UNL     1     -41.190  26.222   3.141  0.00  0.00    +0.067 C 
ATOM      3  C   UNL     1     -39.436  24.926   2.686  0.00  0.00    +0.107 C 
ATOM      4  C   UNL     1     -40.146  25.491   3.722  0.00  0.00    +0.035 C 
ATOM      5  C   UNL     1     -41.115  26.102   1.784  0.00  0.00    +0.080 C 
ATOM      6  C   UNL     1     -39.608  24.925   0.183  0.00  0.00    +0.117 C 
ENDROOT
BRANCH   2   8
ATOM      7  O   UNL     1     -42.177  29.006   2.647  0.00  0.00    -0.273 OA
ATOM      8  N   UNL     1     -42.167  26.964   3.816  0.00  0.00    -0.281 N 
ATOM      9  C   UNL     1     -42.578  28.259   3.533  0.00  0.00    +0.249 C 
ATOM     10  H   UNL     1     -42.611  26.518   4.574  0.00  0.00    +0.155 HD
BRANCH   9  13
ATOM     11  N   UNL     1     -42.982  29.558   5.484  0.00  0.00    -0.253 NA
ATOM     12  N   UNL     1     -43.610  31.559   6.604  0.00  0.00    -0.346 N 
ATOM     13  C   UNL     1     -43.642  28.701   4.479  0.00  0.00    +0.181 C 
ATOM     14  C   UNL     1     -44.686  29.577   3.813  0.00  0.00    +0.041 C 
ATOM     15  C   UNL     1     -45.092  30.501   4.934  0.00  0.00    +0.063 C 
ATOM     16  C   UNL     1     -43.807  30.538   5.717  0.00  0.00    +0.097 C 
ATOM     17  H   UNL     1     -42.777  31.603   7.126  0.00  0.00    +0.143 HD
ATOM     18  H   UNL     1     -44.300  32.251   6.719  0.00  0.00    +0.143 HD
ENDBRANCH   9  13
ENDBRANCH   2   8
BRANCH   3  21
ATOM     19  O   UNL     1     -38.303  22.845   2.622  0.00  0.00    -0.269 OA
ATOM     20  N   UNL     1     -37.053  24.717   3.079  0.00  0.00    -0.299 N 
ATOM     21  C   UNL     1     -38.278  24.089   2.774  0.00  0.00    +0.260 C 
ATOM     22  H   UNL     1     -37.047  25.695   3.194  0.00  0.00    +0.150 HD
BRANCH  20  23
ATOM     23  C   UNL     1     -35.805  24.003   3.229  0.00  0.00    +0.097 C 
BRANCH  23  24
ATOM     24  C   UNL     1     -35.483  23.702   4.686  0.00  0.00    +0.081 C 
BRANCH  24  27
ATOM     25  N   UNL     1     -35.745  21.356   3.955  0.00  0.00    -0.346 N 
ATOM     26  N   UNL     1     -35.823  21.893   6.252  0.00  0.00    -0.289 NA
ATOM     27  C   UNL     1     -35.692  22.233   5.006  0.00  0.00    +0.095 C 
ATOM     28  H   UNL     1     -35.880  20.396   4.120  0.00  0.00    +0.143 HD
ATOM     29  H   UNL     1     -35.649  21.688   3.032  0.00  0.00    +0.143 HD
ATOM     30  H   UNL     1     -35.959  20.948   6.492  0.00  0.00    +0.188 HD
ENDBRANCH  24  27
ENDBRANCH  23  24
ENDBRANCH  20  23
ENDBRANCH   3  21
TORSDOF 6
ENDMDL
