MODEL 1
REMARK VINA RESULT:      -4.9      0.000      0.000
REMARK  Name = 516
REMARK  13 active torsions:
REMARK  status: ('A' for Active; 'I' for Inactive)
REMARK    1  A    between atoms: O_1  and  P_2
REMARK    2  A    between atoms: O_1  and  C_13
REMARK    3  A    between atoms: P_2  and  O_4
REMARK    4  A    between atoms: P_2  and  O_6
REMARK    5  A    between atoms: O_6  and  P_7
REMARK    6  A    between atoms: P_7  and  O_9
REMARK    7  A    between atoms: P_7  and  O_11
REMARK    8  A    between atoms: C_13  and  C_14
REMARK    9  A    between atoms: C_14  and  C_15
REMARK   10  A    between atoms: C_15  and  O_17
REMARK   11  A    between atoms: C_15  and  C_19
REMARK   12  A    between atoms: C_19  and  C_21
REMARK   13  A    between atoms: C_21  and  O_22
REMARK                            x       y       z     vdW  Elec       q    Type
REMARK                         _______ _______ _______ _____ _____    ______ ____
ROOT
ATOM      1  O   UNL     1     -38.359  22.389   0.336  0.00  0.00    -0.273 OA
ENDROOT
BRANCH   1   2
ATOM      2  P   UNL     1     -39.179  22.731   1.685  0.00  0.00    +0.484 P 
ATOM      3  O   UNL     1     -40.585  23.204   1.457  0.00  0.00    -0.227 OA
BRANCH   2   4
ATOM      4  O   UNL     1     -39.065  21.389   2.581  0.00  0.00    -0.302 OA
ATOM      5  H   UNL     1     -38.160  21.042   2.529  0.00  0.00    +0.222 HD
ENDBRANCH   2   4
BRANCH   2   6
ATOM      6  O   UNL     1     -38.245  23.786   2.477  0.00  0.00    -0.186 OA
BRANCH   6   7
ATOM      7  P   UNL     1     -38.615  25.153   3.256  0.00  0.00    +0.481 P 
ATOM      8  O   UNL     1     -38.592  26.387   2.402  0.00  0.00    -0.227 OA
BRANCH   7   9
ATOM      9  O   UNL     1     -40.036  24.817   3.946  0.00  0.00    -0.302 OA
ATOM     10  H   UNL     1     -40.110  25.297   4.785  0.00  0.00    +0.222 HD
ENDBRANCH   7   9
BRANCH   7  11
ATOM     11  O   UNL     1     -37.582  25.157   4.499  0.00  0.00    -0.302 OA
ATOM     12  H   UNL     1     -36.880  25.806   4.335  0.00  0.00    +0.222 HD
ENDBRANCH   7  11
ENDBRANCH   6   7
ENDBRANCH   2   6
ENDBRANCH   1   2
BRANCH   1  13
ATOM     13  C   UNL     1     -36.936  22.389   0.355  0.00  0.00    +0.156 C 
BRANCH  13  14
ATOM     14  C   UNL     1     -36.453  20.946   0.422  0.00  0.00    +0.060 C 
BRANCH  14  15
ATOM     15  C   UNL     1     -35.732  20.545   1.725  0.00  0.00    +0.101 C 
ATOM     16  C   UNL     1     -34.532  19.631   1.443  0.00  0.00    +0.030 C 
BRANCH  15  17
ATOM     17  O   UNL     1     -36.654  19.780   2.516  0.00  0.00    -0.386 OA
ATOM     18  H   UNL     1     -36.192  19.417   3.288  0.00  0.00    +0.210 HD
ENDBRANCH  15  17
BRANCH  15  19
ATOM     19  C   UNL     1     -35.270  21.739   2.576  0.00  0.00    +0.136 C 
BRANCH  19  21
ATOM     20  O   UNL     1     -35.030  20.895   4.831  0.00  0.00    -0.250 OA
ATOM     21  C   UNL     1     -35.623  21.617   4.042  0.00  0.00    +0.316 C 
BRANCH  21  22
ATOM     22  O   UNL     1     -36.674  22.400   4.394  0.00  0.00    -0.480 OA
ATOM     23  H   UNL     1     -37.195  22.176   5.141  0.00  0.00    +0.295 HD
ENDBRANCH  21  22
ENDBRANCH  19  21
ENDBRANCH  15  19
ENDBRANCH  14  15
ENDBRANCH  13  14
ENDBRANCH   1  13
TORSDOF 13
ENDMDL
MODEL 2
REMARK VINA RESULT:      -4.9      4.691      6.360
REMARK  Name = 516
REMARK  13 active torsions:
REMARK  status: ('A' for Active; 'I' for Inactive)
REMARK    1  A    between atoms: O_1  and  P_2
REMARK    2  A    between atoms: O_1  and  C_13
REMARK    3  A    between atoms: P_2  and  O_4
REMARK    4  A    between atoms: P_2  and  O_6
REMARK    5  A    between atoms: O_6  and  P_7
REMARK    6  A    between atoms: P_7  and  O_9
REMARK    7  A    between atoms: P_7  and  O_11
REMARK    8  A    between atoms: C_13  and  C_14
REMARK    9  A    between atoms: C_14  and  C_15
REMARK   10  A    between atoms: C_15  and  O_17
REMARK   11  A    between atoms: C_15  and  C_19
REMARK   12  A    between atoms: C_19  and  C_21
REMARK   13  A    between atoms: C_21  and  O_22
REMARK                            x       y       z     vdW  Elec       q    Type
REMARK                         _______ _______ _______ _____ _____    ______ ____
ROOT
ATOM      1  O   UNL     1     -34.791  27.035   5.010  0.00  0.00    -0.273 OA
ENDROOT
BRANCH   1   2
ATOM      2  P   UNL     1     -33.556  27.361   4.021  0.00  0.00    +0.484 P 
ATOM      3  O   UNL     1     -33.470  26.467   2.817  0.00  0.00    -0.227 OA
BRANCH   2   4
ATOM      4  O   UNL     1     -33.716  28.932   3.674  0.00  0.00    -0.302 OA
ATOM      5  H   UNL     1     -34.471  29.296   4.164  0.00  0.00    +0.222 HD
ENDBRANCH   2   4
BRANCH   2   6
ATOM      6  O   UNL     1     -32.249  27.321   4.971  0.00  0.00    -0.186 OA
BRANCH   6   7
ATOM      7  P   UNL     1     -31.898  28.130   6.325  0.00  0.00    +0.481 P 
ATOM      8  O   UNL     1     -32.181  29.602   6.267  0.00  0.00    -0.227 OA
BRANCH   7   9
ATOM      9  O   UNL     1     -32.702  27.315   7.466  0.00  0.00    -0.302 OA
ATOM     10  H   UNL     1     -33.168  26.567   7.062  0.00  0.00    +0.222 HD
ENDBRANCH   7   9
BRANCH   7  11
ATOM     11  O   UNL     1     -30.354  27.735   6.598  0.00  0.00    -0.302 OA
ATOM     12  H   UNL     1     -29.993  27.285   5.818  0.00  0.00    +0.222 HD
ENDBRANCH   7  11
ENDBRANCH   6   7
ENDBRANCH   2   6
ENDBRANCH   1   2
BRANCH   1  13
ATOM     13  C   UNL     1     -35.031  25.695   5.423  0.00  0.00    +0.156 C 
BRANCH  13  14
ATOM     14  C   UNL     1     -36.095  25.091   4.515  0.00  0.00    +0.060 C 
BRANCH  14  15
ATOM     15  C   UNL     1     -35.820  23.652   4.033  0.00  0.00    +0.101 C 
ATOM     16  C   UNL     1     -35.394  23.628   2.558  0.00  0.00    +0.030 C 
BRANCH  15  17
ATOM     17  O   UNL     1     -37.052  22.921   4.116  0.00  0.00    -0.386 OA
ATOM     18  H   UNL     1     -36.904  22.095   4.602  0.00  0.00    +0.210 HD
ENDBRANCH  15  17
BRANCH  15  19
ATOM     19  C   UNL     1     -34.776  22.900   4.874  0.00  0.00    +0.136 C 
BRANCH  19  21
ATOM     20  O   UNL     1     -36.027  22.169   6.812  0.00  0.00    -0.250 OA
ATOM     21  C   UNL     1     -35.372  21.881   5.819  0.00  0.00    +0.316 C 
BRANCH  21  22
ATOM     22  O   UNL     1     -35.106  20.603   5.448  0.00  0.00    -0.480 OA
ATOM     23  H   UNL     1     -35.803  20.041   5.170  0.00  0.00    +0.295 HD
ENDBRANCH  21  22
ENDBRANCH  19  21
ENDBRANCH  15  19
ENDBRANCH  14  15
ENDBRANCH  13  14
ENDBRANCH   1  13
TORSDOF 13
ENDMDL
MODEL 3
REMARK VINA RESULT:      -4.8      2.196      3.566
REMARK  Name = 516
REMARK  13 active torsions:
REMARK  status: ('A' for Active; 'I' for Inactive)
REMARK    1  A    between atoms: O_1  and  P_2
REMARK    2  A    between atoms: O_1  and  C_13
REMARK    3  A    between atoms: P_2  and  O_4
REMARK    4  A    between atoms: P_2  and  O_6
REMARK    5  A    between atoms: O_6  and  P_7
REMARK    6  A    between atoms: P_7  and  O_9
REMARK    7  A    between atoms: P_7  and  O_11
REMARK    8  A    between atoms: C_13  and  C_14
REMARK    9  A    between atoms: C_14  and  C_15
REMARK   10  A    between atoms: C_15  and  O_17
REMARK   11  A    between atoms: C_15  and  C_19
REMARK   12  A    between atoms: C_19  and  C_21
REMARK   13  A    between atoms: C_21  and  O_22
REMARK                            x       y       z     vdW  Elec       q    Type
REMARK                         _______ _______ _______ _____ _____    ______ ____
ROOT
ATOM      1  O   UNL     1     -36.633  24.028   2.019  0.00  0.00    -0.273 OA
ENDROOT
BRANCH   1   2
ATOM      2  P   UNL     1     -38.026  23.520   1.378  0.00  0.00    +0.484 P 
ATOM      3  O   UNL     1     -37.905  22.954  -0.008  0.00  0.00    -0.227 OA
BRANCH   2   4
ATOM      4  O   UNL     1     -38.623  22.486   2.469  0.00  0.00    -0.302 OA
ATOM      5  H   UNL     1     -38.358  22.769   3.360  0.00  0.00    +0.222 HD
ENDBRANCH   2   4
BRANCH   2   6
ATOM      6  O   UNL     1     -39.017  24.792   1.490  0.00  0.00    -0.186 OA
BRANCH   6   7
ATOM      7  P   UNL     1     -39.209  25.886   2.664  0.00  0.00    +0.481 P 
ATOM      8  O   UNL     1     -40.484  26.673   2.584  0.00  0.00    -0.227 OA
BRANCH   7   9
ATOM      9  O   UNL     1     -39.014  25.022   4.016  0.00  0.00    -0.302 OA
ATOM     10  H   UNL     1     -38.561  25.561   4.682  0.00  0.00    +0.222 HD
ENDBRANCH   7   9
BRANCH   7  11
ATOM     11  O   UNL     1     -37.853  26.760   2.575  0.00  0.00    -0.302 OA
ATOM     12  H   UNL     1     -37.513  26.739   1.667  0.00  0.00    +0.222 HD
ENDBRANCH   7  11
ENDBRANCH   6   7
ENDBRANCH   2   6
ENDBRANCH   1   2
BRANCH   1  13
ATOM     13  C   UNL     1     -35.652  23.078   2.420  0.00  0.00    +0.156 C 
BRANCH  13  14
ATOM     14  C   UNL     1     -34.771  23.714   3.489  0.00  0.00    +0.060 C 
BRANCH  14  15
ATOM     15  C   UNL     1     -35.357  23.724   4.915  0.00  0.00    +0.101 C 
ATOM     16  C   UNL     1     -34.961  22.460   5.691  0.00  0.00    +0.030 C 
BRANCH  15  17
ATOM     17  O   UNL     1     -36.787  23.704   4.800  0.00  0.00    -0.386 OA
ATOM     18  H   UNL     1     -37.033  23.508   3.882  0.00  0.00    +0.210 HD
ENDBRANCH  15  17
BRANCH  15  19
ATOM     19  C   UNL     1     -34.975  24.964   5.739  0.00  0.00    +0.136 C 
BRANCH  19  21
ATOM     20  O   UNL     1     -34.688  27.009   4.478  0.00  0.00    -0.250 OA
ATOM     21  C   UNL     1     -35.421  26.270   5.121  0.00  0.00    +0.316 C 
BRANCH  21  22
ATOM     22  O   UNL     1     -36.731  26.539   5.352  0.00  0.00    -0.480 OA
ATOM     23  H   UNL     1     -37.174  27.188   4.840  0.00  0.00    +0.295 HD
ENDBRANCH  21  22
ENDBRANCH  19  21
ENDBRANCH  15  19
ENDBRANCH  14  15
ENDBRANCH  13  14
ENDBRANCH   1  13
TORSDOF 13
ENDMDL
MODEL 4
REMARK VINA RESULT:      -4.7      6.719      8.567
REMARK  Name = 516
REMARK  13 active torsions:
REMARK  status: ('A' for Active; 'I' for Inactive)
REMARK    1  A    between atoms: O_1  and  P_2
REMARK    2  A    between atoms: O_1  and  C_13
REMARK    3  A    between atoms: P_2  and  O_4
REMARK    4  A    between atoms: P_2  and  O_6
REMARK    5  A    between atoms: O_6  and  P_7
REMARK    6  A    between atoms: P_7  and  O_9
REMARK    7  A    between atoms: P_7  and  O_11
REMARK    8  A    between atoms: C_13  and  C_14
REMARK    9  A    between atoms: C_14  and  C_15
REMARK   10  A    between atoms: C_15  and  O_17
REMARK   11  A    between atoms: C_15  and  C_19
REMARK   12  A    between atoms: C_19  and  C_21
REMARK   13  A    between atoms: C_21  and  O_22
REMARK                            x       y       z     vdW  Elec       q    Type
REMARK                         _______ _______ _______ _____ _____    ______ ____
ROOT
ATOM      1  O   UNL     1     -32.000  27.436   5.469  0.00  0.00    -0.273 OA
ENDROOT
BRANCH   1   2
ATOM      2  P   UNL     1     -31.721  28.924   6.033  0.00  0.00    +0.484 P 
ATOM      3  O   UNL     1     -32.582  29.992   5.423  0.00  0.00    -0.227 OA
BRANCH   2   4
ATOM      4  O   UNL     1     -31.867  28.785   7.637  0.00  0.00    -0.302 OA
ATOM      5  H   UNL     1     -32.777  29.001   7.899  0.00  0.00    +0.222 HD
ENDBRANCH   2   4
BRANCH   2   6
ATOM      6  O   UNL     1     -30.135  29.151   5.823  0.00  0.00    -0.186 OA
BRANCH   6   7
ATOM      7  P   UNL     1     -28.865  28.594   6.652  0.00  0.00    +0.481 P 
ATOM      8  O   UNL     1     -27.546  28.734   5.950  0.00  0.00    -0.227 OA
BRANCH   7   9
ATOM      9  O   UNL     1     -28.978  29.362   8.070  0.00  0.00    -0.302 OA
ATOM     10  H   UNL     1     -29.910  29.433   8.326  0.00  0.00    +0.222 HD
ENDBRANCH   7   9
BRANCH   7  11
ATOM     11  O   UNL     1     -29.298  27.078   7.009  0.00  0.00    -0.302 OA
ATOM     12  H   UNL     1     -30.171  26.893   6.629  0.00  0.00    +0.222 HD
ENDBRANCH   7  11
ENDBRANCH   6   7
ENDBRANCH   2   6
ENDBRANCH   1   2
BRANCH   1  13
ATOM     13  C   UNL     1     -33.230  27.147   4.814  0.00  0.00    +0.156 C 
BRANCH  13  14
ATOM     14  C   UNL     1     -34.044  26.214   5.702  0.00  0.00    +0.060 C 
BRANCH  14  15
ATOM     15  C   UNL     1     -35.051  25.306   4.967  0.00  0.00    +0.101 C 
ATOM     16  C   UNL     1     -35.287  25.783   3.527  0.00  0.00    +0.030 C 
BRANCH  15  17
ATOM     17  O   UNL     1     -36.310  25.410   5.646  0.00  0.00    -0.386 OA
ATOM     18  H   UNL     1     -36.514  26.345   5.806  0.00  0.00    +0.210 HD
ENDBRANCH  15  17
BRANCH  15  19
ATOM     19  C   UNL     1     -34.654  23.820   4.949  0.00  0.00    +0.136 C 
BRANCH  19  21
ATOM     20  O   UNL     1     -35.873  22.386   6.469  0.00  0.00    -0.250 OA
ATOM     21  C   UNL     1     -35.771  22.885   5.357  0.00  0.00    +0.316 C 
BRANCH  21  22
ATOM     22  O   UNL     1     -36.656  22.656   4.354  0.00  0.00    -0.480 OA
ATOM     23  H   UNL     1     -36.588  21.876   3.838  0.00  0.00    +0.295 HD
ENDBRANCH  21  22
ENDBRANCH  19  21
ENDBRANCH  15  19
ENDBRANCH  14  15
ENDBRANCH  13  14
ENDBRANCH   1  13
TORSDOF 13
ENDMDL
MODEL 5
REMARK VINA RESULT:      -4.6      2.910      4.749
REMARK  Name = 516
REMARK  13 active torsions:
REMARK  status: ('A' for Active; 'I' for Inactive)
REMARK    1  A    between atoms: O_1  and  P_2
REMARK    2  A    between atoms: O_1  and  C_13
REMARK    3  A    between atoms: P_2  and  O_4
REMARK    4  A    between atoms: P_2  and  O_6
REMARK    5  A    between atoms: O_6  and  P_7
REMARK    6  A    between atoms: P_7  and  O_9
REMARK    7  A    between atoms: P_7  and  O_11
REMARK    8  A    between atoms: C_13  and  C_14
REMARK    9  A    between atoms: C_14  and  C_15
REMARK   10  A    between atoms: C_15  and  O_17
REMARK   11  A    between atoms: C_15  and  C_19
REMARK   12  A    between atoms: C_19  and  C_21
REMARK   13  A    between atoms: C_21  and  O_22
REMARK                            x       y       z     vdW  Elec       q    Type
REMARK                         _______ _______ _______ _____ _____    ______ ____
ROOT
ATOM      1  O   UNL     1     -37.243  23.637   4.013  0.00  0.00    -0.273 OA
ENDROOT
BRANCH   1   2
ATOM      2  P   UNL     1     -37.904  23.328   2.572  0.00  0.00    +0.484 P 
ATOM      3  O   UNL     1     -37.052  23.718   1.399  0.00  0.00    -0.227 OA
BRANCH   2   4
ATOM      4  O   UNL     1     -38.285  21.758   2.627  0.00  0.00    -0.302 OA
ATOM      5  H   UNL     1     -37.991  21.383   3.473  0.00  0.00    +0.222 HD
ENDBRANCH   2   4
BRANCH   2   6
ATOM      6  O   UNL     1     -39.345  24.061   2.617  0.00  0.00    -0.186 OA
BRANCH   6   7
ATOM      7  P   UNL     1     -39.743  25.624   2.511  0.00  0.00    +0.481 P 
ATOM      8  O   UNL     1     -41.213  25.905   2.619  0.00  0.00    -0.227 OA
BRANCH   7   9
ATOM      9  O   UNL     1     -38.821  26.321   3.641  0.00  0.00    -0.302 OA
ATOM     10  H   UNL     1     -38.351  25.638   4.142  0.00  0.00    +0.222 HD
ENDBRANCH   7   9
BRANCH   7  11
ATOM     11  O   UNL     1     -39.053  26.085   1.124  0.00  0.00    -0.302 OA
ATOM     12  H   UNL     1     -39.033  25.335   0.508  0.00  0.00    +0.222 HD
ENDBRANCH   7  11
ENDBRANCH   6   7
ENDBRANCH   2   6
ENDBRANCH   1   2
BRANCH   1  13
ATOM     13  C   UNL     1     -35.854  23.402   4.217  0.00  0.00    +0.156 C 
BRANCH  13  14
ATOM     14  C   UNL     1     -35.397  24.217   5.421  0.00  0.00    +0.060 C 
BRANCH  14  15
ATOM     15  C   UNL     1     -35.100  25.705   5.143  0.00  0.00    +0.101 C 
ATOM     16  C   UNL     1     -34.042  26.254   6.111  0.00  0.00    +0.030 C 
BRANCH  15  17
ATOM     17  O   UNL     1     -36.305  26.443   5.389  0.00  0.00    -0.386 OA
ATOM     18  H   UNL     1     -37.041  25.825   5.520  0.00  0.00    +0.210 HD
ENDBRANCH  15  17
BRANCH  15  19
ATOM     19  C   UNL     1     -34.663  25.996   3.698  0.00  0.00    +0.136 C 
BRANCH  19  21
ATOM     20  O   UNL     1     -36.340  26.860   2.184  0.00  0.00    -0.250 OA
ATOM     21  C   UNL     1     -35.474  27.077   3.021  0.00  0.00    +0.316 C 
BRANCH  21  22
ATOM     22  O   UNL     1     -35.141  28.323   3.441  0.00  0.00    -0.480 OA
ATOM     23  H   UNL     1     -35.813  28.932   3.681  0.00  0.00    +0.295 HD
ENDBRANCH  21  22
ENDBRANCH  19  21
ENDBRANCH  15  19
ENDBRANCH  14  15
ENDBRANCH  13  14
ENDBRANCH   1  13
TORSDOF 13
ENDMDL
MODEL 6
REMARK VINA RESULT:      -4.6      4.114      5.755
REMARK  Name = 516
REMARK  13 active torsions:
REMARK  status: ('A' for Active; 'I' for Inactive)
REMARK    1  A    between atoms: O_1  and  P_2
REMARK    2  A    between atoms: O_1  and  C_13
REMARK    3  A    between atoms: P_2  and  O_4
REMARK    4  A    between atoms: P_2  and  O_6
REMARK    5  A    between atoms: O_6  and  P_7
REMARK    6  A    between atoms: P_7  and  O_9
REMARK    7  A    between atoms: P_7  and  O_11
REMARK    8  A    between atoms: C_13  and  C_14
REMARK    9  A    between atoms: C_14  and  C_15
REMARK   10  A    between atoms: C_15  and  O_17
REMARK   11  A    between atoms: C_15  and  C_19
REMARK   12  A    between atoms: C_19  and  C_21
REMARK   13  A    between atoms: C_21  and  O_22
REMARK                            x       y       z     vdW  Elec       q    Type
REMARK                         _______ _______ _______ _____ _____    ______ ____
ROOT
ATOM      1  O   UNL     1     -35.107  26.597   4.205  0.00  0.00    -0.273 OA
ENDROOT
BRANCH   1   2
ATOM      2  P   UNL     1     -33.557  26.843   4.586  0.00  0.00    +0.484 P 
ATOM      3  O   UNL     1     -33.203  26.504   6.005  0.00  0.00    -0.227 OA
BRANCH   2   4
ATOM      4  O   UNL     1     -32.728  26.010   3.475  0.00  0.00    -0.302 OA
ATOM      5  H   UNL     1     -32.099  25.418   3.919  0.00  0.00    +0.222 HD
ENDBRANCH   2   4
BRANCH   2   6
ATOM      6  O   UNL     1     -33.275  28.383   4.183  0.00  0.00    -0.186 OA
BRANCH   6   7
ATOM      7  P   UNL     1     -33.787  29.260   2.926  0.00  0.00    +0.481 P 
ATOM      8  O   UNL     1     -32.903  30.419   2.569  0.00  0.00    -0.227 OA
BRANCH   7   9
ATOM      9  O   UNL     1     -33.988  28.160   1.759  0.00  0.00    -0.302 OA
ATOM     10  H   UNL     1     -34.396  28.579   0.986  0.00  0.00    +0.222 HD
ENDBRANCH   7   9
BRANCH   7  11
ATOM     11  O   UNL     1     -35.299  29.649   3.343  0.00  0.00    -0.302 OA
ATOM     12  H   UNL     1     -35.759  28.859   3.667  0.00  0.00    +0.222 HD
ENDBRANCH   7  11
ENDBRANCH   6   7
ENDBRANCH   2   6
ENDBRANCH   1   2
BRANCH   1  13
ATOM     13  C   UNL     1     -35.944  25.858   5.088  0.00  0.00    +0.156 C 
BRANCH  13  14
ATOM     14  C   UNL     1     -36.743  24.851   4.270  0.00  0.00    +0.060 C 
BRANCH  14  15
ATOM     15  C   UNL     1     -36.008  23.539   3.928  0.00  0.00    +0.101 C 
ATOM     16  C   UNL     1     -35.311  23.628   2.563  0.00  0.00    +0.030 C 
BRANCH  15  17
ATOM     17  O   UNL     1     -36.995  22.503   3.819  0.00  0.00    -0.386 OA
ATOM     18  H   UNL     1     -37.646  22.602   4.531  0.00  0.00    +0.210 HD
ENDBRANCH  15  17
BRANCH  15  19
ATOM     19  C   UNL     1     -34.988  23.099   4.990  0.00  0.00    +0.136 C 
BRANCH  19  21
ATOM     20  O   UNL     1     -36.148  22.060   6.842  0.00  0.00    -0.250 OA
ATOM     21  C   UNL     1     -35.453  21.939   5.841  0.00  0.00    +0.316 C 
BRANCH  21  22
ATOM     22  O   UNL     1     -35.021  20.740   5.376  0.00  0.00    -0.480 OA
ATOM     23  H   UNL     1     -34.862  20.035   5.973  0.00  0.00    +0.295 HD
ENDBRANCH  21  22
ENDBRANCH  19  21
ENDBRANCH  15  19
ENDBRANCH  14  15
ENDBRANCH  13  14
ENDBRANCH   1  13
TORSDOF 13
ENDMDL
MODEL 7
REMARK VINA RESULT:      -4.5      2.116      3.281
REMARK  Name = 516
REMARK  13 active torsions:
REMARK  status: ('A' for Active; 'I' for Inactive)
REMARK    1  A    between atoms: O_1  and  P_2
REMARK    2  A    between atoms: O_1  and  C_13
REMARK    3  A    between atoms: P_2  and  O_4
REMARK    4  A    between atoms: P_2  and  O_6
REMARK    5  A    between atoms: O_6  and  P_7
REMARK    6  A    between atoms: P_7  and  O_9
REMARK    7  A    between atoms: P_7  and  O_11
REMARK    8  A    between atoms: C_13  and  C_14
REMARK    9  A    between atoms: C_14  and  C_15
REMARK   10  A    between atoms: C_15  and  O_17
REMARK   11  A    between atoms: C_15  and  C_19
REMARK   12  A    between atoms: C_19  and  C_21
REMARK   13  A    between atoms: C_21  and  O_22
REMARK                            x       y       z     vdW  Elec       q    Type
REMARK                         _______ _______ _______ _____ _____    ______ ____
ROOT
ATOM      1  O   UNL     1     -36.399  24.856   1.962  0.00  0.00    -0.273 OA
ENDROOT
BRANCH   1   2
ATOM      2  P   UNL     1     -37.213  25.826   2.965  0.00  0.00    +0.484 P 
ATOM      3  O   UNL     1     -38.302  26.626   2.311  0.00  0.00    -0.227 OA
BRANCH   2   4
ATOM      4  O   UNL     1     -37.722  24.851   4.151  0.00  0.00    -0.302 OA
ATOM      5  H   UNL     1     -37.557  23.927   3.902  0.00  0.00    +0.222 HD
ENDBRANCH   2   4
BRANCH   2   6
ATOM      6  O   UNL     1     -36.074  26.721   3.684  0.00  0.00    -0.186 OA
BRANCH   6   7
ATOM      7  P   UNL     1     -34.816  26.296   4.604  0.00  0.00    +0.481 P 
ATOM      8  O   UNL     1     -33.811  27.386   4.834  0.00  0.00    -0.227 OA
BRANCH   7   9
ATOM      9  O   UNL     1     -35.511  25.704   5.938  0.00  0.00    -0.302 OA
ATOM     10  H   UNL     1     -34.840  25.274   6.489  0.00  0.00    +0.222 HD
ENDBRANCH   7   9
BRANCH   7  11
ATOM     11  O   UNL     1     -34.246  24.979   3.860  0.00  0.00    -0.302 OA
ATOM     12  H   UNL     1     -33.544  24.581   4.398  0.00  0.00    +0.222 HD
ENDBRANCH   7  11
ENDBRANCH   6   7
ENDBRANCH   2   6
ENDBRANCH   1   2
BRANCH   1  13
ATOM     13  C   UNL     1     -37.091  23.837   1.248  0.00  0.00    +0.156 C 
BRANCH  13  14
ATOM     14  C   UNL     1     -36.232  22.579   1.245  0.00  0.00    +0.060 C 
BRANCH  14  15
ATOM     15  C   UNL     1     -36.375  21.672   2.483  0.00  0.00    +0.101 C 
ATOM     16  C   UNL     1     -36.630  20.212   2.081  0.00  0.00    +0.030 C 
BRANCH  15  17
ATOM     17  O   UNL     1     -37.533  22.106   3.211  0.00  0.00    -0.386 OA
ATOM     18  H   UNL     1     -37.358  22.975   3.605  0.00  0.00    +0.210 HD
ENDBRANCH  15  17
BRANCH  15  19
ATOM     19  C   UNL     1     -35.175  21.729   3.442  0.00  0.00    +0.136 C 
BRANCH  19  21
ATOM     20  O   UNL     1     -36.052  22.902   5.369  0.00  0.00    -0.250 OA
ATOM     21  C   UNL     1     -35.562  21.885   4.896  0.00  0.00    +0.316 C 
BRANCH  21  22
ATOM     22  O   UNL     1     -35.309  20.771   5.628  0.00  0.00    -0.480 OA
ATOM     23  H   UNL     1     -34.448  20.399   5.633  0.00  0.00    +0.295 HD
ENDBRANCH  21  22
ENDBRANCH  19  21
ENDBRANCH  15  19
ENDBRANCH  14  15
ENDBRANCH  13  14
ENDBRANCH   1  13
TORSDOF 13
ENDMDL
MODEL 8
REMARK VINA RESULT:      -4.5      3.285      5.538
REMARK  Name = 516
REMARK  13 active torsions:
REMARK  status: ('A' for Active; 'I' for Inactive)
REMARK    1  A    between atoms: O_1  and  P_2
REMARK    2  A    between atoms: O_1  and  C_13
REMARK    3  A    between atoms: P_2  and  O_4
REMARK    4  A    between atoms: P_2  and  O_6
REMARK    5  A    between atoms: O_6  and  P_7
REMARK    6  A    between atoms: P_7  and  O_9
REMARK    7  A    between atoms: P_7  and  O_11
REMARK    8  A    between atoms: C_13  and  C_14
REMARK    9  A    between atoms: C_14  and  C_15
REMARK   10  A    between atoms: C_15  and  O_17
REMARK   11  A    between atoms: C_15  and  C_19
REMARK   12  A    between atoms: C_19  and  C_21
REMARK   13  A    between atoms: C_21  and  O_22
REMARK                            x       y       z     vdW  Elec       q    Type
REMARK                         _______ _______ _______ _____ _____    ______ ____
ROOT
ATOM      1  O   UNL     1     -37.052  24.044   4.182  0.00  0.00    -0.273 OA
ENDROOT
BRANCH   1   2
ATOM      2  P   UNL     1     -35.778  23.313   4.852  0.00  0.00    +0.484 P 
ATOM      3  O   UNL     1     -36.091  22.530   6.095  0.00  0.00    -0.227 OA
BRANCH   2   4
ATOM      4  O   UNL     1     -35.137  22.434   3.656  0.00  0.00    -0.302 OA
ATOM      5  H   UNL     1     -35.120  21.498   3.915  0.00  0.00    +0.222 HD
ENDBRANCH   2   4
BRANCH   2   6
ATOM      6  O   UNL     1     -34.695  24.493   5.068  0.00  0.00    -0.186 OA
BRANCH   6   7
ATOM      7  P   UNL     1     -34.858  26.100   5.036  0.00  0.00    +0.481 P 
ATOM      8  O   UNL     1     -33.777  26.855   5.754  0.00  0.00    -0.227 OA
BRANCH   7   9
ATOM      9  O   UNL     1     -35.001  26.430   3.461  0.00  0.00    -0.302 OA
ATOM     10  H   UNL     1     -35.686  25.864   3.073  0.00  0.00    +0.222 HD
ENDBRANCH   7   9
BRANCH   7  11
ATOM     11  O   UNL     1     -36.353  26.328   5.607  0.00  0.00    -0.302 OA
ATOM     12  H   UNL     1     -36.304  26.690   6.506  0.00  0.00    +0.222 HD
ENDBRANCH   7  11
ENDBRANCH   6   7
ENDBRANCH   2   6
ENDBRANCH   1   2
BRANCH   1  13
ATOM     13  C   UNL     1     -37.567  23.570   2.942  0.00  0.00    +0.156 C 
BRANCH  13  14
ATOM     14  C   UNL     1     -37.307  24.626   1.875  0.00  0.00    +0.060 C 
BRANCH  14  15
ATOM     15  C   UNL     1     -38.255  25.842   1.897  0.00  0.00    +0.101 C 
ATOM     16  C   UNL     1     -38.002  26.770   0.701  0.00  0.00    +0.030 C 
BRANCH  15  17
ATOM     17  O   UNL     1     -37.960  26.603   3.077  0.00  0.00    -0.386 OA
ATOM     18  H   UNL     1     -38.761  26.682   3.618  0.00  0.00    +0.210 HD
ENDBRANCH  15  17
BRANCH  15  19
ATOM     19  C   UNL     1     -39.746  25.472   1.944  0.00  0.00    +0.136 C 
BRANCH  19  21
ATOM     20  O   UNL     1     -41.089  27.008   3.245  0.00  0.00    -0.250 OA
ATOM     21  C   UNL     1     -40.458  25.961   3.185  0.00  0.00    +0.316 C 
BRANCH  21  22
ATOM     22  O   UNL     1     -40.326  25.111   4.234  0.00  0.00    -0.480 OA
ATOM     23  H   UNL     1     -40.085  25.441   5.078  0.00  0.00    +0.295 HD
ENDBRANCH  21  22
ENDBRANCH  19  21
ENDBRANCH  15  19
ENDBRANCH  14  15
ENDBRANCH  13  14
ENDBRANCH   1  13
TORSDOF 13
ENDMDL
MODEL 9
REMARK VINA RESULT:      -4.5      2.325      4.539
REMARK  Name = 516
REMARK  13 active torsions:
REMARK  status: ('A' for Active; 'I' for Inactive)
REMARK    1  A    between atoms: O_1  and  P_2
REMARK    2  A    between atoms: O_1  and  C_13
REMARK    3  A    between atoms: P_2  and  O_4
REMARK    4  A    between atoms: P_2  and  O_6
REMARK    5  A    between atoms: O_6  and  P_7
REMARK    6  A    between atoms: P_7  and  O_9
REMARK    7  A    between atoms: P_7  and  O_11
REMARK    8  A    between atoms: C_13  and  C_14
REMARK    9  A    between atoms: C_14  and  C_15
REMARK   10  A    between atoms: C_15  and  O_17
REMARK   11  A    between atoms: C_15  and  C_19
REMARK   12  A    between atoms: C_19  and  C_21
REMARK   13  A    between atoms: C_21  and  O_22
REMARK                            x       y       z     vdW  Elec       q    Type
REMARK                         _______ _______ _______ _____ _____    ______ ____
ROOT
ATOM      1  O   UNL     1     -35.387  21.936   2.915  0.00  0.00    -0.273 OA
ENDROOT
BRANCH   1   2
ATOM      2  P   UNL     1     -36.598  21.317   2.045  0.00  0.00    +0.484 P 
ATOM      3  O   UNL     1     -36.402  21.398   0.558  0.00  0.00    -0.227 OA
BRANCH   2   4
ATOM      4  O   UNL     1     -36.779  19.813   2.611  0.00  0.00    -0.302 OA
ATOM      5  H   UNL     1     -37.442  19.814   3.322  0.00  0.00    +0.222 HD
ENDBRANCH   2   4
BRANCH   2   6
ATOM      6  O   UNL     1     -37.919  22.078   2.581  0.00  0.00    -0.186 OA
BRANCH   6   7
ATOM      7  P   UNL     1     -39.350  22.342   1.876  0.00  0.00    +0.481 P 
ATOM      8  O   UNL     1     -40.290  21.174   1.909  0.00  0.00    -0.227 OA
BRANCH   7   9
ATOM      9  O   UNL     1     -39.884  23.681   2.607  0.00  0.00    -0.302 OA
ATOM     10  H   UNL     1     -40.064  23.490   3.540  0.00  0.00    +0.222 HD
ENDBRANCH   7   9
BRANCH   7  11
ATOM     11  O   UNL     1     -38.940  22.856   0.399  0.00  0.00    -0.302 OA
ATOM     12  H   UNL     1     -39.714  22.812  -0.184  0.00  0.00    +0.222 HD
ENDBRANCH   7  11
ENDBRANCH   6   7
ENDBRANCH   2   6
ENDBRANCH   1   2
BRANCH   1  13
ATOM     13  C   UNL     1     -35.624  22.364   4.252  0.00  0.00    +0.156 C 
BRANCH  13  14
ATOM     14  C   UNL     1     -35.044  23.763   4.422  0.00  0.00    +0.060 C 
BRANCH  14  15
ATOM     15  C   UNL     1     -36.061  24.920   4.342  0.00  0.00    +0.101 C 
ATOM     16  C   UNL     1     -35.984  25.819   5.584  0.00  0.00    +0.030 C 
BRANCH  15  17
ATOM     17  O   UNL     1     -37.375  24.345   4.331  0.00  0.00    -0.386 OA
ATOM     18  H   UNL     1     -37.389  23.583   3.730  0.00  0.00    +0.210 HD
ENDBRANCH  15  17
BRANCH  15  19
ATOM     19  C   UNL     1     -35.923  25.787   3.080  0.00  0.00    +0.136 C 
BRANCH  19  21
ATOM     20  O   UNL     1     -37.972  25.953   1.804  0.00  0.00    -0.250 OA
ATOM     21  C   UNL     1     -36.886  25.415   1.975  0.00  0.00    +0.316 C 
BRANCH  21  22
ATOM     22  O   UNL     1     -36.418  24.416   1.186  0.00  0.00    -0.480 OA
ATOM     23  H   UNL     1     -35.510  24.386   0.956  0.00  0.00    +0.295 HD
ENDBRANCH  21  22
ENDBRANCH  19  21
ENDBRANCH  15  19
ENDBRANCH  14  15
ENDBRANCH  13  14
ENDBRANCH   1  13
TORSDOF 13
ENDMDL
