MODEL 1
REMARK VINA RESULT:      -5.6      0.000      0.000
REMARK  Name = 54750828
REMARK  4 active torsions:
REMARK  status: ('A' for Active; 'I' for Inactive)
REMARK    1  A    between atoms: C_2  and  C_14
REMARK    2  A    between atoms: C_3  and  O_11
REMARK    3  A    between atoms: C_4  and  C_10
REMARK    4  A    between atoms: C_14  and  O_15
REMARK                            x       y       z     vdW  Elec       q    Type
REMARK                         _______ _______ _______ _____ _____    ______ ____
ROOT
ATOM      1  O   UNL     1     -37.791  23.691   3.779  0.00  0.00    -0.283 OA
ATOM      2  C   UNL     1     -36.571  25.667   3.682  0.00  0.00    +0.118 C 
ATOM      3  C   UNL     1     -35.907  23.843   5.121  0.00  0.00    +0.178 C 
ATOM      4  C   UNL     1     -34.598  25.872   5.060  0.00  0.00    +0.083 C 
ATOM      5  C   UNL     1     -36.787  24.382   4.183  0.00  0.00    +0.235 C 
ATOM      6  C   UNL     1     -35.477  26.412   4.121  0.00  0.00    +0.016 C 
ATOM      7  C   UNL     1     -34.812  24.588   5.561  0.00  0.00    +0.047 C 
ENDROOT
BRANCH   4  10
ATOM      8  O   UNL     1     -32.612  27.112   4.652  0.00  0.00    -0.241 OA
ATOM      9  O   UNL     1     -33.303  26.868   6.788  0.00  0.00    -0.241 OA
ATOM     10  C   UNL     1     -33.443  26.659   5.524  0.00  0.00    +0.388 C 
ENDBRANCH   4  10
BRANCH   3  11
ATOM     11  O   UNL     1     -36.076  22.590   5.639  0.00  0.00    -0.468 OA
ATOM     12  C   UNL     1     -34.894  21.878   5.998  0.00  0.00    +0.253 C 
ENDBRANCH   3  11
BRANCH   2  14
ATOM     13  O   UNL     1     -37.113  26.632   1.561  0.00  0.00    -0.245 OA
ATOM     14  C   UNL     1     -37.451  26.293   2.695  0.00  0.00    +0.341 C 
BRANCH  14  15
ATOM     15  O   UNL     1     -38.711  26.467   3.169  0.00  0.00    -0.477 OA
ATOM     16  H   UNL     1     -39.001  25.985   3.918  0.00  0.00    +0.295 HD
ENDBRANCH  14  15
ENDBRANCH   2  14
TORSDOF 4
ENDMDL
MODEL 2
REMARK VINA RESULT:      -5.5      0.850      3.738
REMARK  Name = 54750828
REMARK  4 active torsions:
REMARK  status: ('A' for Active; 'I' for Inactive)
REMARK    1  A    between atoms: C_2  and  C_14
REMARK    2  A    between atoms: C_3  and  O_11
REMARK    3  A    between atoms: C_4  and  C_10
REMARK    4  A    between atoms: C_14  and  O_15
REMARK                            x       y       z     vdW  Elec       q    Type
REMARK                         _______ _______ _______ _____ _____    ______ ____
ROOT
ATOM      1  O   UNL     1     -37.437  23.248   3.740  0.00  0.00    -0.283 OA
ATOM      2  C   UNL     1     -35.567  23.615   5.069  0.00  0.00    +0.118 C 
ATOM      3  C   UNL     1     -36.537  25.383   3.741  0.00  0.00    +0.178 C 
ATOM      4  C   UNL     1     -34.593  25.825   5.105  0.00  0.00    +0.083 C 
ATOM      5  C   UNL     1     -36.538  24.057   4.171  0.00  0.00    +0.235 C 
ATOM      6  C   UNL     1     -34.594  24.499   5.537  0.00  0.00    +0.016 C 
ATOM      7  C   UNL     1     -35.564  26.268   4.207  0.00  0.00    +0.047 C 
ENDROOT
BRANCH   4  10
ATOM      8  O   UNL     1     -33.236  27.761   4.861  0.00  0.00    -0.241 OA
ATOM      9  O   UNL     1     -33.033  26.541   6.750  0.00  0.00    -0.241 OA
ATOM     10  C   UNL     1     -33.566  26.759   5.598  0.00  0.00    +0.388 C 
ENDBRANCH   4  10
BRANCH   3  11
ATOM     11  O   UNL     1     -37.467  25.864   2.862  0.00  0.00    -0.468 OA
ATOM     12  C   UNL     1     -37.007  26.786   1.877  0.00  0.00    +0.253 C 
ENDBRANCH   3  11
BRANCH   2  14
ATOM     13  O   UNL     1     -35.424  21.918   6.750  0.00  0.00    -0.245 OA
ATOM     14  C   UNL     1     -35.509  22.240   5.565  0.00  0.00    +0.341 C 
BRANCH  14  15
ATOM     15  O   UNL     1     -35.563  21.330   4.559  0.00  0.00    -0.477 OA
ATOM     16  H   UNL     1     -35.059  20.541   4.613  0.00  0.00    +0.295 HD
ENDBRANCH  14  15
ENDBRANCH   2  14
TORSDOF 4
ENDMDL
MODEL 3
REMARK VINA RESULT:      -5.4      2.182      4.068
REMARK  Name = 54750828
REMARK  4 active torsions:
REMARK  status: ('A' for Active; 'I' for Inactive)
REMARK    1  A    between atoms: C_2  and  C_14
REMARK    2  A    between atoms: C_3  and  O_11
REMARK    3  A    between atoms: C_4  and  C_10
REMARK    4  A    between atoms: C_14  and  O_15
REMARK                            x       y       z     vdW  Elec       q    Type
REMARK                         _______ _______ _______ _____ _____    ______ ____
ROOT
ATOM      1  O   UNL     1     -35.720  21.778   2.972  0.00  0.00    -0.283 OA
ATOM      2  C   UNL     1     -35.169  22.996   4.874  0.00  0.00    +0.118 C 
ATOM      3  C   UNL     1     -34.965  23.947   2.663  0.00  0.00    +0.178 C 
ATOM      4  C   UNL     1     -34.380  25.263   4.603  0.00  0.00    +0.083 C 
ATOM      5  C   UNL     1     -35.296  22.874   3.490  0.00  0.00    +0.235 C 
ATOM      6  C   UNL     1     -34.711  24.190   5.431  0.00  0.00    +0.016 C 
ATOM      7  C   UNL     1     -34.507  25.142   3.219  0.00  0.00    +0.047 C 
ENDROOT
BRANCH   4  10
ATOM      8  O   UNL     1     -33.658  26.566   6.455  0.00  0.00    -0.241 OA
ATOM      9  O   UNL     1     -33.726  27.541   4.420  0.00  0.00    -0.241 OA
ATOM     10  C   UNL     1     -33.896  26.523   5.191  0.00  0.00    +0.388 C 
ENDBRANCH   4  10
BRANCH   3  11
ATOM     11  O   UNL     1     -35.073  23.877   1.303  0.00  0.00    -0.468 OA
ATOM     12  C   UNL     1     -36.203  24.516   0.713  0.00  0.00    +0.253 C 
ENDBRANCH   3  11
BRANCH   2  14
ATOM     13  O   UNL     1     -36.147  22.045   6.839  0.00  0.00    -0.245 OA
ATOM     14  C   UNL     1     -35.500  21.913   5.801  0.00  0.00    +0.341 C 
BRANCH  14  15
ATOM     15  O   UNL     1     -35.010  20.717   5.387  0.00  0.00    -0.477 OA
ATOM     16  H   UNL     1     -35.124  20.445   4.497  0.00  0.00    +0.295 HD
ENDBRANCH  14  15
ENDBRANCH   2  14
TORSDOF 4
ENDMDL
MODEL 4
REMARK VINA RESULT:      -5.2      1.067      4.646
REMARK  Name = 54750828
REMARK  4 active torsions:
REMARK  status: ('A' for Active; 'I' for Inactive)
REMARK    1  A    between atoms: C_2  and  C_14
REMARK    2  A    between atoms: C_3  and  O_11
REMARK    3  A    between atoms: C_4  and  C_10
REMARK    4  A    between atoms: C_14  and  O_15
REMARK                            x       y       z     vdW  Elec       q    Type
REMARK                         _______ _______ _______ _____ _____    ______ ____
ROOT
ATOM      1  O   UNL     1     -35.151  27.541   3.761  0.00  0.00    -0.283 OA
ATOM      2  C   UNL     1     -34.375  25.822   5.119  0.00  0.00    +0.118 C 
ATOM      3  C   UNL     1     -36.223  25.492   3.599  0.00  0.00    +0.178 C 
ATOM      4  C   UNL     1     -35.459  23.667   4.984  0.00  0.00    +0.083 C 
ATOM      5  C   UNL     1     -35.246  26.321   4.150  0.00  0.00    +0.235 C 
ATOM      6  C   UNL     1     -34.481  24.495   5.536  0.00  0.00    +0.016 C 
ATOM      7  C   UNL     1     -36.330  24.165   4.015  0.00  0.00    +0.047 C 
ENDROOT
BRANCH   4  10
ATOM      8  O   UNL     1     -35.246  21.330   4.603  0.00  0.00    -0.241 OA
ATOM      9  O   UNL     1     -35.992  22.024   6.618  0.00  0.00    -0.241 OA
ATOM     10  C   UNL     1     -35.571  22.267   5.424  0.00  0.00    +0.388 C 
ENDBRANCH   4  10
BRANCH   3  11
ATOM     11  O   UNL     1     -37.099  25.935   2.647  0.00  0.00    -0.468 OA
ATOM     12  C   UNL     1     -38.487  25.845   2.958  0.00  0.00    +0.253 C 
ENDBRANCH   3  11
BRANCH   2  14
ATOM     13  O   UNL     1     -33.187  26.804   6.949  0.00  0.00    -0.245 OA
ATOM     14  C   UNL     1     -33.326  26.632   5.738  0.00  0.00    +0.341 C 
BRANCH  14  15
ATOM     15  O   UNL     1     -32.498  27.189   4.817  0.00  0.00    -0.477 OA
ATOM     16  H   UNL     1     -32.852  27.707   4.121  0.00  0.00    +0.295 HD
ENDBRANCH  14  15
ENDBRANCH   2  14
TORSDOF 4
ENDMDL
MODEL 5
REMARK VINA RESULT:      -5.0      2.130      4.365
REMARK  Name = 54750828
REMARK  4 active torsions:
REMARK  status: ('A' for Active; 'I' for Inactive)
REMARK    1  A    between atoms: C_2  and  C_14
REMARK    2  A    between atoms: C_3  and  O_11
REMARK    3  A    between atoms: C_4  and  C_10
REMARK    4  A    between atoms: C_14  and  O_15
REMARK                            x       y       z     vdW  Elec       q    Type
REMARK                         _______ _______ _______ _____ _____    ______ ____
ROOT
ATOM      1  O   UNL     1     -37.742  26.152   3.037  0.00  0.00    -0.283 OA
ATOM      2  C   UNL     1     -36.184  24.948   4.272  0.00  0.00    +0.118 C 
ATOM      3  C   UNL     1     -37.605  23.872   2.641  0.00  0.00    +0.178 C 
ATOM      4  C   UNL     1     -36.002  22.569   3.892  0.00  0.00    +0.083 C 
ATOM      5  C   UNL     1     -37.193  25.024   3.311  0.00  0.00    +0.235 C 
ATOM      6  C   UNL     1     -35.589  23.720   4.563  0.00  0.00    +0.016 C 
ATOM      7  C   UNL     1     -37.010  22.644   2.932  0.00  0.00    +0.047 C 
ENDROOT
BRANCH   4  10
ATOM      8  O   UNL     1     -35.197  20.428   3.245  0.00  0.00    -0.241 OA
ATOM      9  O   UNL     1     -35.023  21.027   5.415  0.00  0.00    -0.241 OA
ATOM     10  C   UNL     1     -35.374  21.273   4.200  0.00  0.00    +0.388 C 
ENDBRANCH   4  10
BRANCH   3  11
ATOM     11  O   UNL     1     -38.588  23.896   1.692  0.00  0.00    -0.468 OA
ATOM     12  C   UNL     1     -39.874  23.424   2.085  0.00  0.00    +0.253 C 
ENDBRANCH   3  11
BRANCH   2  14
ATOM     13  O   UNL     1     -34.537  26.515   5.016  0.00  0.00    -0.245 OA
ATOM     14  C   UNL     1     -35.701  26.114   5.011  0.00  0.00    +0.341 C 
BRANCH  14  15
ATOM     15  O   UNL     1     -36.691  26.726   5.709  0.00  0.00    -0.477 OA
ATOM     16  H   UNL     1     -37.536  26.324   5.774  0.00  0.00    +0.295 HD
ENDBRANCH  14  15
ENDBRANCH   2  14
TORSDOF 4
ENDMDL
MODEL 6
REMARK VINA RESULT:      -5.0      2.508      4.254
REMARK  Name = 54750828
REMARK  4 active torsions:
REMARK  status: ('A' for Active; 'I' for Inactive)
REMARK    1  A    between atoms: C_2  and  C_14
REMARK    2  A    between atoms: C_3  and  O_11
REMARK    3  A    between atoms: C_4  and  C_10
REMARK    4  A    between atoms: C_14  and  O_15
REMARK                            x       y       z     vdW  Elec       q    Type
REMARK                         _______ _______ _______ _____ _____    ______ ____
ROOT
ATOM      1  O   UNL     1     -38.415  21.893   2.088  0.00  0.00    -0.283 OA
ATOM      2  C   UNL     1     -36.282  22.087   2.990  0.00  0.00    +0.118 C 
ATOM      3  C   UNL     1     -37.896  23.874   3.173  0.00  0.00    +0.178 C 
ATOM      4  C   UNL     1     -35.694  24.132   4.133  0.00  0.00    +0.083 C 
ATOM      5  C   UNL     1     -37.554  22.597   2.730  0.00  0.00    +0.235 C 
ATOM      6  C   UNL     1     -35.351  22.854   3.691  0.00  0.00    +0.016 C 
ATOM      7  C   UNL     1     -36.966  24.643   3.874  0.00  0.00    +0.047 C 
ENDROOT
BRANCH   4  10
ATOM      8  O   UNL     1     -35.134  25.745   5.787  0.00  0.00    -0.241 OA
ATOM      9  O   UNL     1     -33.464  24.823   4.580  0.00  0.00    -0.241 OA
ATOM     10  C   UNL     1     -34.712  24.943   4.872  0.00  0.00    +0.388 C 
ENDBRANCH   4  10
BRANCH   3  11
ATOM     11  O   UNL     1     -39.129  24.417   2.944  0.00  0.00    -0.468 OA
ATOM     12  C   UNL     1     -39.191  25.834   2.794  0.00  0.00    +0.253 C 
ENDBRANCH   3  11
BRANCH   2  14
ATOM     13  O   UNL     1     -34.762  20.490   2.059  0.00  0.00    -0.245 OA
ATOM     14  C   UNL     1     -35.856  20.756   2.558  0.00  0.00    +0.341 C 
BRANCH  14  15
ATOM     15  O   UNL     1     -36.814  19.817   2.770  0.00  0.00    -0.477 OA
ATOM     16  H   UNL     1     -37.278  19.797   3.585  0.00  0.00    +0.295 HD
ENDBRANCH  14  15
ENDBRANCH   2  14
TORSDOF 4
ENDMDL
MODEL 7
REMARK VINA RESULT:      -5.0      1.211      3.597
REMARK  Name = 54750828
REMARK  4 active torsions:
REMARK  status: ('A' for Active; 'I' for Inactive)
REMARK    1  A    between atoms: C_2  and  C_14
REMARK    2  A    between atoms: C_3  and  O_11
REMARK    3  A    between atoms: C_4  and  C_10
REMARK    4  A    between atoms: C_14  and  O_15
REMARK                            x       y       z     vdW  Elec       q    Type
REMARK                         _______ _______ _______ _____ _____    ______ ____
ROOT
ATOM      1  O   UNL     1     -35.267  27.677   3.536  0.00  0.00    -0.283 OA
ATOM      2  C   UNL     1     -36.172  25.540   3.657  0.00  0.00    +0.118 C 
ATOM      3  C   UNL     1     -34.335  26.213   5.072  0.00  0.00    +0.178 C 
ATOM      4  C   UNL     1     -35.236  23.979   5.245  0.00  0.00    +0.083 C 
ATOM      5  C   UNL     1     -35.259  26.509   4.071  0.00  0.00    +0.235 C 
ATOM      6  C   UNL     1     -36.161  24.274   4.244  0.00  0.00    +0.016 C 
ATOM      7  C   UNL     1     -34.322  24.948   5.660  0.00  0.00    +0.047 C 
ENDROOT
BRANCH   4  10
ATOM      8  O   UNL     1     -36.253  22.262   6.536  0.00  0.00    -0.241 OA
ATOM      9  O   UNL     1     -34.181  21.900   5.714  0.00  0.00    -0.241 OA
ATOM     10  C   UNL     1     -35.223  22.643   5.864  0.00  0.00    +0.388 C 
ENDBRANCH   4  10
BRANCH   3  11
ATOM     11  O   UNL     1     -33.421  27.130   5.512  0.00  0.00    -0.468 OA
ATOM     12  C   UNL     1     -32.920  26.955   6.835  0.00  0.00    +0.253 C 
ENDBRANCH   3  11
BRANCH   2  14
ATOM     13  O   UNL     1     -37.180  25.245   1.507  0.00  0.00    -0.245 OA
ATOM     14  C   UNL     1     -37.170  25.781   2.615  0.00  0.00    +0.341 C 
BRANCH  14  15
ATOM     15  O   UNL     1     -38.111  26.679   3.004  0.00  0.00    -0.477 OA
ATOM     16  H   UNL     1     -38.877  26.812   2.481  0.00  0.00    +0.295 HD
ENDBRANCH  14  15
ENDBRANCH   2  14
TORSDOF 4
ENDMDL
MODEL 8
REMARK VINA RESULT:      -5.0      2.205      4.339
REMARK  Name = 54750828
REMARK  4 active torsions:
REMARK  status: ('A' for Active; 'I' for Inactive)
REMARK    1  A    between atoms: C_2  and  C_14
REMARK    2  A    between atoms: C_3  and  O_11
REMARK    3  A    between atoms: C_4  and  C_10
REMARK    4  A    between atoms: C_14  and  O_15
REMARK                            x       y       z     vdW  Elec       q    Type
REMARK                         _______ _______ _______ _____ _____    ______ ____
ROOT
ATOM      1  O   UNL     1     -34.823  25.946   1.876  0.00  0.00    -0.283 OA
ATOM      2  C   UNL     1     -34.884  25.255   4.094  0.00  0.00    +0.118 C 
ATOM      3  C   UNL     1     -35.200  23.695   2.278  0.00  0.00    +0.178 C 
ATOM      4  C   UNL     1     -35.271  22.917   4.563  0.00  0.00    +0.083 C 
ATOM      5  C   UNL     1     -34.966  24.994   2.727  0.00  0.00    +0.235 C 
ATOM      6  C   UNL     1     -35.037  24.216   5.013  0.00  0.00    +0.016 C 
ATOM      7  C   UNL     1     -35.354  22.655   3.196  0.00  0.00    +0.047 C 
ENDROOT
BRANCH   4  10
ATOM      8  O   UNL     1     -35.951  22.082   6.683  0.00  0.00    -0.241 OA
ATOM      9  O   UNL     1     -35.052  20.636   5.199  0.00  0.00    -0.241 OA
ATOM     10  C   UNL     1     -35.433  21.821   5.533  0.00  0.00    +0.388 C 
ENDBRANCH   4  10
BRANCH   3  11
ATOM     11  O   UNL     1     -35.289  23.389   0.949  0.00  0.00    -0.468 OA
ATOM     12  C   UNL     1     -36.599  23.254   0.404  0.00  0.00    +0.253 C 
ENDBRANCH   3  11
BRANCH   2  14
ATOM     13  O   UNL     1     -33.777  26.868   5.471  0.00  0.00    -0.245 OA
ATOM     14  C   UNL     1     -34.638  26.591   4.636  0.00  0.00    +0.341 C 
BRANCH  14  15
ATOM     15  O   UNL     1     -35.476  27.520   4.108  0.00  0.00    -0.477 OA
ATOM     16  H   UNL     1     -35.617  28.332   4.555  0.00  0.00    +0.295 HD
ENDBRANCH  14  15
ENDBRANCH   2  14
TORSDOF 4
ENDMDL
MODEL 9
REMARK VINA RESULT:      -4.8     13.982     16.236
REMARK  Name = 54750828
REMARK  4 active torsions:
REMARK  status: ('A' for Active; 'I' for Inactive)
REMARK    1  A    between atoms: C_2  and  C_14
REMARK    2  A    between atoms: C_3  and  O_11
REMARK    3  A    between atoms: C_4  and  C_10
REMARK    4  A    between atoms: C_14  and  O_15
REMARK                            x       y       z     vdW  Elec       q    Type
REMARK                         _______ _______ _______ _____ _____    ______ ____
ROOT
ATOM      1  O   UNL     1     -30.284  39.135   6.746  0.00  0.00    -0.283 OA
ATOM      2  C   UNL     1     -31.617  40.917   6.076  0.00  0.00    +0.118 C 
ATOM      3  C   UNL     1     -30.986  39.166   4.537  0.00  0.00    +0.178 C 
ATOM      4  C   UNL     1     -32.377  40.992   3.785  0.00  0.00    +0.083 C 
ATOM      5  C   UNL     1     -30.943  39.724   5.814  0.00  0.00    +0.235 C 
ATOM      6  C   UNL     1     -32.334  41.551   5.062  0.00  0.00    +0.016 C 
ATOM      7  C   UNL     1     -31.703  39.800   3.521  0.00  0.00    +0.047 C 
ENDROOT
BRANCH   4  10
ATOM      8  O   UNL     1     -32.579  42.637   2.081  0.00  0.00    -0.241 OA
ATOM      9  O   UNL     1     -34.323  41.249   2.443  0.00  0.00    -0.241 OA
ATOM     10  C   UNL     1     -33.133  41.661   2.713  0.00  0.00    +0.388 C 
ENDBRANCH   4  10
BRANCH   3  11
ATOM     11  O   UNL     1     -30.342  38.000   4.231  0.00  0.00    -0.468 OA
ATOM     12  C   UNL     1     -30.782  37.308   3.065  0.00  0.00    +0.253 C 
ENDBRANCH   3  11
BRANCH   2  14
ATOM     13  O   UNL     1     -31.033  42.604   7.669  0.00  0.00    -0.245 OA
ATOM     14  C   UNL     1     -31.618  41.557   7.392  0.00  0.00    +0.341 C 
BRANCH  14  15
ATOM     15  O   UNL     1     -32.349  40.862   8.300  0.00  0.00    -0.477 OA
ATOM     16  H   UNL     1     -32.180  40.965   9.216  0.00  0.00    +0.295 HD
ENDBRANCH  14  15
ENDBRANCH   2  14
TORSDOF 4
ENDMDL
