MODEL 1
REMARK VINA RESULT:      -6.3      0.000      0.000
REMARK  Name = 54101611
REMARK  3 active torsions:
REMARK  status: ('A' for Active; 'I' for Inactive)
REMARK    1  A    between atoms: N_1  and  C_12
REMARK    2  A    between atoms: C_13  and  O_17
REMARK    3  A    between atoms: C_14  and  O_19
REMARK                            x       y       z     vdW  Elec       q    Type
REMARK                         _______ _______ _______ _____ _____    ______ ____
ROOT
ATOM      1  N   UNL     1     -36.830  22.114   2.587  0.00  0.00    -0.236 N 
ATOM      2  N   UNL     1     -37.504  24.239   2.595  0.00  0.00    -0.242 NA
ATOM      3  N   UNL     1     -35.550  22.075   4.653  0.00  0.00    -0.228 NA
ATOM      4  N   UNL     1     -35.573  24.255   5.749  0.00  0.00    -0.229 NA
ATOM      5  C   UNL     1     -36.312  22.671   3.722  0.00  0.00    +0.153 C 
ATOM      6  C   UNL     1     -37.538  23.095   1.945  0.00  0.00    +0.224 C 
ATOM      7  C   UNL     1     -36.741  23.989   3.708  0.00  0.00    +0.140 C 
ATOM      8  C   UNL     1     -36.344  24.791   4.773  0.00  0.00    +0.143 C 
ATOM      9  C   UNL     1     -35.229  22.949   5.630  0.00  0.00    +0.253 C 
ATOM     10  N   UNL     1     -36.734  26.139   4.840  0.00  0.00    -0.342 N 
ATOM     11  H   UNL     1     -36.446  26.697   5.599  0.00  0.00    +0.144 HD
ATOM     12  H   UNL     1     -37.294  26.526   4.130  0.00  0.00    +0.144 HD
ENDROOT
BRANCH   1  15
ATOM     13  F   UNL     1     -32.832  19.384   1.109  0.00  0.00    -0.199 F 
ATOM     14  O   UNL     1     -35.262  20.349   2.015  0.00  0.00    -0.457 OA
ATOM     15  C   UNL     1     -36.661  20.688   2.120  0.00  0.00    +0.276 C 
ATOM     16  C   UNL     1     -37.248  20.443   0.730  0.00  0.00    +0.205 C 
ATOM     17  C   UNL     1     -36.475  19.225   0.268  0.00  0.00    +0.202 C 
ATOM     18  C   UNL     1     -35.158  19.506   0.914  0.00  0.00    +0.177 C 
ATOM     19  C   UNL     1     -33.972  19.086   0.466  0.00  0.00    +0.202 C 
BRANCH  16  20
ATOM     20  O   UNL     1     -38.646  20.225   0.769  0.00  0.00    -0.377 OA
ATOM     21  H   UNL     1     -38.938  20.167   1.692  0.00  0.00    +0.211 HD
ENDBRANCH  16  20
BRANCH  17  22
ATOM     22  O   UNL     1     -37.029  18.038   0.821  0.00  0.00    -0.375 OA
ATOM     23  H   UNL     1     -36.967  17.320   0.173  0.00  0.00    +0.211 HD
ENDBRANCH  17  22
ENDBRANCH   1  15
TORSDOF 3
ENDMDL
MODEL 2
REMARK VINA RESULT:      -6.2      3.628      5.695
REMARK  Name = 54101611
REMARK  3 active torsions:
REMARK  status: ('A' for Active; 'I' for Inactive)
REMARK    1  A    between atoms: N_1  and  C_12
REMARK    2  A    between atoms: C_13  and  O_17
REMARK    3  A    between atoms: C_14  and  O_19
REMARK                            x       y       z     vdW  Elec       q    Type
REMARK                         _______ _______ _______ _____ _____    ______ ____
ROOT
ATOM      1  N   UNL     1     -37.714  24.743   3.135  0.00  0.00    -0.236 N 
ATOM      2  N   UNL     1     -39.561  25.743   2.387  0.00  0.00    -0.242 NA
ATOM      3  N   UNL     1     -38.185  22.452   2.479  0.00  0.00    -0.228 NA
ATOM      4  N   UNL     1     -40.346  22.278   1.359  0.00  0.00    -0.229 NA
ATOM      5  C   UNL     1     -38.475  23.759   2.572  0.00  0.00    +0.153 C 
ATOM      6  C   UNL     1     -38.409  25.916   2.999  0.00  0.00    +0.224 C 
ATOM      7  C   UNL     1     -39.616  24.399   2.114  0.00  0.00    +0.140 C 
ATOM      8  C   UNL     1     -40.573  23.608   1.487  0.00  0.00    +0.143 C 
ATOM      9  C   UNL     1     -39.183  21.790   1.855  0.00  0.00    +0.253 C 
ATOM     10  N   UNL     1     -41.760  24.174   0.992  0.00  0.00    -0.342 N 
ATOM     11  H   UNL     1     -42.430  23.603   0.550  0.00  0.00    +0.144 HD
ATOM     12  H   UNL     1     -41.921  25.140   1.086  0.00  0.00    +0.144 HD
ENDROOT
BRANCH   1  15
ATOM     13  F   UNL     1     -35.714  21.228   6.180  0.00  0.00    -0.199 F 
ATOM     14  O   UNL     1     -36.245  23.278   4.398  0.00  0.00    -0.457 OA
ATOM     15  C   UNL     1     -36.361  24.581   3.787  0.00  0.00    +0.276 C 
ATOM     16  C   UNL     1     -36.118  25.587   4.912  0.00  0.00    +0.205 C 
ATOM     17  C   UNL     1     -35.061  24.887   5.742  0.00  0.00    +0.202 C 
ATOM     18  C   UNL     1     -35.496  23.470   5.555  0.00  0.00    +0.177 C 
ATOM     19  C   UNL     1     -35.289  22.477   6.424  0.00  0.00    +0.202 C 
BRANCH  16  20
ATOM     20  O   UNL     1     -35.689  26.844   4.424  0.00  0.00    -0.377 OA
ATOM     21  H   UNL     1     -36.463  27.395   4.226  0.00  0.00    +0.211 HD
ENDBRANCH  16  20
BRANCH  17  22
ATOM     22  O   UNL     1     -33.772  25.063   5.167  0.00  0.00    -0.375 OA
ATOM     23  H   UNL     1     -33.530  26.002   5.199  0.00  0.00    +0.211 HD
ENDBRANCH  17  22
ENDBRANCH   1  15
TORSDOF 3
ENDMDL
MODEL 3
REMARK VINA RESULT:      -6.2      1.004      2.096
REMARK  Name = 54101611
REMARK  3 active torsions:
REMARK  status: ('A' for Active; 'I' for Inactive)
REMARK    1  A    between atoms: N_1  and  C_12
REMARK    2  A    between atoms: C_13  and  O_17
REMARK    3  A    between atoms: C_14  and  O_19
REMARK                            x       y       z     vdW  Elec       q    Type
REMARK                         _______ _______ _______ _____ _____    ______ ____
ROOT
ATOM      1  N   UNL     1     -36.037  22.187   3.785  0.00  0.00    -0.236 N 
ATOM      2  N   UNL     1     -35.722  23.545   5.526  0.00  0.00    -0.242 NA
ATOM      3  N   UNL     1     -37.001  23.758   2.202  0.00  0.00    -0.228 NA
ATOM      4  N   UNL     1     -37.183  25.991   3.168  0.00  0.00    -0.229 NA
ATOM      5  C   UNL     1     -36.479  23.418   3.390  0.00  0.00    +0.153 C 
ATOM      6  C   UNL     1     -35.591  22.315   5.075  0.00  0.00    +0.224 C 
ATOM      7  C   UNL     1     -36.276  24.245   4.484  0.00  0.00    +0.140 C 
ATOM      8  C   UNL     1     -36.650  25.578   4.343  0.00  0.00    +0.143 C 
ATOM      9  C   UNL     1     -37.324  25.069   2.185  0.00  0.00    +0.253 C 
ATOM     10  N   UNL     1     -36.478  26.487   5.401  0.00  0.00    -0.342 N 
ATOM     11  H   UNL     1     -36.747  27.428   5.289  0.00  0.00    +0.144 HD
ATOM     12  H   UNL     1     -36.089  26.183   6.252  0.00  0.00    +0.144 HD
ENDROOT
BRANCH   1  15
ATOM     13  F   UNL     1     -32.561  19.931   0.877  0.00  0.00    -0.199 F 
ATOM     14  O   UNL     1     -34.703  20.628   2.486  0.00  0.00    -0.457 OA
ATOM     15  C   UNL     1     -36.034  20.919   2.964  0.00  0.00    +0.276 C 
ATOM     16  C   UNL     1     -36.908  21.018   1.714  0.00  0.00    +0.205 C 
ATOM     17  C   UNL     1     -36.303  19.955   0.819  0.00  0.00    +0.202 C 
ATOM     18  C   UNL     1     -34.870  20.079   1.219  0.00  0.00    +0.177 C 
ATOM     19  C   UNL     1     -33.823  19.791   0.440  0.00  0.00    +0.202 C 
BRANCH  16  20
ATOM     20  O   UNL     1     -38.275  20.786   1.996  0.00  0.00    -0.377 OA
ATOM     21  H   UNL     1     -38.513  19.886   1.722  0.00  0.00    +0.211 HD
ENDBRANCH  16  20
BRANCH  17  22
ATOM     22  O   UNL     1     -36.782  18.665   1.176  0.00  0.00    -0.375 OA
ATOM     23  H   UNL     1     -36.266  17.988   0.712  0.00  0.00    +0.211 HD
ENDBRANCH  17  22
ENDBRANCH   1  15
TORSDOF 3
ENDMDL
MODEL 4
REMARK VINA RESULT:      -6.1      2.989      3.996
REMARK  Name = 54101611
REMARK  3 active torsions:
REMARK  status: ('A' for Active; 'I' for Inactive)
REMARK    1  A    between atoms: N_1  and  C_12
REMARK    2  A    between atoms: C_13  and  O_17
REMARK    3  A    between atoms: C_14  and  O_19
REMARK                            x       y       z     vdW  Elec       q    Type
REMARK                         _______ _______ _______ _____ _____    ______ ____
ROOT
ATOM      1  N   UNL     1     -36.557  24.825   2.834  0.00  0.00    -0.236 N 
ATOM      2  N   UNL     1     -37.179  26.772   1.945  0.00  0.00    -0.242 NA
ATOM      3  N   UNL     1     -34.542  25.522   3.998  0.00  0.00    -0.228 NA
ATOM      4  N   UNL     1     -34.122  27.906   3.692  0.00  0.00    -0.229 NA
ATOM      5  C   UNL     1     -35.621  25.737   3.231  0.00  0.00    +0.153 C 
ATOM      6  C   UNL     1     -37.471  25.494   2.064  0.00  0.00    +0.224 C 
ATOM      7  C   UNL     1     -36.025  26.938   2.669  0.00  0.00    +0.140 C 
ATOM      8  C   UNL     1     -35.229  28.051   2.923  0.00  0.00    +0.143 C 
ATOM      9  C   UNL     1     -33.851  26.669   4.174  0.00  0.00    +0.253 C 
ATOM     10  N   UNL     1     -35.564  29.309   2.395  0.00  0.00    -0.342 N 
ATOM     11  H   UNL     1     -34.993  30.089   2.582  0.00  0.00    +0.144 HD
ATOM     12  H   UNL     1     -36.369  29.410   1.838  0.00  0.00    +0.144 HD
ENDROOT
BRANCH   1  15
ATOM     13  F   UNL     1     -35.428  22.189   7.006  0.00  0.00    -0.199 F 
ATOM     14  O   UNL     1     -36.361  23.153   4.585  0.00  0.00    -0.457 OA
ATOM     15  C   UNL     1     -36.588  23.353   3.173  0.00  0.00    +0.276 C 
ATOM     16  C   UNL     1     -35.494  22.555   2.463  0.00  0.00    +0.205 C 
ATOM     17  C   UNL     1     -35.352  21.343   3.361  0.00  0.00    +0.202 C 
ATOM     18  C   UNL     1     -35.618  21.981   4.685  0.00  0.00    +0.177 C 
ATOM     19  C   UNL     1     -35.140  21.556   5.858  0.00  0.00    +0.202 C 
BRANCH  16  20
ATOM     20  O   UNL     1     -35.853  22.217   1.137  0.00  0.00    -0.377 OA
ATOM     21  H   UNL     1     -35.086  22.335   0.555  0.00  0.00    +0.211 HD
ENDBRANCH  16  20
BRANCH  17  22
ATOM     22  O   UNL     1     -36.369  20.389   3.084  0.00  0.00    -0.375 OA
ATOM     23  H   UNL     1     -36.109  19.526   3.442  0.00  0.00    +0.211 HD
ENDBRANCH  17  22
ENDBRANCH   1  15
TORSDOF 3
ENDMDL
MODEL 5
REMARK VINA RESULT:      -6.1      1.891      2.188
REMARK  Name = 54101611
REMARK  3 active torsions:
REMARK  status: ('A' for Active; 'I' for Inactive)
REMARK    1  A    between atoms: N_1  and  C_12
REMARK    2  A    between atoms: C_13  and  O_17
REMARK    3  A    between atoms: C_14  and  O_19
REMARK                            x       y       z     vdW  Elec       q    Type
REMARK                         _______ _______ _______ _____ _____    ______ ____
ROOT
ATOM      1  N   UNL     1     -35.881  23.877   2.618  0.00  0.00    -0.236 N 
ATOM      2  N   UNL     1     -36.149  25.936   1.805  0.00  0.00    -0.242 NA
ATOM      3  N   UNL     1     -34.747  24.397   4.703  0.00  0.00    -0.228 NA
ATOM      4  N   UNL     1     -34.424  26.801   4.960  0.00  0.00    -0.229 NA
ATOM      5  C   UNL     1     -35.332  24.722   3.540  0.00  0.00    +0.153 C 
ATOM      6  C   UNL     1     -36.358  24.653   1.595  0.00  0.00    +0.224 C 
ATOM      7  C   UNL     1     -35.508  25.994   3.017  0.00  0.00    +0.140 C 
ATOM      8  C   UNL     1     -35.028  27.057   3.774  0.00  0.00    +0.143 C 
ATOM      9  C   UNL     1     -34.323  25.506   5.345  0.00  0.00    +0.253 C 
ATOM     10  N   UNL     1     -35.164  28.380   3.321  0.00  0.00    -0.342 N 
ATOM     11  H   UNL     1     -34.820  29.125   3.866  0.00  0.00    +0.144 HD
ATOM     12  H   UNL     1     -35.603  28.563   2.459  0.00  0.00    +0.144 HD
ENDROOT
BRANCH   1  15
ATOM     13  F   UNL     1     -32.916  20.146   0.910  0.00  0.00    -0.199 F 
ATOM     14  O   UNL     1     -34.732  21.775   2.218  0.00  0.00    -0.457 OA
ATOM     15  C   UNL     1     -35.955  22.371   2.700  0.00  0.00    +0.276 C 
ATOM     16  C   UNL     1     -37.069  21.781   1.835  0.00  0.00    +0.205 C 
ATOM     17  C   UNL     1     -36.585  20.361   1.618  0.00  0.00    +0.202 C 
ATOM     18  C   UNL     1     -35.112  20.606   1.567  0.00  0.00    +0.177 C 
ATOM     19  C   UNL     1     -34.227  19.857   0.904  0.00  0.00    +0.202 C 
BRANCH  16  20
ATOM     20  O   UNL     1     -38.331  21.839   2.473  0.00  0.00    -0.377 OA
ATOM     21  H   UNL     1     -38.208  21.820   3.435  0.00  0.00    +0.211 HD
ENDBRANCH  16  20
BRANCH  17  22
ATOM     22  O   UNL     1     -36.889  19.548   2.743  0.00  0.00    -0.375 OA
ATOM     23  H   UNL     1     -36.262  19.737   3.458  0.00  0.00    +0.211 HD
ENDBRANCH  17  22
ENDBRANCH   1  15
TORSDOF 3
ENDMDL
MODEL 6
REMARK VINA RESULT:      -6.0      3.715      5.357
REMARK  Name = 54101611
REMARK  3 active torsions:
REMARK  status: ('A' for Active; 'I' for Inactive)
REMARK    1  A    between atoms: N_1  and  C_12
REMARK    2  A    between atoms: C_13  and  O_17
REMARK    3  A    between atoms: C_14  and  O_19
REMARK                            x       y       z     vdW  Elec       q    Type
REMARK                         _______ _______ _______ _____ _____    ______ ____
ROOT
ATOM      1  N   UNL     1     -35.180  26.034   3.908  0.00  0.00    -0.236 N 
ATOM      2  N   UNL     1     -33.659  27.596   4.372  0.00  0.00    -0.242 NA
ATOM      3  N   UNL     1     -36.386  27.146   2.115  0.00  0.00    -0.228 NA
ATOM      4  N   UNL     1     -35.448  29.350   1.652  0.00  0.00    -0.229 NA
ATOM      5  C   UNL     1     -35.428  27.068   3.051  0.00  0.00    +0.153 C 
ATOM      6  C   UNL     1     -34.109  26.398   4.680  0.00  0.00    +0.224 C 
ATOM      7  C   UNL     1     -34.474  28.027   3.356  0.00  0.00    +0.140 C 
ATOM      8  C   UNL     1     -34.505  29.204   2.614  0.00  0.00    +0.143 C 
ATOM      9  C   UNL     1     -36.317  28.327   1.465  0.00  0.00    +0.253 C 
ATOM     10  N   UNL     1     -33.575  30.229   2.855  0.00  0.00    -0.342 N 
ATOM     11  H   UNL     1     -33.607  31.057   2.323  0.00  0.00    +0.144 HD
ATOM     12  H   UNL     1     -32.891  30.119   3.554  0.00  0.00    +0.144 HD
ENDROOT
BRANCH   1  15
ATOM     13  F   UNL     1     -35.046  22.138   7.138  0.00  0.00    -0.199 F 
ATOM     14  O   UNL     1     -35.656  24.061   5.243  0.00  0.00    -0.457 OA
ATOM     15  C   UNL     1     -35.938  24.729   3.995  0.00  0.00    +0.276 C 
ATOM     16  C   UNL     1     -35.544  23.738   2.899  0.00  0.00    +0.205 C 
ATOM     17  C   UNL     1     -35.941  22.411   3.514  0.00  0.00    +0.202 C 
ATOM     18  C   UNL     1     -35.641  22.702   4.948  0.00  0.00    +0.177 C 
ATOM     19  C   UNL     1     -35.301  21.792   5.866  0.00  0.00    +0.202 C 
BRANCH  16  20
ATOM     20  O   UNL     1     -36.209  23.998   1.677  0.00  0.00    -0.377 OA
ATOM     21  H   UNL     1     -35.565  23.994   0.952  0.00  0.00    +0.211 HD
ENDBRANCH  16  20
BRANCH  17  22
ATOM     22  O   UNL     1     -37.336  22.183   3.361  0.00  0.00    -0.375 OA
ATOM     23  H   UNL     1     -37.777  22.292   4.218  0.00  0.00    +0.211 HD
ENDBRANCH  17  22
ENDBRANCH   1  15
TORSDOF 3
ENDMDL
MODEL 7
REMARK VINA RESULT:      -6.0      4.408      6.068
REMARK  Name = 54101611
REMARK  3 active torsions:
REMARK  status: ('A' for Active; 'I' for Inactive)
REMARK    1  A    between atoms: N_1  and  C_12
REMARK    2  A    between atoms: C_13  and  O_17
REMARK    3  A    between atoms: C_14  and  O_19
REMARK                            x       y       z     vdW  Elec       q    Type
REMARK                         _______ _______ _______ _____ _____    ______ ____
ROOT
ATOM      1  N   UNL     1     -37.734  25.212   3.096  0.00  0.00    -0.236 N 
ATOM      2  N   UNL     1     -39.931  25.041   2.759  0.00  0.00    -0.242 NA
ATOM      3  N   UNL     1     -37.203  26.964   1.498  0.00  0.00    -0.228 NA
ATOM      4  N   UNL     1     -39.197  27.710   0.307  0.00  0.00    -0.229 NA
ATOM      5  C   UNL     1     -38.041  26.126   2.129  0.00  0.00    +0.153 C 
ATOM      6  C   UNL     1     -38.902  24.586   3.443  0.00  0.00    +0.224 C 
ATOM      7  C   UNL     1     -39.408  26.004   1.934  0.00  0.00    +0.140 C 
ATOM      8  C   UNL     1     -39.985  26.838   0.982  0.00  0.00    +0.143 C 
ATOM      9  C   UNL     1     -37.875  27.719   0.603  0.00  0.00    +0.253 C 
ATOM     10  N   UNL     1     -41.364  26.782   0.721  0.00  0.00    -0.342 N 
ATOM     11  H   UNL     1     -41.761  27.378   0.044  0.00  0.00    +0.144 HD
ATOM     12  H   UNL     1     -41.933  26.149   1.213  0.00  0.00    +0.144 HD
ENDROOT
BRANCH   1  15
ATOM     13  F   UNL     1     -35.899  21.559   6.082  0.00  0.00    -0.199 F 
ATOM     14  O   UNL     1     -36.337  23.633   4.303  0.00  0.00    -0.457 OA
ATOM     15  C   UNL     1     -36.369  24.936   3.681  0.00  0.00    +0.276 C 
ATOM     16  C   UNL     1     -35.981  25.926   4.779  0.00  0.00    +0.205 C 
ATOM     17  C   UNL     1     -34.949  25.141   5.564  0.00  0.00    +0.202 C 
ATOM     18  C   UNL     1     -35.517  23.768   5.418  0.00  0.00    +0.177 C 
ATOM     19  C   UNL     1     -35.353  22.768   6.289  0.00  0.00    +0.202 C 
BRANCH  16  20
ATOM     20  O   UNL     1     -35.469  27.136   4.254  0.00  0.00    -0.377 OA
ATOM     21  H   UNL     1     -35.312  27.762   4.978  0.00  0.00    +0.211 HD
ENDBRANCH  16  20
BRANCH  17  22
ATOM     22  O   UNL     1     -33.681  25.198   4.924  0.00  0.00    -0.375 OA
ATOM     23  H   UNL     1     -33.607  26.027   4.425  0.00  0.00    +0.211 HD
ENDBRANCH  17  22
ENDBRANCH   1  15
TORSDOF 3
ENDMDL
MODEL 8
REMARK VINA RESULT:      -5.9      5.688      7.738
REMARK  Name = 54101611
REMARK  3 active torsions:
REMARK  status: ('A' for Active; 'I' for Inactive)
REMARK    1  A    between atoms: N_1  and  C_12
REMARK    2  A    between atoms: C_13  and  O_17
REMARK    3  A    between atoms: C_14  and  O_19
REMARK                            x       y       z     vdW  Elec       q    Type
REMARK                         _______ _______ _______ _____ _____    ______ ____
ROOT
ATOM      1  N   UNL     1     -34.205  26.689   4.025  0.00  0.00    -0.236 N 
ATOM      2  N   UNL     1     -36.195  26.673   3.019  0.00  0.00    -0.242 NA
ATOM      3  N   UNL     1     -34.367  24.628   5.301  0.00  0.00    -0.228 NA
ATOM      4  N   UNL     1     -36.512  23.525   4.933  0.00  0.00    -0.229 NA
ATOM      5  C   UNL     1     -34.835  25.555   4.451  0.00  0.00    +0.153 C 
ATOM      6  C   UNL     1     -35.062  27.327   3.167  0.00  0.00    +0.224 C 
ATOM      7  C   UNL     1     -36.067  25.563   3.816  0.00  0.00    +0.140 C 
ATOM      8  C   UNL     1     -36.920  24.498   4.083  0.00  0.00    +0.143 C 
ATOM      9  C   UNL     1     -35.278  23.648   5.481  0.00  0.00    +0.253 C 
ATOM     10  N   UNL     1     -38.188  24.425   3.482  0.00  0.00    -0.342 N 
ATOM     11  H   UNL     1     -38.784  23.666   3.679  0.00  0.00    +0.144 HD
ATOM     12  H   UNL     1     -38.482  25.133   2.865  0.00  0.00    +0.144 HD
ENDROOT
BRANCH   1  15
ATOM     13  F   UNL     1     -32.457  30.914   6.198  0.00  0.00    -0.199 F 
ATOM     14  O   UNL     1     -32.906  28.372   5.200  0.00  0.00    -0.457 OA
ATOM     15  C   UNL     1     -32.825  27.161   4.418  0.00  0.00    +0.276 C 
ATOM     16  C   UNL     1     -31.948  27.506   3.214  0.00  0.00    +0.205 C 
ATOM     17  C   UNL     1     -30.936  28.456   3.821  0.00  0.00    +0.202 C 
ATOM     18  C   UNL     1     -31.804  29.135   4.829  0.00  0.00    +0.177 C 
ATOM     19  C   UNL     1     -31.628  30.377   5.289  0.00  0.00    +0.202 C 
BRANCH  16  20
ATOM     20  O   UNL     1     -31.351  26.359   2.640  0.00  0.00    -0.377 OA
ATOM     21  H   UNL     1     -31.780  25.562   2.989  0.00  0.00    +0.211 HD
ENDBRANCH  16  20
BRANCH  17  22
ATOM     22  O   UNL     1     -29.909  27.736   4.491  0.00  0.00    -0.375 OA
ATOM     23  H   UNL     1     -30.264  27.351   5.307  0.00  0.00    +0.211 HD
ENDBRANCH  17  22
ENDBRANCH   1  15
TORSDOF 3
ENDMDL
MODEL 9
REMARK VINA RESULT:      -5.9      1.711      1.840
REMARK  Name = 54101611
REMARK  3 active torsions:
REMARK  status: ('A' for Active; 'I' for Inactive)
REMARK    1  A    between atoms: N_1  and  C_12
REMARK    2  A    between atoms: C_13  and  O_17
REMARK    3  A    between atoms: C_14  and  O_19
REMARK                            x       y       z     vdW  Elec       q    Type
REMARK                         _______ _______ _______ _____ _____    ______ ____
ROOT
ATOM      1  N   UNL     1     -35.881  22.626   1.969  0.00  0.00    -0.236 N 
ATOM      2  N   UNL     1     -36.510  24.757   2.157  0.00  0.00    -0.242 NA
ATOM      3  N   UNL     1     -35.505  22.094   4.310  0.00  0.00    -0.228 NA
ATOM      4  N   UNL     1     -35.957  24.020   5.739  0.00  0.00    -0.229 NA
ATOM      5  C   UNL     1     -35.846  22.914   3.303  0.00  0.00    +0.153 C 
ATOM      6  C   UNL     1     -36.286  23.764   1.322  0.00  0.00    +0.224 C 
ATOM      7  C   UNL     1     -36.239  24.240   3.399  0.00  0.00    +0.140 C 
ATOM      8  C   UNL     1     -36.289  24.791   4.675  0.00  0.00    +0.143 C 
ATOM      9  C   UNL     1     -35.591  22.738   5.493  0.00  0.00    +0.253 C 
ATOM     10  N   UNL     1     -36.678  26.128   4.865  0.00  0.00    -0.342 N 
ATOM     11  H   UNL     1     -36.709  26.507   5.774  0.00  0.00    +0.144 HD
ATOM     12  H   UNL     1     -36.919  26.685   4.091  0.00  0.00    +0.144 HD
ENDROOT
BRANCH   1  15
ATOM     13  F   UNL     1     -35.133  21.200  -2.831  0.00  0.00    -0.199 F 
ATOM     14  O   UNL     1     -35.235  21.493  -0.081  0.00  0.00    -0.457 OA
ATOM     15  C   UNL     1     -35.541  21.306   1.318  0.00  0.00    +0.276 C 
ATOM     16  C   UNL     1     -36.698  20.308   1.356  0.00  0.00    +0.205 C 
ATOM     17  C   UNL     1     -36.359  19.385   0.203  0.00  0.00    +0.202 C 
ATOM     18  C   UNL     1     -35.736  20.370  -0.730  0.00  0.00    +0.177 C 
ATOM     19  C   UNL     1     -35.716  20.268  -2.062  0.00  0.00    +0.202 C 
BRANCH  16  20
ATOM     20  O   UNL     1     -36.782  19.631   2.596  0.00  0.00    -0.377 OA
ATOM     21  H   UNL     1     -36.753  18.674   2.444  0.00  0.00    +0.211 HD
ENDBRANCH  16  20
BRANCH  17  22
ATOM     22  O   UNL     1     -35.386  18.426   0.596  0.00  0.00    -0.375 OA
ATOM     23  H   UNL     1     -34.631  18.463  -0.012  0.00  0.00    +0.211 HD
ENDBRANCH  17  22
ENDBRANCH   1  15
TORSDOF 3
ENDMDL
