MODEL 1
REMARK VINA RESULT:      -5.7      0.000      0.000
REMARK  Name = 2122
REMARK  6 active torsions:
REMARK  status: ('A' for Active; 'I' for Inactive)
REMARK    1  A    between atoms: C_7  and  C_22
REMARK    2  A    between atoms: C_12  and  S_16
REMARK    3  A    between atoms: S_16  and  N_19
REMARK    4  A    between atoms: C_22  and  S_23
REMARK    5  A    between atoms: S_23  and  C_24
REMARK    6  A    between atoms: C_24  and  C_25
REMARK                            x       y       z     vdW  Elec       q    Type
REMARK                         _______ _______ _______ _____ _____    ______ ____
ROOT
ATOM      1 CL   UNL     1     -34.312  22.272  -0.828  0.00  0.00    -0.081 Cl
ATOM      2  S   UNL     1     -35.418  24.052   5.072  0.00  0.00    +0.063 S 
ATOM      3  O   UNL     1     -35.057  22.932   5.917  0.00  0.00    -0.153 OA
ATOM      4  O   UNL     1     -36.747  24.631   5.099  0.00  0.00    -0.153 OA
ATOM      5  N   UNL     1     -34.250  25.283   5.279  0.00  0.00    -0.162 NA
ATOM      6  N   UNL     1     -33.927  25.696   2.906  0.00  0.00    -0.319 N 
ATOM      7  C   UNL     1     -34.212  26.293   4.197  0.00  0.00    +0.158 C 
ATOM      8  C   UNL     1     -35.113  23.590   3.396  0.00  0.00    +0.136 C 
ATOM      9  C   UNL     1     -34.424  24.457   2.533  0.00  0.00    +0.065 C 
ATOM     10  C   UNL     1     -35.563  22.331   2.986  0.00  0.00    +0.042 C 
ATOM     11  C   UNL     1     -34.190  23.998   1.226  0.00  0.00    +0.028 C 
ATOM     12  C   UNL     1     -35.327  21.912   1.680  0.00  0.00    +0.134 C 
ATOM     13  C   UNL     1     -34.639  22.744   0.801  0.00  0.00    +0.078 C 
ATOM     14  H   UNL     1     -33.332  24.842   5.334  0.00  0.00    +0.151 HD
ATOM     15  H   UNL     1     -33.361  26.191   2.270  0.00  0.00    +0.148 HD
ENDROOT
BRANCH  12  16
ATOM     16  S   UNL     1     -35.911  20.331   1.203  0.00  0.00    +0.058 S 
ATOM     17  O   UNL     1     -36.877  20.508   0.132  0.00  0.00    -0.153 OA
ATOM     18  O   UNL     1     -34.762  19.459   1.011  0.00  0.00    -0.153 OA
BRANCH  16  19
ATOM     19  N   UNL     1     -36.735  19.854   2.622  0.00  0.00    -0.203 NA
ATOM     20  H   UNL     1     -37.075  18.898   2.512  0.00  0.00    +0.144 HD
ATOM     21  H   UNL     1     -37.523  20.480   2.783  0.00  0.00    +0.144 HD
ENDBRANCH  16  19
ENDBRANCH  12  16
BRANCH   7  22
ATOM     22  C   UNL     1     -33.139  27.321   4.532  0.00  0.00    +0.096 C 
BRANCH  22  23
ATOM     23  S   UNL     1     -32.684  27.212   6.282  0.00  0.00    -0.132 S 
BRANCH  23  24
ATOM     24  C   UNL     1     -31.276  28.347   6.262  0.00  0.00    +0.084 C 
BRANCH  24  25
ATOM     25  C   UNL     1     -31.704  29.708   6.705  0.00  0.00    -0.014 C 
ATOM     26  C   UNL     1     -31.930  30.727   5.868  0.00  0.00    -0.004 C 
ENDBRANCH  24  25
ENDBRANCH  23  24
ENDBRANCH  22  23
ENDBRANCH   7  22
TORSDOF 6
ENDMDL
MODEL 2
REMARK VINA RESULT:      -5.6      3.061      7.082
REMARK  Name = 2122
REMARK  6 active torsions:
REMARK  status: ('A' for Active; 'I' for Inactive)
REMARK    1  A    between atoms: C_7  and  C_22
REMARK    2  A    between atoms: C_12  and  S_16
REMARK    3  A    between atoms: S_16  and  N_19
REMARK    4  A    between atoms: C_22  and  S_23
REMARK    5  A    between atoms: S_23  and  C_24
REMARK    6  A    between atoms: C_24  and  C_25
REMARK                            x       y       z     vdW  Elec       q    Type
REMARK                         _______ _______ _______ _____ _____    ______ ____
ROOT
ATOM      1 CL   UNL     1     -32.591  27.218   1.188  0.00  0.00    -0.081 Cl
ATOM      2  S   UNL     1     -35.464  23.150   4.983  0.00  0.00    +0.063 S 
ATOM      3  O   UNL     1     -36.273  23.935   5.895  0.00  0.00    -0.153 OA
ATOM      4  O   UNL     1     -34.454  22.227   5.460  0.00  0.00    -0.153 OA
ATOM      5  N   UNL     1     -36.508  22.348   3.892  0.00  0.00    -0.162 NA
ATOM      6  N   UNL     1     -35.262  22.953   1.895  0.00  0.00    -0.319 N 
ATOM      7  C   UNL     1     -35.859  21.868   2.650  0.00  0.00    +0.158 C 
ATOM      8  C   UNL     1     -34.641  24.264   3.889  0.00  0.00    +0.136 C 
ATOM      9  C   UNL     1     -34.635  24.029   2.505  0.00  0.00    +0.065 C 
ATOM     10  C   UNL     1     -34.027  25.384   4.458  0.00  0.00    +0.042 C 
ATOM     11  C   UNL     1     -33.990  24.983   1.701  0.00  0.00    +0.028 C 
ATOM     12  C   UNL     1     -33.385  26.304   3.635  0.00  0.00    +0.134 C 
ATOM     13  C   UNL     1     -33.367  26.105   2.257  0.00  0.00    +0.078 C 
ATOM     14  H   UNL     1     -37.252  22.995   3.633  0.00  0.00    +0.151 HD
ATOM     15  H   UNL     1     -35.303  22.924   0.911  0.00  0.00    +0.148 HD
ENDROOT
BRANCH  12  16
ATOM     16  S   UNL     1     -32.622  27.691   4.386  0.00  0.00    +0.058 S 
ATOM     17  O   UNL     1     -31.202  27.652   4.076  0.00  0.00    -0.153 OA
ATOM     18  O   UNL     1     -33.406  28.873   4.061  0.00  0.00    -0.153 OA
BRANCH  16  19
ATOM     19  N   UNL     1     -32.841  27.320   6.038  0.00  0.00    -0.203 NA
ATOM     20  H   UNL     1     -32.532  26.363   6.215  0.00  0.00    +0.144 HD
ATOM     21  H   UNL     1     -33.828  27.408   6.278  0.00  0.00    +0.144 HD
ENDBRANCH  16  19
ENDBRANCH  12  16
BRANCH   7  22
ATOM     22  C   UNL     1     -36.908  21.168   1.795  0.00  0.00    +0.096 C 
BRANCH  22  23
ATOM     23  S   UNL     1     -36.131  19.912   0.747  0.00  0.00    -0.132 S 
BRANCH  23  24
ATOM     24  C   UNL     1     -34.576  19.734   1.653  0.00  0.00    +0.084 C 
BRANCH  24  25
ATOM     25  C   UNL     1     -33.645  18.832   0.909  0.00  0.00    -0.014 C 
ATOM     26  C   UNL     1     -32.559  18.271   1.452  0.00  0.00    -0.004 C 
ENDBRANCH  24  25
ENDBRANCH  23  24
ENDBRANCH  22  23
ENDBRANCH   7  22
TORSDOF 6
ENDMDL
MODEL 3
REMARK VINA RESULT:      -5.6      2.936      3.310
REMARK  Name = 2122
REMARK  6 active torsions:
REMARK  status: ('A' for Active; 'I' for Inactive)
REMARK    1  A    between atoms: C_7  and  C_22
REMARK    2  A    between atoms: C_12  and  S_16
REMARK    3  A    between atoms: S_16  and  N_19
REMARK    4  A    between atoms: C_22  and  S_23
REMARK    5  A    between atoms: S_23  and  C_24
REMARK    6  A    between atoms: C_24  and  C_25
REMARK                            x       y       z     vdW  Elec       q    Type
REMARK                         _______ _______ _______ _____ _____    ______ ____
ROOT
ATOM      1 CL   UNL     1     -39.728  25.962   1.249  0.00  0.00    -0.081 Cl
ATOM      2  S   UNL     1     -35.511  22.955   4.768  0.00  0.00    +0.063 S 
ATOM      3  O   UNL     1     -34.918  21.936   3.924  0.00  0.00    -0.153 OA
ATOM      4  O   UNL     1     -36.160  22.625   6.021  0.00  0.00    -0.153 OA
ATOM      5  N   UNL     1     -34.349  24.182   5.027  0.00  0.00    -0.162 NA
ATOM      6  N   UNL     1     -35.850  26.029   4.532  0.00  0.00    -0.319 N 
ATOM      7  C   UNL     1     -34.903  25.477   5.483  0.00  0.00    +0.158 C 
ATOM      8  C   UNL     1     -36.704  23.832   3.806  0.00  0.00    +0.136 C 
ATOM      9  C   UNL     1     -36.731  25.235   3.813  0.00  0.00    +0.065 C 
ATOM     10  C   UNL     1     -37.588  23.072   3.035  0.00  0.00    +0.042 C 
ATOM     11  C   UNL     1     -37.687  25.856   2.992  0.00  0.00    +0.028 C 
ATOM     12  C   UNL     1     -38.532  23.718   2.242  0.00  0.00    +0.134 C 
ATOM     13  C   UNL     1     -38.581  25.109   2.219  0.00  0.00    +0.078 C 
ATOM     14  H   UNL     1     -33.854  24.340   4.149  0.00  0.00    +0.151 HD
ATOM     15  H   UNL     1     -35.868  27.003   4.394  0.00  0.00    +0.148 HD
ENDROOT
BRANCH  12  16
ATOM     16  S   UNL     1     -39.627  22.731   1.294  0.00  0.00    +0.058 S 
ATOM     17  O   UNL     1     -40.974  23.246   1.475  0.00  0.00    -0.153 OA
ATOM     18  O   UNL     1     -39.073  22.594  -0.044  0.00  0.00    -0.153 OA
BRANCH  16  19
ATOM     19  N   UNL     1     -39.490  21.234   2.105  0.00  0.00    -0.203 NA
ATOM     20  H   UNL     1     -39.796  20.483   1.485  0.00  0.00    +0.144 HD
ATOM     21  H   UNL     1     -40.074  21.246   2.940  0.00  0.00    +0.144 HD
ENDBRANCH  16  19
ENDBRANCH  12  16
BRANCH   7  22
ATOM     22  C   UNL     1     -33.752  26.455   5.682  0.00  0.00    +0.096 C 
BRANCH  22  23
ATOM     23  S   UNL     1     -33.217  27.132   4.089  0.00  0.00    -0.132 S 
BRANCH  23  24
ATOM     24  C   UNL     1     -32.196  28.490   4.706  0.00  0.00    +0.084 C 
BRANCH  24  25
ATOM     25  C   UNL     1     -32.057  28.399   6.191  0.00  0.00    -0.014 C 
ATOM     26  C   UNL     1     -31.618  29.400   6.962  0.00  0.00    -0.004 C 
ENDBRANCH  24  25
ENDBRANCH  23  24
ENDBRANCH  22  23
ENDBRANCH   7  22
TORSDOF 6
ENDMDL
MODEL 4
REMARK VINA RESULT:      -5.5      3.305      4.530
REMARK  Name = 2122
REMARK  6 active torsions:
REMARK  status: ('A' for Active; 'I' for Inactive)
REMARK    1  A    between atoms: C_7  and  C_22
REMARK    2  A    between atoms: C_12  and  S_16
REMARK    3  A    between atoms: S_16  and  N_19
REMARK    4  A    between atoms: C_22  and  S_23
REMARK    5  A    between atoms: S_23  and  C_24
REMARK    6  A    between atoms: C_24  and  C_25
REMARK                            x       y       z     vdW  Elec       q    Type
REMARK                         _______ _______ _______ _____ _____    ______ ____
ROOT
ATOM      1 CL   UNL     1     -35.576  23.188   5.984  0.00  0.00    -0.081 Cl
ATOM      2  S   UNL     1     -34.041  28.397   2.866  0.00  0.00    +0.063 S 
ATOM      3  O   UNL     1     -35.286  29.026   2.472  0.00  0.00    -0.153 OA
ATOM      4  O   UNL     1     -33.031  28.029   1.894  0.00  0.00    -0.153 OA
ATOM      5  N   UNL     1     -33.331  29.337   4.106  0.00  0.00    -0.162 NA
ATOM      6  N   UNL     1     -32.854  27.460   5.574  0.00  0.00    -0.319 N 
ATOM      7  C   UNL     1     -32.311  28.632   4.914  0.00  0.00    +0.158 C 
ATOM      8  C   UNL     1     -34.433  26.924   3.756  0.00  0.00    +0.136 C 
ATOM      9  C   UNL     1     -33.797  26.639   4.975  0.00  0.00    +0.065 C 
ATOM     10  C   UNL     1     -35.407  26.085   3.209  0.00  0.00    +0.042 C 
ATOM     11  C   UNL     1     -34.193  25.465   5.638  0.00  0.00    +0.028 C 
ATOM     12  C   UNL     1     -35.768  24.923   3.884  0.00  0.00    +0.134 C 
ATOM     13  C   UNL     1     -35.162  24.614   5.099  0.00  0.00    +0.078 C 
ATOM     14  H   UNL     1     -34.074  29.648   4.732  0.00  0.00    +0.151 HD
ATOM     15  H   UNL     1     -32.541  27.239   6.481  0.00  0.00    +0.148 HD
ENDROOT
BRANCH  12  16
ATOM     16  S   UNL     1     -36.988  23.894   3.162  0.00  0.00    +0.058 S 
ATOM     17  O   UNL     1     -36.474  22.534   3.129  0.00  0.00    -0.153 OA
ATOM     18  O   UNL     1     -38.262  24.175   3.807  0.00  0.00    -0.153 OA
BRANCH  16  19
ATOM     19  N   UNL     1     -37.026  24.513   1.571  0.00  0.00    -0.203 NA
ATOM     20  H   UNL     1     -37.962  24.865   1.366  0.00  0.00    +0.144 HD
ATOM     21  H   UNL     1     -36.790  23.772   0.912  0.00  0.00    +0.144 HD
ENDBRANCH  16  19
ENDBRANCH  12  16
BRANCH   7  22
ATOM     22  C   UNL     1     -31.766  29.599   5.958  0.00  0.00    +0.096 C 
BRANCH  22  23
ATOM     23  S   UNL     1     -30.000  29.894   5.684  0.00  0.00    -0.132 S 
BRANCH  23  24
ATOM     24  C   UNL     1     -29.366  28.322   6.313  0.00  0.00    +0.084 C 
BRANCH  24  25
ATOM     25  C   UNL     1     -28.231  28.563   7.255  0.00  0.00    -0.014 C 
ATOM     26  C   UNL     1     -28.197  29.565   8.140  0.00  0.00    -0.004 C 
ENDBRANCH  24  25
ENDBRANCH  23  24
ENDBRANCH  22  23
ENDBRANCH   7  22
TORSDOF 6
ENDMDL
MODEL 5
REMARK VINA RESULT:      -5.5      3.130      6.702
REMARK  Name = 2122
REMARK  6 active torsions:
REMARK  status: ('A' for Active; 'I' for Inactive)
REMARK    1  A    between atoms: C_7  and  C_22
REMARK    2  A    between atoms: C_12  and  S_16
REMARK    3  A    between atoms: S_16  and  N_19
REMARK    4  A    between atoms: C_22  and  S_23
REMARK    5  A    between atoms: S_23  and  C_24
REMARK    6  A    between atoms: C_24  and  C_25
REMARK                            x       y       z     vdW  Elec       q    Type
REMARK                         _______ _______ _______ _____ _____    ______ ____
ROOT
ATOM      1 CL   UNL     1     -32.872  27.061   1.137  0.00  0.00    -0.081 Cl
ATOM      2  S   UNL     1     -35.434  22.874   5.024  0.00  0.00    +0.063 S 
ATOM      3  O   UNL     1     -36.236  23.624   5.971  0.00  0.00    -0.153 OA
ATOM      4  O   UNL     1     -34.371  21.990   5.458  0.00  0.00    -0.153 OA
ATOM      5  N   UNL     1     -36.488  22.035   3.972  0.00  0.00    -0.162 NA
ATOM      6  N   UNL     1     -35.347  22.694   1.930  0.00  0.00    -0.319 N 
ATOM      7  C   UNL     1     -35.871  21.584   2.703  0.00  0.00    +0.158 C 
ATOM      8  C   UNL     1     -34.699  24.023   3.904  0.00  0.00    +0.136 C 
ATOM      9  C   UNL     1     -34.738  23.791   2.520  0.00  0.00    +0.065 C 
ATOM     10  C   UNL     1     -34.107  25.164   4.453  0.00  0.00    +0.042 C 
ATOM     11  C   UNL     1     -34.162  24.772   1.695  0.00  0.00    +0.028 C 
ATOM     12  C   UNL     1     -33.533  26.110   3.609  0.00  0.00    +0.134 C 
ATOM     13  C   UNL     1     -33.562  25.916   2.231  0.00  0.00    +0.078 C 
ATOM     14  H   UNL     1     -37.267  22.653   3.745  0.00  0.00    +0.151 HD
ATOM     15  H   UNL     1     -35.425  22.666   0.949  0.00  0.00    +0.148 HD
ENDROOT
BRANCH  12  16
ATOM     16  S   UNL     1     -32.796  27.524   4.336  0.00  0.00    +0.058 S 
ATOM     17  O   UNL     1     -31.381  27.520   4.002  0.00  0.00    -0.153 OA
ATOM     18  O   UNL     1     -33.617  28.682   4.014  0.00  0.00    -0.153 OA
BRANCH  16  19
ATOM     19  N   UNL     1     -32.978  27.161   5.995  0.00  0.00    -0.203 NA
ATOM     20  H   UNL     1     -33.300  26.198   6.098  0.00  0.00    +0.144 HD
ATOM     21  H   UNL     1     -33.662  27.795   6.408  0.00  0.00    +0.144 HD
ENDBRANCH  16  19
ENDBRANCH  12  16
BRANCH   7  22
ATOM     22  C   UNL     1     -36.925  20.846   1.887  0.00  0.00    +0.096 C 
BRANCH  22  23
ATOM     23  S   UNL     1     -37.892  22.017   0.899  0.00  0.00    -0.132 S 
BRANCH  23  24
ATOM     24  C   UNL     1     -39.409  22.007   1.884  0.00  0.00    +0.084 C 
BRANCH  24  25
ATOM     25  C   UNL     1     -39.754  23.396   2.314  0.00  0.00    -0.014 C 
ATOM     26  C   UNL     1     -38.863  24.271   2.793  0.00  0.00    -0.004 C 
ENDBRANCH  24  25
ENDBRANCH  23  24
ENDBRANCH  22  23
ENDBRANCH   7  22
TORSDOF 6
ENDMDL
MODEL 6
REMARK VINA RESULT:      -5.4      3.786      7.588
REMARK  Name = 2122
REMARK  6 active torsions:
REMARK  status: ('A' for Active; 'I' for Inactive)
REMARK    1  A    between atoms: C_7  and  C_22
REMARK    2  A    between atoms: C_12  and  S_16
REMARK    3  A    between atoms: S_16  and  N_19
REMARK    4  A    between atoms: C_22  and  S_23
REMARK    5  A    between atoms: S_23  and  C_24
REMARK    6  A    between atoms: C_24  and  C_25
REMARK                            x       y       z     vdW  Elec       q    Type
REMARK                         _______ _______ _______ _____ _____    ______ ____
ROOT
ATOM      1 CL   UNL     1     -35.190  22.458   6.031  0.00  0.00    -0.081 Cl
ATOM      2  S   UNL     1     -35.731  22.257  -0.204  0.00  0.00    +0.063 S 
ATOM      3  O   UNL     1     -34.591  22.973  -0.742  0.00  0.00    -0.153 OA
ATOM      4  O   UNL     1     -37.092  22.638  -0.525  0.00  0.00    -0.153 OA
ATOM      5  N   UNL     1     -35.513  20.589  -0.510  0.00  0.00    -0.162 NA
ATOM      6  N   UNL     1     -36.061  19.869   1.746  0.00  0.00    -0.319 N 
ATOM      7  C   UNL     1     -36.334  19.690   0.333  0.00  0.00    +0.158 C 
ATOM      8  C   UNL     1     -35.610  22.286   1.557  0.00  0.00    +0.136 C 
ATOM      9  C   UNL     1     -35.794  21.111   2.302  0.00  0.00    +0.065 C 
ATOM     10  C   UNL     1     -35.305  23.511   2.158  0.00  0.00    +0.042 C 
ATOM     11  C   UNL     1     -35.644  21.213   3.695  0.00  0.00    +0.028 C 
ATOM     12  C   UNL     1     -35.177  23.580   3.542  0.00  0.00    +0.134 C 
ATOM     13  C   UNL     1     -35.345  22.432   4.310  0.00  0.00    +0.078 C 
ATOM     14  H   UNL     1     -34.531  20.364  -0.351  0.00  0.00    +0.151 HD
ATOM     15  H   UNL     1     -36.065  19.078   2.333  0.00  0.00    +0.148 HD
ENDROOT
BRANCH  12  16
ATOM     16  S   UNL     1     -34.799  25.134   4.259  0.00  0.00    +0.058 S 
ATOM     17  O   UNL     1     -35.849  25.462   5.209  0.00  0.00    -0.153 OA
ATOM     18  O   UNL     1     -33.409  25.113   4.687  0.00  0.00    -0.153 OA
BRANCH  16  19
ATOM     19  N   UNL     1     -34.942  26.156   2.898  0.00  0.00    -0.203 NA
ATOM     20  H   UNL     1     -34.184  26.838   2.904  0.00  0.00    +0.144 HD
ATOM     21  H   UNL     1     -35.838  26.642   2.931  0.00  0.00    +0.144 HD
ENDBRANCH  16  19
ENDBRANCH  12  16
BRANCH   7  22
ATOM     22  C   UNL     1     -36.040  18.250  -0.066  0.00  0.00    +0.096 C 
BRANCH  22  23
ATOM     23  S   UNL     1     -34.437  18.142  -0.902  0.00  0.00    -0.132 S 
BRANCH  23  24
ATOM     24  C   UNL     1     -33.484  17.400   0.444  0.00  0.00    +0.084 C 
BRANCH  24  25
ATOM     25  C   UNL     1     -32.776  18.461   1.222  0.00  0.00    -0.014 C 
ATOM     26  C   UNL     1     -32.302  19.589   0.683  0.00  0.00    -0.004 C 
ENDBRANCH  24  25
ENDBRANCH  23  24
ENDBRANCH  22  23
ENDBRANCH   7  22
TORSDOF 6
ENDMDL
MODEL 7
REMARK VINA RESULT:      -5.2      3.151      7.391
REMARK  Name = 2122
REMARK  6 active torsions:
REMARK  status: ('A' for Active; 'I' for Inactive)
REMARK    1  A    between atoms: C_7  and  C_22
REMARK    2  A    between atoms: C_12  and  S_16
REMARK    3  A    between atoms: S_16  and  N_19
REMARK    4  A    between atoms: C_22  and  S_23
REMARK    5  A    between atoms: S_23  and  C_24
REMARK    6  A    between atoms: C_24  and  C_25
REMARK                            x       y       z     vdW  Elec       q    Type
REMARK                         _______ _______ _______ _____ _____    ______ ____
ROOT
ATOM      1 CL   UNL     1     -32.747  26.986   0.976  0.00  0.00    -0.081 Cl
ATOM      2  S   UNL     1     -35.510  23.004   4.941  0.00  0.00    +0.063 S 
ATOM      3  O   UNL     1     -36.314  23.807   5.841  0.00  0.00    -0.153 OA
ATOM      4  O   UNL     1     -34.481  22.108   5.430  0.00  0.00    -0.153 OA
ATOM      5  N   UNL     1     -36.561  22.156   3.892  0.00  0.00    -0.162 NA
ATOM      6  N   UNL     1     -35.354  22.714   1.857  0.00  0.00    -0.319 N 
ATOM      7  C   UNL     1     -35.926  21.646   2.655  0.00  0.00    +0.158 C 
ATOM      8  C   UNL     1     -34.718  24.094   3.800  0.00  0.00    +0.136 C 
ATOM      9  C   UNL     1     -34.731  23.815   2.424  0.00  0.00    +0.065 C 
ATOM     10  C   UNL     1     -34.109  25.238   4.324  0.00  0.00    +0.042 C 
ATOM     11  C   UNL     1     -34.110  24.752   1.581  0.00  0.00    +0.028 C 
ATOM     12  C   UNL     1     -33.491  26.139   3.462  0.00  0.00    +0.134 C 
ATOM     13  C   UNL     1     -33.493  25.898   2.092  0.00  0.00    +0.078 C 
ATOM     14  H   UNL     1     -37.317  22.786   3.625  0.00  0.00    +0.151 HD
ATOM     15  H   UNL     1     -35.410  22.654   0.876  0.00  0.00    +0.148 HD
ENDROOT
BRANCH  12  16
ATOM     16  S   UNL     1     -32.734  27.558   4.158  0.00  0.00    +0.058 S 
ATOM     17  O   UNL     1     -31.319  27.526   3.827  0.00  0.00    -0.153 OA
ATOM     18  O   UNL     1     -33.537  28.720   3.809  0.00  0.00    -0.153 OA
BRANCH  16  19
ATOM     19  N   UNL     1     -32.923  27.236   5.824  0.00  0.00    -0.203 NA
ATOM     20  H   UNL     1     -32.015  27.293   6.286  0.00  0.00    +0.144 HD
ATOM     21  H   UNL     1     -33.310  26.300   5.947  0.00  0.00    +0.144 HD
ENDBRANCH  16  19
ENDBRANCH  12  16
BRANCH   7  22
ATOM     22  C   UNL     1     -36.979  20.907   1.839  0.00  0.00    +0.096 C 
BRANCH  22  23
ATOM     23  S   UNL     1     -38.573  21.762   1.944  0.00  0.00    -0.132 S 
BRANCH  23  24
ATOM     24  C   UNL     1     -39.228  21.305   0.323  0.00  0.00    +0.084 C 
BRANCH  24  25
ATOM     25  C   UNL     1     -38.538  20.082  -0.188  0.00  0.00    -0.014 C 
ATOM     26  C   UNL     1     -39.051  19.269  -1.117  0.00  0.00    -0.004 C 
ENDBRANCH  24  25
ENDBRANCH  23  24
ENDBRANCH  22  23
ENDBRANCH   7  22
TORSDOF 6
ENDMDL
MODEL 8
REMARK VINA RESULT:      -5.1      1.533      1.644
REMARK  Name = 2122
REMARK  6 active torsions:
REMARK  status: ('A' for Active; 'I' for Inactive)
REMARK    1  A    between atoms: C_7  and  C_22
REMARK    2  A    between atoms: C_12  and  S_16
REMARK    3  A    between atoms: S_16  and  N_19
REMARK    4  A    between atoms: C_22  and  S_23
REMARK    5  A    between atoms: S_23  and  C_24
REMARK    6  A    between atoms: C_24  and  C_25
REMARK                            x       y       z     vdW  Elec       q    Type
REMARK                         _______ _______ _______ _____ _____    ______ ____
ROOT
ATOM      1 CL   UNL     1     -33.617  21.878  -0.598  0.00  0.00    -0.081 Cl
ATOM      2  S   UNL     1     -36.421  24.596   4.295  0.00  0.00    +0.063 S 
ATOM      3  O   UNL     1     -36.110  23.784   5.455  0.00  0.00    -0.153 OA
ATOM      4  O   UNL     1     -37.788  24.873   3.902  0.00  0.00    -0.153 OA
ATOM      5  N   UNL     1     -35.549  26.062   4.414  0.00  0.00    -0.162 NA
ATOM      6  N   UNL     1     -34.716  26.020   2.131  0.00  0.00    -0.319 N 
ATOM      7  C   UNL     1     -35.403  26.803   3.141  0.00  0.00    +0.158 C 
ATOM      8  C   UNL     1     -35.640  23.864   2.892  0.00  0.00    +0.136 C 
ATOM      9  C   UNL     1     -34.903  24.653   1.995  0.00  0.00    +0.065 C 
ATOM     10  C   UNL     1     -35.770  22.480   2.735  0.00  0.00    +0.042 C 
ATOM     11  C   UNL     1     -34.282  23.987   0.925  0.00  0.00    +0.028 C 
ATOM     12  C   UNL     1     -35.154  21.853   1.658  0.00  0.00    +0.134 C 
ATOM     13  C   UNL     1     -34.409  22.605   0.754  0.00  0.00    +0.078 C 
ATOM     14  H   UNL     1     -34.616  25.848   4.767  0.00  0.00    +0.151 HD
ATOM     15  H   UNL     1     -34.094  26.477   1.520  0.00  0.00    +0.148 HD
ENDROOT
BRANCH  12  16
ATOM     16  S   UNL     1     -35.345  20.119   1.493  0.00  0.00    +0.058 S 
ATOM     17  O   UNL     1     -35.861  19.844   0.161  0.00  0.00    -0.153 OA
ATOM     18  O   UNL     1     -34.119  19.480   1.945  0.00  0.00    -0.153 OA
BRANCH  16  19
ATOM     19  N   UNL     1     -36.577  19.824   2.638  0.00  0.00    -0.203 NA
ATOM     20  H   UNL     1     -36.710  18.818   2.742  0.00  0.00    +0.144 HD
ATOM     21  H   UNL     1     -37.447  20.251   2.319  0.00  0.00    +0.144 HD
ENDBRANCH  16  19
ENDBRANCH  12  16
BRANCH   7  22
ATOM     22  C   UNL     1     -34.622  28.083   3.412  0.00  0.00    +0.096 C 
BRANCH  22  23
ATOM     23  S   UNL     1     -32.867  27.710   3.662  0.00  0.00    -0.132 S 
BRANCH  23  24
ATOM     24  C   UNL     1     -32.317  29.352   4.183  0.00  0.00    +0.084 C 
BRANCH  24  25
ATOM     25  C   UNL     1     -33.263  30.395   3.685  0.00  0.00    -0.014 C 
ATOM     26  C   UNL     1     -32.926  31.353   2.814  0.00  0.00    -0.004 C 
ENDBRANCH  24  25
ENDBRANCH  23  24
ENDBRANCH  22  23
ENDBRANCH   7  22
TORSDOF 6
ENDMDL
MODEL 9
REMARK VINA RESULT:      -5.1      5.251      9.265
REMARK  Name = 2122
REMARK  6 active torsions:
REMARK  status: ('A' for Active; 'I' for Inactive)
REMARK    1  A    between atoms: C_7  and  C_22
REMARK    2  A    between atoms: C_12  and  S_16
REMARK    3  A    between atoms: S_16  and  N_19
REMARK    4  A    between atoms: C_22  and  S_23
REMARK    5  A    between atoms: S_23  and  C_24
REMARK    6  A    between atoms: C_24  and  C_25
REMARK                            x       y       z     vdW  Elec       q    Type
REMARK                         _______ _______ _______ _____ _____    ______ ____
ROOT
ATOM      1 CL   UNL     1     -41.153  23.976   1.145  0.00  0.00    -0.081 Cl
ATOM      2  S   UNL     1     -35.934  20.615   1.965  0.00  0.00    +0.063 S 
ATOM      3  O   UNL     1     -35.726  20.516   3.396  0.00  0.00    -0.153 OA
ATOM      4  O   UNL     1     -34.927  21.172   1.085  0.00  0.00    -0.153 OA
ATOM      5  N   UNL     1     -36.423  19.083   1.384  0.00  0.00    -0.162 NA
ATOM      6  N   UNL     1     -38.288  19.920   0.069  0.00  0.00    -0.319 N 
ATOM      7  C   UNL     1     -37.089  19.103   0.062  0.00  0.00    +0.158 C 
ATOM      8  C   UNL     1     -37.405  21.553   1.693  0.00  0.00    +0.136 C 
ATOM      9  C   UNL     1     -38.379  21.102   0.789  0.00  0.00    +0.065 C 
ATOM     10  C   UNL     1     -37.558  22.733   2.426  0.00  0.00    +0.042 C 
ATOM     11  C   UNL     1     -39.537  21.888   0.658  0.00  0.00    +0.028 C 
ATOM     12  C   UNL     1     -38.710  23.496   2.264  0.00  0.00    +0.134 C 
ATOM     13  C   UNL     1     -39.700  23.073   1.381  0.00  0.00    +0.078 C 
ATOM     14  H   UNL     1     -37.072  18.680   2.061  0.00  0.00    +0.151 HD
ATOM     15  H   UNL     1     -39.065  19.624  -0.458  0.00  0.00    +0.148 HD
ENDROOT
BRANCH  12  16
ATOM     16  S   UNL     1     -38.861  24.971   3.197  0.00  0.00    +0.058 S 
ATOM     17  O   UNL     1     -38.607  26.096   2.311  0.00  0.00    -0.153 OA
ATOM     18  O   UNL     1     -40.101  24.906   3.954  0.00  0.00    -0.153 OA
BRANCH  16  19
ATOM     19  N   UNL     1     -37.546  24.803   4.273  0.00  0.00    -0.203 NA
ATOM     20  H   UNL     1     -36.730  24.466   3.762  0.00  0.00    +0.144 HD
ATOM     21  H   UNL     1     -37.789  24.136   5.005  0.00  0.00    +0.144 HD
ENDBRANCH  16  19
ENDBRANCH  12  16
BRANCH   7  22
ATOM     22  C   UNL     1     -37.449  17.673  -0.321  0.00  0.00    +0.096 C 
BRANCH  22  23
ATOM     23  S   UNL     1     -38.294  17.643  -1.923  0.00  0.00    -0.132 S 
BRANCH  23  24
ATOM     24  C   UNL     1     -39.766  16.717  -1.430  0.00  0.00    +0.084 C 
BRANCH  24  25
ATOM     25  C   UNL     1     -39.376  15.497  -0.661  0.00  0.00    -0.014 C 
ATOM     26  C   UNL     1     -40.036  14.336  -0.718  0.00  0.00    -0.004 C 
ENDBRANCH  24  25
ENDBRANCH  23  24
ENDBRANCH  22  23
ENDBRANCH   7  22
TORSDOF 6
ENDMDL
