MODEL 1
REMARK VINA RESULT:      -6.2      0.000      0.000
REMARK  Name = 6076
REMARK  3 active torsions:
REMARK  status: ('A' for Active; 'I' for Inactive)
REMARK    1  A    between atoms: P_1  and  O_25
REMARK    2  A    between atoms: C_8  and  O_23
REMARK    3  A    between atoms: C_9  and  N_11
REMARK                            x       y       z     vdW  Elec       q    Type
REMARK                         _______ _______ _______ _____ _____    ______ ____
ROOT
ATOM      1  P   UNL     1     -32.937  28.299   4.125  0.00  0.00    +0.476 P 
ATOM      2  O   UNL     1     -36.193  25.970   2.491  0.00  0.00    -0.333 OA
ATOM      3  O   UNL     1     -34.002  27.375   4.939  0.00  0.00    -0.271 OA
ATOM      4  O   UNL     1     -33.636  28.621   2.693  0.00  0.00    -0.271 OA
ATOM      5  O   UNL     1     -32.484  29.520   4.874  0.00  0.00    -0.227 OA
ATOM      6  C   UNL     1     -34.655  26.383   4.181  0.00  0.00    +0.186 C 
ATOM      7  C   UNL     1     -35.374  27.017   3.009  0.00  0.00    +0.177 C 
ATOM      8  C   UNL     1     -35.790  25.642   4.850  0.00  0.00    +0.188 C 
ATOM      9  C   UNL     1     -36.607  25.169   3.632  0.00  0.00    +0.225 C 
ATOM     10  C   UNL     1     -34.375  27.597   2.028  0.00  0.00    +0.186 C 
ENDROOT
BRANCH   9  11
ATOM     11  N   UNL     1     -36.428  23.750   3.323  0.00  0.00    -0.247 N 
ATOM     12  N   UNL     1     -35.583  21.689   3.406  0.00  0.00    -0.242 NA
ATOM     13  N   UNL     1     -38.158  23.424   1.649  0.00  0.00    -0.228 NA
ATOM     14  N   UNL     1     -38.197  21.117   0.852  0.00  0.00    -0.229 NA
ATOM     15  C   UNL     1     -37.147  23.010   2.428  0.00  0.00    +0.152 C 
ATOM     16  C   UNL     1     -35.501  22.913   3.885  0.00  0.00    +0.223 C 
ATOM     17  C   UNL     1     -36.608  21.736   2.495  0.00  0.00    +0.140 C 
ATOM     18  C   UNL     1     -37.171  20.770   1.666  0.00  0.00    +0.143 C 
ATOM     19  C   UNL     1     -38.620  22.404   0.894  0.00  0.00    +0.253 C 
ATOM     20  N   UNL     1     -36.687  19.450   1.670  0.00  0.00    -0.342 N 
ATOM     21  H   UNL     1     -37.094  18.775   1.080  0.00  0.00    +0.144 HD
ATOM     22  H   UNL     1     -35.942  19.200   2.263  0.00  0.00    +0.144 HD
ENDBRANCH   9  11
BRANCH   8  23
ATOM     23  O   UNL     1     -36.575  26.543   5.625  0.00  0.00    -0.378 OA
ATOM     24  H   UNL     1     -37.283  26.054   6.070  0.00  0.00    +0.211 HD
ENDBRANCH   8  23
BRANCH   1  25
ATOM     25  O   UNL     1     -31.730  27.286   3.751  0.00  0.00    -0.302 OA
ATOM     26  H   UNL     1     -31.914  26.411   4.126  0.00  0.00    +0.222 HD
ENDBRANCH   1  25
TORSDOF 3
ENDMDL
MODEL 2
REMARK VINA RESULT:      -6.2      4.661      7.430
REMARK  Name = 6076
REMARK  3 active torsions:
REMARK  status: ('A' for Active; 'I' for Inactive)
REMARK    1  A    between atoms: P_1  and  O_25
REMARK    2  A    between atoms: C_8  and  O_23
REMARK    3  A    between atoms: C_9  and  N_11
REMARK                            x       y       z     vdW  Elec       q    Type
REMARK                         _______ _______ _______ _____ _____    ______ ____
ROOT
ATOM      1  P   UNL     1     -36.560  22.764   3.320  0.00  0.00    +0.476 P 
ATOM      2  O   UNL     1     -35.408  26.896   3.868  0.00  0.00    -0.333 OA
ATOM      3  O   UNL     1     -35.177  23.480   2.845  0.00  0.00    -0.271 OA
ATOM      4  O   UNL     1     -37.629  23.969   3.535  0.00  0.00    -0.271 OA
ATOM      5  O   UNL     1     -37.037  21.678   2.399  0.00  0.00    -0.227 OA
ATOM      6  C   UNL     1     -34.842  24.671   3.519  0.00  0.00    +0.186 C 
ATOM      7  C   UNL     1     -35.967  25.675   3.386  0.00  0.00    +0.177 C 
ATOM      8  C   UNL     1     -33.678  25.467   2.974  0.00  0.00    +0.188 C 
ATOM      9  C   UNL     1     -34.003  26.880   3.494  0.00  0.00    +0.225 C 
ATOM     10  C   UNL     1     -37.196  25.193   4.130  0.00  0.00    +0.186 C 
ENDROOT
BRANCH   9  11
ATOM     11  N   UNL     1     -33.188  27.283   4.642  0.00  0.00    -0.247 N 
ATOM     12  N   UNL     1     -32.395  27.319   6.725  0.00  0.00    -0.242 NA
ATOM     13  N   UNL     1     -31.825  29.029   3.646  0.00  0.00    -0.228 NA
ATOM     14  N   UNL     1     -30.283  29.988   5.277  0.00  0.00    -0.229 NA
ATOM     15  C   UNL     1     -32.225  28.250   4.662  0.00  0.00    +0.152 C 
ATOM     16  C   UNL     1     -33.255  26.752   5.903  0.00  0.00    +0.223 C 
ATOM     17  C   UNL     1     -31.745  28.256   5.962  0.00  0.00    +0.140 C 
ATOM     18  C   UNL     1     -30.735  29.169   6.256  0.00  0.00    +0.143 C 
ATOM     19  C   UNL     1     -30.847  29.869   4.051  0.00  0.00    +0.253 C 
ATOM     20  N   UNL     1     -30.189  29.242   7.549  0.00  0.00    -0.342 N 
ATOM     21  H   UNL     1     -29.475  29.892   7.745  0.00  0.00    +0.144 HD
ATOM     22  H   UNL     1     -30.520  28.645   8.258  0.00  0.00    +0.144 HD
ENDBRANCH   9  11
BRANCH   8  23
ATOM     23  O   UNL     1     -33.710  25.468   1.550  0.00  0.00    -0.378 OA
ATOM     24  H   UNL     1     -32.928  25.930   1.209  0.00  0.00    +0.211 HD
ENDBRANCH   8  23
BRANCH   1  25
ATOM     25  O   UNL     1     -36.248  22.246   4.823  0.00  0.00    -0.302 OA
ATOM     26  H   UNL     1     -35.384  22.582   5.108  0.00  0.00    +0.222 HD
ENDBRANCH   1  25
TORSDOF 3
ENDMDL
MODEL 3
REMARK VINA RESULT:      -6.2      4.091      6.855
REMARK  Name = 6076
REMARK  3 active torsions:
REMARK  status: ('A' for Active; 'I' for Inactive)
REMARK    1  A    between atoms: P_1  and  O_25
REMARK    2  A    between atoms: C_8  and  O_23
REMARK    3  A    between atoms: C_9  and  N_11
REMARK                            x       y       z     vdW  Elec       q    Type
REMARK                         _______ _______ _______ _____ _____    ______ ____
ROOT
ATOM      1  P   UNL     1     -39.313  24.160   2.742  0.00  0.00    +0.476 P 
ATOM      2  O   UNL     1     -35.464  26.105   2.427  0.00  0.00    -0.333 OA
ATOM      3  O   UNL     1     -37.862  23.566   3.181  0.00  0.00    -0.271 OA
ATOM      4  O   UNL     1     -38.999  25.354   1.686  0.00  0.00    -0.271 OA
ATOM      5  O   UNL     1     -40.272  23.124   2.229  0.00  0.00    -0.227 OA
ATOM      6  C   UNL     1     -36.852  24.522   3.406  0.00  0.00    +0.186 C 
ATOM      7  C   UNL     1     -36.662  25.375   2.170  0.00  0.00    +0.177 C 
ATOM      8  C   UNL     1     -35.448  24.003   3.619  0.00  0.00    +0.188 C 
ATOM      9  C   UNL     1     -34.606  25.224   3.203  0.00  0.00    +0.225 C 
ATOM     10  C   UNL     1     -37.892  26.225   1.921  0.00  0.00    +0.186 C 
ENDROOT
BRANCH   9  11
ATOM     11  N   UNL     1     -34.046  25.963   4.336  0.00  0.00    -0.247 N 
ATOM     12  N   UNL     1     -33.703  26.597   6.445  0.00  0.00    -0.242 NA
ATOM     13  N   UNL     1     -32.501  27.450   3.197  0.00  0.00    -0.228 NA
ATOM     14  N   UNL     1     -31.328  28.892   4.779  0.00  0.00    -0.229 NA
ATOM     15  C   UNL     1     -33.105  26.951   4.285  0.00  0.00    +0.152 C 
ATOM     16  C   UNL     1     -34.375  25.786   5.654  0.00  0.00    +0.223 C 
ATOM     17  C   UNL     1     -32.906  27.330   5.603  0.00  0.00    +0.140 C 
ATOM     18  C   UNL     1     -31.977  28.341   5.833  0.00  0.00    +0.143 C 
ATOM     19  C   UNL     1     -31.626  28.419   3.545  0.00  0.00    +0.253 C 
ATOM     20  N   UNL     1     -31.712  28.787   7.139  0.00  0.00    -0.342 N 
ATOM     21  H   UNL     1     -31.053  29.503   7.290  0.00  0.00    +0.144 HD
ATOM     22  H   UNL     1     -32.185  28.385   7.903  0.00  0.00    +0.144 HD
ENDBRANCH   9  11
BRANCH   8  23
ATOM     23  O   UNL     1     -35.186  22.922   2.730  0.00  0.00    -0.378 OA
ATOM     24  H   UNL     1     -34.258  22.654   2.812  0.00  0.00    +0.211 HD
ENDBRANCH   8  23
BRANCH   1  25
ATOM     25  O   UNL     1     -39.845  24.935   4.061  0.00  0.00    -0.302 OA
ATOM     26  H   UNL     1     -39.152  25.529   4.389  0.00  0.00    +0.222 HD
ENDBRANCH   1  25
TORSDOF 3
ENDMDL
MODEL 4
REMARK VINA RESULT:      -6.1      1.849      2.494
REMARK  Name = 6076
REMARK  3 active torsions:
REMARK  status: ('A' for Active; 'I' for Inactive)
REMARK    1  A    between atoms: P_1  and  O_25
REMARK    2  A    between atoms: C_8  and  O_23
REMARK    3  A    between atoms: C_9  and  N_11
REMARK                            x       y       z     vdW  Elec       q    Type
REMARK                         _______ _______ _______ _____ _____    ______ ____
ROOT
ATOM      1  P   UNL     1     -33.858  26.261   5.152  0.00  0.00    +0.476 P 
ATOM      2  O   UNL     1     -37.044  23.914   3.409  0.00  0.00    -0.333 OA
ATOM      3  O   UNL     1     -34.213  24.700   5.443  0.00  0.00    -0.271 OA
ATOM      4  O   UNL     1     -35.210  26.913   4.529  0.00  0.00    -0.271 OA
ATOM      5  O   UNL     1     -33.312  27.000   6.340  0.00  0.00    -0.227 OA
ATOM      6  C   UNL     1     -34.973  24.049   4.451  0.00  0.00    +0.186 C 
ATOM      7  C   UNL     1     -36.269  24.797   4.219  0.00  0.00    +0.177 C 
ATOM      8  C   UNL     1     -35.491  22.667   4.775  0.00  0.00    +0.188 C 
ATOM      9  C   UNL     1     -36.704  22.565   3.831  0.00  0.00    +0.225 C 
ATOM     10  C   UNL     1     -35.993  26.155   3.606  0.00  0.00    +0.186 C 
ENDROOT
BRANCH   9  11
ATOM     11  N   UNL     1     -36.460  21.732   2.652  0.00  0.00    -0.247 N 
ATOM     12  N   UNL     1     -35.345  20.508   1.160  0.00  0.00    -0.242 NA
ATOM     13  N   UNL     1     -38.699  21.585   1.723  0.00  0.00    -0.228 NA
ATOM     14  N   UNL     1     -38.728  20.238  -0.312  0.00  0.00    -0.229 NA
ATOM     15  C   UNL     1     -37.385  21.318   1.737  0.00  0.00    +0.152 C 
ATOM     16  C   UNL     1     -35.250  21.221   2.263  0.00  0.00    +0.223 C 
ATOM     17  C   UNL     1     -36.673  20.560   0.821  0.00  0.00    +0.140 C 
ATOM     18  C   UNL     1     -37.395  20.010  -0.235  0.00  0.00    +0.143 C 
ATOM     19  C   UNL     1     -39.289  21.000   0.657  0.00  0.00    +0.253 C 
ATOM     20  N   UNL     1     -36.754  19.226  -1.209  0.00  0.00    -0.342 N 
ATOM     21  H   UNL     1     -37.274  18.841  -1.952  0.00  0.00    +0.144 HD
ATOM     22  H   UNL     1     -35.785  19.061  -1.151  0.00  0.00    +0.144 HD
ENDBRANCH   9  11
BRANCH   8  23
ATOM     23  O   UNL     1     -35.937  22.615   6.126  0.00  0.00    -0.378 OA
ATOM     24  H   UNL     1     -35.186  22.761   6.721  0.00  0.00    +0.211 HD
ENDBRANCH   8  23
BRANCH   1  25
ATOM     25  O   UNL     1     -32.835  26.212   3.897  0.00  0.00    -0.302 OA
ATOM     26  H   UNL     1     -32.769  25.303   3.568  0.00  0.00    +0.222 HD
ENDBRANCH   1  25
TORSDOF 3
ENDMDL
MODEL 5
REMARK VINA RESULT:      -6.1      5.109      7.343
REMARK  Name = 6076
REMARK  3 active torsions:
REMARK  status: ('A' for Active; 'I' for Inactive)
REMARK    1  A    between atoms: P_1  and  O_25
REMARK    2  A    between atoms: C_8  and  O_23
REMARK    3  A    between atoms: C_9  and  N_11
REMARK                            x       y       z     vdW  Elec       q    Type
REMARK                         _______ _______ _______ _____ _____    ______ ____
ROOT
ATOM      1  P   UNL     1     -33.644  18.956  -1.675  0.00  0.00    +0.476 P 
ATOM      2  O   UNL     1     -34.680  20.242   2.322  0.00  0.00    -0.333 OA
ATOM      3  O   UNL     1     -35.130  19.047  -1.016  0.00  0.00    -0.271 OA
ATOM      4  O   UNL     1     -32.608  18.906  -0.423  0.00  0.00    -0.271 OA
ATOM      5  O   UNL     1     -33.474  17.832  -2.656  0.00  0.00    -0.227 OA
ATOM      6  C   UNL     1     -35.254  19.902   0.098  0.00  0.00    +0.186 C 
ATOM      7  C   UNL     1     -34.279  19.488   1.179  0.00  0.00    +0.177 C 
ATOM      8  C   UNL     1     -36.561  19.860   0.855  0.00  0.00    +0.188 C 
ATOM      9  C   UNL     1     -36.126  20.367   2.243  0.00  0.00    +0.225 C 
ATOM     10  C   UNL     1     -32.853  19.723   0.723  0.00  0.00    +0.186 C 
ENDROOT
BRANCH   9  11
ATOM     11  N   UNL     1     -36.511  21.755   2.506  0.00  0.00    -0.247 N 
ATOM     12  N   UNL     1     -37.413  23.766   2.175  0.00  0.00    -0.242 NA
ATOM     13  N   UNL     1     -35.561  22.083   4.717  0.00  0.00    -0.228 NA
ATOM     14  N   UNL     1     -35.995  24.339   5.542  0.00  0.00    -0.229 NA
ATOM     15  C   UNL     1     -36.236  22.482   3.628  0.00  0.00    +0.152 C 
ATOM     16  C   UNL     1     -37.219  22.569   1.661  0.00  0.00    +0.223 C 
ATOM     17  C   UNL     1     -36.804  23.726   3.403  0.00  0.00    +0.140 C 
ATOM     18  C   UNL     1     -36.665  24.673   4.413  0.00  0.00    +0.143 C 
ATOM     19  C   UNL     1     -35.492  23.084   5.623  0.00  0.00    +0.253 C 
ATOM     20  N   UNL     1     -37.212  25.960   4.270  0.00  0.00    -0.342 N 
ATOM     21  H   UNL     1     -37.108  26.622   4.991  0.00  0.00    +0.144 HD
ATOM     22  H   UNL     1     -37.699  26.200   3.448  0.00  0.00    +0.144 HD
ENDBRANCH   9  11
BRANCH   8  23
ATOM     23  O   UNL     1     -37.021  18.517   0.965  0.00  0.00    -0.378 OA
ATOM     24  H   UNL     1     -37.619  18.318   0.229  0.00  0.00    +0.211 HD
ENDBRANCH   8  23
BRANCH   1  25
ATOM     25  O   UNL     1     -33.402  20.421  -2.322  0.00  0.00    -0.302 OA
ATOM     26  H   UNL     1     -32.610  20.401  -2.882  0.00  0.00    +0.222 HD
ENDBRANCH   1  25
TORSDOF 3
ENDMDL
MODEL 6
REMARK VINA RESULT:      -6.1      4.112      6.968
REMARK  Name = 6076
REMARK  3 active torsions:
REMARK  status: ('A' for Active; 'I' for Inactive)
REMARK    1  A    between atoms: P_1  and  O_25
REMARK    2  A    between atoms: C_8  and  O_23
REMARK    3  A    between atoms: C_9  and  N_11
REMARK                            x       y       z     vdW  Elec       q    Type
REMARK                         _______ _______ _______ _____ _____    ______ ____
ROOT
ATOM      1  P   UNL     1     -38.902  23.596   2.230  0.00  0.00    +0.476 P 
ATOM      2  O   UNL     1     -34.635  24.026   2.785  0.00  0.00    -0.333 OA
ATOM      3  O   UNL     1     -38.118  24.040   3.585  0.00  0.00    -0.271 OA
ATOM      4  O   UNL     1     -37.800  22.830   1.313  0.00  0.00    -0.271 OA
ATOM      5  O   UNL     1     -40.153  22.802   2.475  0.00  0.00    -0.227 OA
ATOM      6  C   UNL     1     -36.813  24.542   3.401  0.00  0.00    +0.186 C 
ATOM      7  C   UNL     1     -35.965  23.521   2.674  0.00  0.00    +0.177 C 
ATOM      8  C   UNL     1     -35.984  24.775   4.644  0.00  0.00    +0.188 C 
ATOM      9  C   UNL     1     -34.554  24.688   4.077  0.00  0.00    +0.225 C 
ATOM     10  C   UNL     1     -36.464  23.333   1.255  0.00  0.00    +0.186 C 
ENDROOT
BRANCH   9  11
ATOM     11  N   UNL     1     -33.908  25.992   3.917  0.00  0.00    -0.247 N 
ATOM     12  N   UNL     1     -33.147  27.833   2.917  0.00  0.00    -0.242 NA
ATOM     13  N   UNL     1     -33.225  26.448   6.203  0.00  0.00    -0.228 NA
ATOM     14  N   UNL     1     -32.078  28.596   6.374  0.00  0.00    -0.229 NA
ATOM     15  C   UNL     1     -33.327  26.743   4.899  0.00  0.00    +0.152 C 
ATOM     16  C   UNL     1     -33.774  26.688   2.745  0.00  0.00    +0.223 C 
ATOM     17  C   UNL     1     -32.862  27.880   4.258  0.00  0.00    +0.140 C 
ATOM     18  C   UNL     1     -32.216  28.828   5.047  0.00  0.00    +0.143 C 
ATOM     19  C   UNL     1     -32.583  27.437   6.863  0.00  0.00    +0.253 C 
ATOM     20  N   UNL     1     -31.715  30.012   4.480  0.00  0.00    -0.342 N 
ATOM     21  H   UNL     1     -31.260  30.675   5.048  0.00  0.00    +0.144 HD
ATOM     22  H   UNL     1     -31.817  30.178   3.515  0.00  0.00    +0.144 HD
ENDBRANCH   9  11
BRANCH   8  23
ATOM     23  O   UNL     1     -36.189  23.718   5.575  0.00  0.00    -0.378 OA
ATOM     24  H   UNL     1     -35.477  23.066   5.486  0.00  0.00    +0.211 HD
ENDBRANCH   8  23
BRANCH   1  25
ATOM     25  O   UNL     1     -39.164  24.987   1.444  0.00  0.00    -0.302 OA
ATOM     26  H   UNL     1     -38.316  25.413   1.247  0.00  0.00    +0.222 HD
ENDBRANCH   1  25
TORSDOF 3
ENDMDL
MODEL 7
REMARK VINA RESULT:      -6.0      2.154      3.954
REMARK  Name = 6076
REMARK  3 active torsions:
REMARK  status: ('A' for Active; 'I' for Inactive)
REMARK    1  A    between atoms: P_1  and  O_25
REMARK    2  A    between atoms: C_8  and  O_23
REMARK    3  A    between atoms: C_9  and  N_11
REMARK                            x       y       z     vdW  Elec       q    Type
REMARK                         _______ _______ _______ _____ _____    ______ ____
ROOT
ATOM      1  P   UNL     1     -34.944  25.900   5.136  0.00  0.00    +0.476 P 
ATOM      2  O   UNL     1     -36.372  22.162   3.497  0.00  0.00    -0.333 OA
ATOM      3  O   UNL     1     -35.081  25.493   3.566  0.00  0.00    -0.271 OA
ATOM      4  O   UNL     1     -34.915  24.496   5.955  0.00  0.00    -0.271 OA
ATOM      5  O   UNL     1     -33.787  26.809   5.437  0.00  0.00    -0.227 OA
ATOM      6  C   UNL     1     -35.973  24.439   3.282  0.00  0.00    +0.186 C 
ATOM      7  C   UNL     1     -35.576  23.203   4.061  0.00  0.00    +0.177 C 
ATOM      8  C   UNL     1     -35.977  23.902   1.869  0.00  0.00    +0.188 C 
ATOM      9  C   UNL     1     -36.520  22.477   2.086  0.00  0.00    +0.225 C 
ATOM     10  C   UNL     1     -35.772  23.429   5.547  0.00  0.00    +0.186 C 
ENDROOT
BRANCH   9  11
ATOM     11  N   UNL     1     -37.922  22.319   1.695  0.00  0.00    -0.247 N 
ATOM     12  N   UNL     1     -40.117  22.695   1.612  0.00  0.00    -0.242 NA
ATOM     13  N   UNL     1     -37.758  20.460   0.141  0.00  0.00    -0.228 NA
ATOM     14  N   UNL     1     -39.946  19.868  -0.767  0.00  0.00    -0.229 NA
ATOM     15  C   UNL     1     -38.429  21.402   0.820  0.00  0.00    +0.152 C 
ATOM     16  C   UNL     1     -38.974  23.073   2.145  0.00  0.00    +0.223 C 
ATOM     17  C   UNL     1     -39.792  21.652   0.782  0.00  0.00    +0.140 C 
ATOM     18  C   UNL     1     -40.558  20.841  -0.050  0.00  0.00    +0.143 C 
ATOM     19  C   UNL     1     -38.604  19.740  -0.629  0.00  0.00    +0.253 C 
ATOM     20  N   UNL     1     -41.947  21.026  -0.151  0.00  0.00    -0.342 N 
ATOM     21  H   UNL     1     -42.479  20.446  -0.743  0.00  0.00    +0.144 HD
ATOM     22  H   UNL     1     -42.390  21.734   0.371  0.00  0.00    +0.144 HD
ENDBRANCH   9  11
BRANCH   8  23
ATOM     23  O   UNL     1     -34.646  23.830   1.368  0.00  0.00    -0.378 OA
ATOM     24  H   UNL     1     -34.652  23.421   0.490  0.00  0.00    +0.211 HD
ENDBRANCH   8  23
BRANCH   1  25
ATOM     25  O   UNL     1     -36.383  26.541   5.512  0.00  0.00    -0.302 OA
ATOM     26  H   UNL     1     -36.477  26.583   6.476  0.00  0.00    +0.222 HD
ENDBRANCH   1  25
TORSDOF 3
ENDMDL
MODEL 8
REMARK VINA RESULT:      -6.0      4.104      6.900
REMARK  Name = 6076
REMARK  3 active torsions:
REMARK  status: ('A' for Active; 'I' for Inactive)
REMARK    1  A    between atoms: P_1  and  O_25
REMARK    2  A    between atoms: C_8  and  O_23
REMARK    3  A    between atoms: C_9  and  N_11
REMARK                            x       y       z     vdW  Elec       q    Type
REMARK                         _______ _______ _______ _____ _____    ______ ____
ROOT
ATOM      1  P   UNL     1     -36.972  20.614   1.222  0.00  0.00    +0.476 P 
ATOM      2  O   UNL     1     -37.072  24.680   2.691  0.00  0.00    -0.333 OA
ATOM      3  O   UNL     1     -35.799  21.738   1.111  0.00  0.00    -0.271 OA
ATOM      4  O   UNL     1     -38.349  21.437   1.481  0.00  0.00    -0.271 OA
ATOM      5  O   UNL     1     -37.032  19.671   0.054  0.00  0.00    -0.227 OA
ATOM      6  C   UNL     1     -35.879  22.798   2.036  0.00  0.00    +0.186 C 
ATOM      7  C   UNL     1     -37.218  23.494   1.912  0.00  0.00    +0.177 C 
ATOM      8  C   UNL     1     -34.930  23.958   1.837  0.00  0.00    +0.188 C 
ATOM      9  C   UNL     1     -35.686  25.096   2.548  0.00  0.00    +0.225 C 
ATOM     10  C   UNL     1     -38.336  22.570   2.351  0.00  0.00    +0.186 C 
ENDROOT
BRANCH   9  11
ATOM     11  N   UNL     1     -35.138  25.429   3.864  0.00  0.00    -0.247 N 
ATOM     12  N   UNL     1     -34.895  25.433   6.080  0.00  0.00    -0.242 NA
ATOM     13  N   UNL     1     -33.346  26.947   3.246  0.00  0.00    -0.228 NA
ATOM     14  N   UNL     1     -32.147  27.752   5.213  0.00  0.00    -0.229 NA
ATOM     15  C   UNL     1     -34.089  26.262   4.128  0.00  0.00    +0.152 C 
ATOM     16  C   UNL     1     -35.590  24.956   5.068  0.00  0.00    +0.223 C 
ATOM     17  C   UNL     1     -33.954  26.251   5.507  0.00  0.00    +0.140 C 
ATOM     18  C   UNL     1     -32.937  27.034   6.046  0.00  0.00    +0.143 C 
ATOM     19  C   UNL     1     -32.397  27.666   3.884  0.00  0.00    +0.253 C 
ATOM     20  N   UNL     1     -32.728  27.080   7.435  0.00  0.00    -0.342 N 
ATOM     21  H   UNL     1     -32.006  27.637   7.806  0.00  0.00    +0.144 HD
ATOM     22  H   UNL     1     -33.303  26.556   8.038  0.00  0.00    +0.144 HD
ENDBRANCH   9  11
BRANCH   8  23
ATOM     23  O   UNL     1     -34.813  24.262   0.451  0.00  0.00    -0.378 OA
ATOM     24  H   UNL     1     -33.895  24.496   0.247  0.00  0.00    +0.211 HD
ENDBRANCH   8  23
BRANCH   1  25
ATOM     25  O   UNL     1     -36.687  19.875   2.635  0.00  0.00    -0.302 OA
ATOM     26  H   UNL     1     -35.822  20.150   2.975  0.00  0.00    +0.222 HD
ENDBRANCH   1  25
TORSDOF 3
ENDMDL
MODEL 9
REMARK VINA RESULT:      -6.0      2.420      4.032
REMARK  Name = 6076
REMARK  3 active torsions:
REMARK  status: ('A' for Active; 'I' for Inactive)
REMARK    1  A    between atoms: P_1  and  O_25
REMARK    2  A    between atoms: C_8  and  O_23
REMARK    3  A    between atoms: C_9  and  N_11
REMARK                            x       y       z     vdW  Elec       q    Type
REMARK                         _______ _______ _______ _____ _____    ______ ____
ROOT
ATOM      1  P   UNL     1     -34.147  26.630   4.194  0.00  0.00    +0.476 P 
ATOM      2  O   UNL     1     -37.063  23.450   4.491  0.00  0.00    -0.333 OA
ATOM      3  O   UNL     1     -34.428  25.438   3.121  0.00  0.00    -0.271 OA
ATOM      4  O   UNL     1     -34.757  26.105   5.607  0.00  0.00    -0.271 OA
ATOM      5  O   UNL     1     -32.711  27.063   4.270  0.00  0.00    -0.227 OA
ATOM      6  C   UNL     1     -35.690  24.818   3.212  0.00  0.00    +0.186 C 
ATOM      7  C   UNL     1     -35.895  24.262   4.605  0.00  0.00    +0.177 C 
ATOM      8  C   UNL     1     -35.912  23.581   2.371  0.00  0.00    +0.188 C 
ATOM      9  C   UNL     1     -37.034  22.876   3.155  0.00  0.00    +0.225 C 
ATOM     10  C   UNL     1     -35.992  25.388   5.614  0.00  0.00    +0.186 C 
ENDROOT
BRANCH   9  11
ATOM     11  N   UNL     1     -38.354  23.012   2.538  0.00  0.00    -0.247 N 
ATOM     12  N   UNL     1     -40.212  22.446   1.443  0.00  0.00    -0.242 NA
ATOM     13  N   UNL     1     -38.837  25.348   2.997  0.00  0.00    -0.228 NA
ATOM     14  N   UNL     1     -41.016  25.995   2.107  0.00  0.00    -0.229 NA
ATOM     15  C   UNL     1     -39.125  24.139   2.492  0.00  0.00    +0.152 C 
ATOM     16  C   UNL     1     -39.049  22.023   1.894  0.00  0.00    +0.223 C 
ATOM     17  C   UNL     1     -40.272  23.767   1.809  0.00  0.00    +0.140 C 
ATOM     18  C   UNL     1     -41.239  24.750   1.623  0.00  0.00    +0.143 C 
ATOM     19  C   UNL     1     -39.846  26.214   2.755  0.00  0.00    +0.253 C 
ATOM     20  N   UNL     1     -42.434  24.459   0.943  0.00  0.00    -0.342 N 
ATOM     21  H   UNL     1     -43.112  25.163   0.816  0.00  0.00    +0.144 HD
ATOM     22  H   UNL     1     -42.595  23.553   0.592  0.00  0.00    +0.144 HD
ENDBRANCH   9  11
BRANCH   8  23
ATOM     23  O   UNL     1     -34.744  22.767   2.381  0.00  0.00    -0.378 OA
ATOM     24  H   UNL     1     -34.988  21.849   2.186  0.00  0.00    +0.211 HD
ENDBRANCH   8  23
BRANCH   1  25
ATOM     25  O   UNL     1     -35.158  27.815   3.750  0.00  0.00    -0.302 OA
ATOM     26  H   UNL     1     -34.661  28.506   3.285  0.00  0.00    +0.222 HD
ENDBRANCH   1  25
TORSDOF 3
ENDMDL
