MODEL 1
REMARK VINA RESULT:      -7.0      0.000      0.000
REMARK  Name = 59053149
REMARK  9 active torsions:
REMARK  status: ('A' for Active; 'I' for Inactive)
REMARK    1  A    between atoms: N_2  and  C_8
REMARK    2  A    between atoms: C_5  and  C_21
REMARK    3  A    between atoms: C_8  and  C_9
REMARK    4  A    between atoms: C_9  and  C_10
REMARK    5  A    between atoms: C_10  and  C_11
REMARK    6  A    between atoms: C_11  and  C_12
REMARK    7  A    between atoms: C_12  and  N_13
REMARK    8  A    between atoms: N_13  and  C_16
REMARK    9  A    between atoms: C_21  and  C_24
REMARK                            x       y       z     vdW  Elec       q    Type
REMARK                         _______ _______ _______ _____ _____    ______ ____
ROOT
ATOM      1  O   UNL     1     -35.226  20.553   3.774  0.00  0.00    -0.314 OA
ATOM      2  N   UNL     1     -35.815  23.474   5.603  0.00  0.00    -0.266 N 
ATOM      3  N   UNL     1     -35.791  22.683   3.375  0.00  0.00    -0.300 NA
ATOM      4  N   UNL     1     -35.287  21.182   5.024  0.00  0.00    +0.008 NA
ATOM      5  C   UNL     1     -35.536  21.509   2.858  0.00  0.00    +0.300 C 
ATOM      6  C   UNL     1     -35.625  22.434   4.706  0.00  0.00    +0.183 C 
ATOM      7  H   UNL     1     -35.694  23.288   6.562  0.00  0.00    +0.159 HD
ENDROOT
BRANCH   2   8
ATOM      8  C   UNL     1     -36.179  24.813   5.211  0.00  0.00    +0.098 C 
BRANCH   8   9
ATOM      9  C   UNL     1     -35.061  25.799   5.544  0.00  0.00    +0.022 C 
BRANCH   9  10
ATOM     10  C   UNL     1     -33.934  25.788   4.506  0.00  0.00    +0.004 C 
BRANCH  10  11
ATOM     11  C   UNL     1     -33.791  27.156   3.831  0.00  0.00    +0.026 C 
BRANCH  11  12
ATOM     12  C   UNL     1     -32.463  27.831   4.158  0.00  0.00    +0.129 C 
BRANCH  12  13
ATOM     13  N   UNL     1     -32.587  28.598   5.398  0.00  0.00    -0.240 NA
BRANCH  13  16
ATOM     14  N   UNL     1     -32.542  27.458   7.512  0.00  0.00    -0.370 N 
ATOM     15  N   UNL     1     -30.621  28.249   6.575  0.00  0.00    -0.370 N 
ATOM     16  C   UNL     1     -31.983  28.121   6.442  0.00  0.00    +0.189 C 
ATOM     17  H   UNL     1     -33.513  27.300   7.540  0.00  0.00    +0.159 HD
ATOM     18  H   UNL     1     -31.970  27.142   8.248  0.00  0.00    +0.159 HD
ATOM     19  H   UNL     1     -30.099  28.705   5.877  0.00  0.00    +0.159 HD
ATOM     20  H   UNL     1     -30.167  27.884   7.369  0.00  0.00    +0.159 HD
ENDBRANCH  13  16
ENDBRANCH  12  13
ENDBRANCH  11  12
ENDBRANCH  10  11
ENDBRANCH   9  10
ENDBRANCH   8   9
ENDBRANCH   2   8
BRANCH   5  21
ATOM     21  C   UNL     1     -35.540  21.089   1.450  0.00  0.00    +0.130 C 
BRANCH  21  24
ATOM     22 BR   UNL     1     -29.515  17.154   0.358  0.00  0.00    -0.049 Br
ATOM     23  N   UNL     1     -32.366  21.645  -0.366  0.00  0.00    -0.312 N 
ATOM     24  C   UNL     1     -34.164  21.053   0.794  0.00  0.00    +0.004 C 
ATOM     25  C   UNL     1     -33.230  19.980   0.841  0.00  0.00    +0.011 C 
ATOM     26  C   UNL     1     -32.111  20.377   0.107  0.00  0.00    +0.049 C 
ATOM     27  C   UNL     1     -33.604  22.061   0.044  0.00  0.00    +0.058 C 
ATOM     28  C   UNL     1     -33.229  18.706   1.442  0.00  0.00    +0.001 C 
ATOM     29  C   UNL     1     -30.987  19.560  -0.058  0.00  0.00    +0.021 C 
ATOM     30  C   UNL     1     -32.112  17.878   1.287  0.00  0.00    +0.007 C 
ATOM     31  C   UNL     1     -31.009  18.300   0.547  0.00  0.00    +0.036 C 
ATOM     32  H   UNL     1     -31.747  22.176  -0.919  0.00  0.00    +0.152 HD
ENDBRANCH  21  24
ENDBRANCH   5  21
TORSDOF 9
ENDMDL
MODEL 2
REMARK VINA RESULT:      -6.9      3.162      5.145
REMARK  Name = 59053149
REMARK  9 active torsions:
REMARK  status: ('A' for Active; 'I' for Inactive)
REMARK    1  A    between atoms: N_2  and  C_8
REMARK    2  A    between atoms: C_5  and  C_21
REMARK    3  A    between atoms: C_8  and  C_9
REMARK    4  A    between atoms: C_9  and  C_10
REMARK    5  A    between atoms: C_10  and  C_11
REMARK    6  A    between atoms: C_11  and  C_12
REMARK    7  A    between atoms: C_12  and  N_13
REMARK    8  A    between atoms: N_13  and  C_16
REMARK    9  A    between atoms: C_21  and  C_24
REMARK                            x       y       z     vdW  Elec       q    Type
REMARK                         _______ _______ _______ _____ _____    ______ ____
ROOT
ATOM      1  O   UNL     1     -33.374  25.535   4.861  0.00  0.00    -0.314 OA
ATOM      2  N   UNL     1     -33.499  28.528   3.059  0.00  0.00    -0.266 N 
ATOM      3  N   UNL     1     -34.901  27.067   4.282  0.00  0.00    -0.300 NA
ATOM      4  N   UNL     1     -32.691  26.500   4.111  0.00  0.00    +0.008 NA
ATOM      5  C   UNL     1     -34.669  25.945   4.913  0.00  0.00    +0.300 C 
ATOM      6  C   UNL     1     -33.659  27.370   3.805  0.00  0.00    +0.183 C 
ATOM      7  H   UNL     1     -32.601  28.741   2.718  0.00  0.00    +0.159 HD
ENDROOT
BRANCH   2   8
ATOM      8  C   UNL     1     -34.576  29.437   2.752  0.00  0.00    +0.098 C 
BRANCH   8   9
ATOM      9  C   UNL     1     -34.219  30.862   3.169  0.00  0.00    +0.022 C 
BRANCH   9  10
ATOM     10  C   UNL     1     -32.752  31.208   2.893  0.00  0.00    +0.004 C 
BRANCH  10  11
ATOM     11  C   UNL     1     -32.027  31.607   4.182  0.00  0.00    +0.026 C 
BRANCH  11  12
ATOM     12  C   UNL     1     -31.321  30.428   4.843  0.00  0.00    +0.129 C 
BRANCH  12  13
ATOM     13  N   UNL     1     -32.227  29.773   5.788  0.00  0.00    -0.240 NA
BRANCH  13  16
ATOM     14  N   UNL     1     -30.574  29.263   7.455  0.00  0.00    -0.370 N 
ATOM     15  N   UNL     1     -32.217  27.767   6.949  0.00  0.00    -0.370 N 
ATOM     16  C   UNL     1     -31.683  29.005   6.681  0.00  0.00    +0.189 C 
ATOM     17  H   UNL     1     -30.096  30.119   7.361  0.00  0.00    +0.159 HD
ATOM     18  H   UNL     1     -30.260  28.592   8.103  0.00  0.00    +0.159 HD
ATOM     19  H   UNL     1     -33.015  27.458   6.462  0.00  0.00    +0.159 HD
ATOM     20  H   UNL     1     -31.801  27.188   7.628  0.00  0.00    +0.159 HD
ENDBRANCH  13  16
ENDBRANCH  12  13
ENDBRANCH  11  12
ENDBRANCH  10  11
ENDBRANCH   9  10
ENDBRANCH   8   9
ENDBRANCH   2   8
BRANCH   5  21
ATOM     21  C   UNL     1     -35.599  25.084   5.656  0.00  0.00    +0.130 C 
BRANCH  21  24
ATOM     22 BR   UNL     1     -35.381  20.244   0.225  0.00  0.00    -0.049 Br
ATOM     23  N   UNL     1     -35.412  21.395   5.469  0.00  0.00    -0.312 N 
ATOM     24  C   UNL     1     -35.525  23.605   5.293  0.00  0.00    +0.004 C 
ATOM     25  C   UNL     1     -35.503  23.055   3.981  0.00  0.00    +0.011 C 
ATOM     26  C   UNL     1     -35.432  21.668   4.119  0.00  0.00    +0.049 C 
ATOM     27  C   UNL     1     -35.467  22.560   6.186  0.00  0.00    +0.058 C 
ATOM     28  C   UNL     1     -35.538  23.606   2.685  0.00  0.00    +0.001 C 
ATOM     29  C   UNL     1     -35.393  20.800   3.021  0.00  0.00    +0.021 C 
ATOM     30  C   UNL     1     -35.501  22.751   1.578  0.00  0.00    +0.007 C 
ATOM     31  C   UNL     1     -35.430  21.370   1.745  0.00  0.00    +0.036 C 
ATOM     32  H   UNL     1     -35.364  20.493   5.861  0.00  0.00    +0.152 HD
ENDBRANCH  21  24
ENDBRANCH   5  21
TORSDOF 9
ENDMDL
MODEL 3
REMARK VINA RESULT:      -6.9      1.820      2.191
REMARK  Name = 59053149
REMARK  9 active torsions:
REMARK  status: ('A' for Active; 'I' for Inactive)
REMARK    1  A    between atoms: N_2  and  C_8
REMARK    2  A    between atoms: C_5  and  C_21
REMARK    3  A    between atoms: C_8  and  C_9
REMARK    4  A    between atoms: C_9  and  C_10
REMARK    5  A    between atoms: C_10  and  C_11
REMARK    6  A    between atoms: C_11  and  C_12
REMARK    7  A    between atoms: C_12  and  N_13
REMARK    8  A    between atoms: N_13  and  C_16
REMARK    9  A    between atoms: C_21  and  C_24
REMARK                            x       y       z     vdW  Elec       q    Type
REMARK                         _______ _______ _______ _____ _____    ______ ____
ROOT
ATOM      1  O   UNL     1     -35.175  20.493   4.194  0.00  0.00    -0.314 OA
ATOM      2  N   UNL     1     -35.945  23.633   5.525  0.00  0.00    -0.266 N 
ATOM      3  N   UNL     1     -35.897  22.482   3.460  0.00  0.00    -0.300 NA
ATOM      4  N   UNL     1     -35.263  21.317   5.324  0.00  0.00    +0.008 NA
ATOM      5  C   UNL     1     -35.567  21.257   3.140  0.00  0.00    +0.300 C 
ATOM      6  C   UNL     1     -35.695  22.472   4.809  0.00  0.00    +0.183 C 
ATOM      7  H   UNL     1     -35.797  23.620   6.498  0.00  0.00    +0.159 HD
ENDROOT
BRANCH   2   8
ATOM      8  C   UNL     1     -36.409  24.859   4.924  0.00  0.00    +0.098 C 
BRANCH   8   9
ATOM      9  C   UNL     1     -35.753  26.069   5.585  0.00  0.00    +0.022 C 
BRANCH   9  10
ATOM     10  C   UNL     1     -34.223  26.027   5.509  0.00  0.00    +0.004 C 
BRANCH  10  11
ATOM     11  C   UNL     1     -33.745  25.880   4.061  0.00  0.00    +0.026 C 
BRANCH  11  12
ATOM     12  C   UNL     1     -33.201  27.186   3.491  0.00  0.00    +0.129 C 
BRANCH  12  13
ATOM     13  N   UNL     1     -34.012  27.605   2.348  0.00  0.00    -0.240 NA
BRANCH  13  16
ATOM     14  N   UNL     1     -35.233  29.490   3.201  0.00  0.00    -0.370 N 
ATOM     15  N   UNL     1     -36.327  27.705   2.302  0.00  0.00    -0.370 N 
ATOM     16  C   UNL     1     -35.105  28.251   2.613  0.00  0.00    +0.189 C 
ATOM     17  H   UNL     1     -34.430  29.991   3.473  0.00  0.00    +0.159 HD
ATOM     18  H   UNL     1     -36.127  29.875   3.348  0.00  0.00    +0.159 HD
ATOM     19  H   UNL     1     -36.377  26.819   1.876  0.00  0.00    +0.159 HD
ATOM     20  H   UNL     1     -37.155  28.200   2.505  0.00  0.00    +0.159 HD
ENDBRANCH  13  16
ENDBRANCH  12  13
ENDBRANCH  11  12
ENDBRANCH  10  11
ENDBRANCH   9  10
ENDBRANCH   8   9
ENDBRANCH   2   8
BRANCH   5  21
ATOM     21  C   UNL     1     -35.560  20.607   1.823  0.00  0.00    +0.130 C 
BRANCH  21  24
ATOM     22 BR   UNL     1     -29.248  17.490  -0.028  0.00  0.00    -0.049 Br
ATOM     23  N   UNL     1     -32.669  21.622  -0.248  0.00  0.00    -0.312 N 
ATOM     24  C   UNL     1     -34.261  20.767   1.040  0.00  0.00    +0.004 C 
ATOM     25  C   UNL     1     -33.207  19.816   0.945  0.00  0.00    +0.011 C 
ATOM     26  C   UNL     1     -32.221  20.377   0.132  0.00  0.00    +0.049 C 
ATOM     27  C   UNL     1     -33.902  21.866   0.295  0.00  0.00    +0.058 C 
ATOM     28  C   UNL     1     -32.995  18.528   1.476  0.00  0.00    +0.001 C 
ATOM     29  C   UNL     1     -31.029  19.712  -0.179  0.00  0.00    +0.021 C 
ATOM     30  C   UNL     1     -31.809  17.851   1.174  0.00  0.00    +0.007 C 
ATOM     31  C   UNL     1     -30.842  18.436   0.359  0.00  0.00    +0.036 C 
ATOM     32  H   UNL     1     -32.175  22.247  -0.828  0.00  0.00    +0.152 HD
ENDBRANCH  21  24
ENDBRANCH   5  21
TORSDOF 9
ENDMDL
MODEL 4
REMARK VINA RESULT:      -6.7      2.981      3.842
REMARK  Name = 59053149
REMARK  9 active torsions:
REMARK  status: ('A' for Active; 'I' for Inactive)
REMARK    1  A    between atoms: N_2  and  C_8
REMARK    2  A    between atoms: C_5  and  C_21
REMARK    3  A    between atoms: C_8  and  C_9
REMARK    4  A    between atoms: C_9  and  C_10
REMARK    5  A    between atoms: C_10  and  C_11
REMARK    6  A    between atoms: C_11  and  C_12
REMARK    7  A    between atoms: C_12  and  N_13
REMARK    8  A    between atoms: N_13  and  C_16
REMARK    9  A    between atoms: C_21  and  C_24
REMARK                            x       y       z     vdW  Elec       q    Type
REMARK                         _______ _______ _______ _____ _____    ______ ____
ROOT
ATOM      1  O   UNL     1     -36.375  20.810   1.152  0.00  0.00    -0.314 OA
ATOM      2  N   UNL     1     -36.254  21.997   4.438  0.00  0.00    -0.266 N 
ATOM      3  N   UNL     1     -35.109  20.531   2.978  0.00  0.00    -0.300 NA
ATOM      4  N   UNL     1     -36.930  21.632   2.141  0.00  0.00    +0.008 NA
ATOM      5  C   UNL     1     -35.307  20.197   1.728  0.00  0.00    +0.300 C 
ATOM      6  C   UNL     1     -36.129  21.412   3.187  0.00  0.00    +0.183 C 
ATOM      7  H   UNL     1     -36.992  22.631   4.583  0.00  0.00    +0.159 HD
ENDROOT
BRANCH   2   8
ATOM      8  C   UNL     1     -35.363  21.725   5.540  0.00  0.00    +0.098 C 
BRANCH   8   9
ATOM      9  C   UNL     1     -35.010  23.013   6.282  0.00  0.00    +0.022 C 
BRANCH   9  10
ATOM     10  C   UNL     1     -34.631  24.156   5.334  0.00  0.00    +0.004 C 
BRANCH  10  11
ATOM     11  C   UNL     1     -35.485  25.399   5.599  0.00  0.00    +0.026 C 
BRANCH  11  12
ATOM     12  C   UNL     1     -36.404  25.736   4.429  0.00  0.00    +0.129 C 
BRANCH  12  13
ATOM     13  N   UNL     1     -37.386  24.667   4.245  0.00  0.00    -0.240 NA
BRANCH  13  16
ATOM     14  N   UNL     1     -38.924  26.182   3.192  0.00  0.00    -0.370 N 
ATOM     15  N   UNL     1     -39.145  23.930   2.928  0.00  0.00    -0.370 N 
ATOM     16  C   UNL     1     -38.416  24.941   3.507  0.00  0.00    +0.189 C 
ATOM     17  H   UNL     1     -38.493  26.994   3.545  0.00  0.00    +0.159 HD
ATOM     18  H   UNL     1     -39.718  26.257   2.615  0.00  0.00    +0.159 HD
ATOM     19  H   UNL     1     -38.887  22.991   3.074  0.00  0.00    +0.159 HD
ATOM     20  H   UNL     1     -39.926  24.143   2.367  0.00  0.00    +0.159 HD
ENDBRANCH  13  16
ENDBRANCH  12  13
ENDBRANCH  11  12
ENDBRANCH  10  11
ENDBRANCH   9  10
ENDBRANCH   8   9
ENDBRANCH   2   8
BRANCH   5  21
ATOM     21  C   UNL     1     -34.548  19.269   0.879  0.00  0.00    +0.130 C 
BRANCH  21  24
ATOM     22 BR   UNL     1     -27.404  18.139   0.064  0.00  0.00    -0.049 Br
ATOM     23  N   UNL     1     -31.773  21.177  -0.651  0.00  0.00    -0.312 N 
ATOM     24  C   UNL     1     -33.241  19.832   0.331  0.00  0.00    +0.004 C 
ATOM     25  C   UNL     1     -31.960  19.217   0.398  0.00  0.00    +0.011 C 
ATOM     26  C   UNL     1     -31.057  20.080  -0.226  0.00  0.00    +0.049 C 
ATOM     27  C   UNL     1     -33.094  21.035  -0.320  0.00  0.00    +0.058 C 
ATOM     28  C   UNL     1     -31.480  18.004   0.931  0.00  0.00    +0.001 C 
ATOM     29  C   UNL     1     -29.693  19.791  -0.343  0.00  0.00    +0.021 C 
ATOM     30  C   UNL     1     -30.118  17.701   0.821  0.00  0.00    +0.007 C 
ATOM     31  C   UNL     1     -29.240  18.582   0.193  0.00  0.00    +0.036 C 
ATOM     32  H   UNL     1     -31.391  21.950  -1.126  0.00  0.00    +0.152 HD
ENDBRANCH  21  24
ENDBRANCH   5  21
TORSDOF 9
ENDMDL
MODEL 5
REMARK VINA RESULT:      -6.5      3.220      5.470
REMARK  Name = 59053149
REMARK  9 active torsions:
REMARK  status: ('A' for Active; 'I' for Inactive)
REMARK    1  A    between atoms: N_2  and  C_8
REMARK    2  A    between atoms: C_5  and  C_21
REMARK    3  A    between atoms: C_8  and  C_9
REMARK    4  A    between atoms: C_9  and  C_10
REMARK    5  A    between atoms: C_10  and  C_11
REMARK    6  A    between atoms: C_11  and  C_12
REMARK    7  A    between atoms: C_12  and  N_13
REMARK    8  A    between atoms: N_13  and  C_16
REMARK    9  A    between atoms: C_21  and  C_24
REMARK                            x       y       z     vdW  Elec       q    Type
REMARK                         _______ _______ _______ _____ _____    ______ ____
ROOT
ATOM      1  O   UNL     1     -34.140  25.716   3.882  0.00  0.00    -0.314 OA
ATOM      2  N   UNL     1     -32.015  27.981   5.487  0.00  0.00    -0.266 N 
ATOM      3  N   UNL     1     -33.877  26.591   5.927  0.00  0.00    -0.300 NA
ATOM      4  N   UNL     1     -33.046  26.587   3.796  0.00  0.00    +0.008 NA
ATOM      5  C   UNL     1     -34.569  25.779   5.170  0.00  0.00    +0.300 C 
ATOM      6  C   UNL     1     -32.954  27.064   5.041  0.00  0.00    +0.183 C 
ATOM      7  H   UNL     1     -31.352  28.319   4.843  0.00  0.00    +0.159 HD
ENDROOT
BRANCH   2   8
ATOM      8  C   UNL     1     -31.956  28.470   6.843  0.00  0.00    +0.098 C 
BRANCH   8   9
ATOM      9  C   UNL     1     -31.520  29.933   6.874  0.00  0.00    +0.022 C 
BRANCH   9  10
ATOM     10  C   UNL     1     -30.786  30.358   5.598  0.00  0.00    +0.004 C 
BRANCH  10  11
ATOM     11  C   UNL     1     -31.543  31.473   4.870  0.00  0.00    +0.026 C 
BRANCH  11  12
ATOM     12  C   UNL     1     -32.251  30.974   3.614  0.00  0.00    +0.129 C 
BRANCH  12  13
ATOM     13  N   UNL     1     -33.539  30.379   3.974  0.00  0.00    -0.240 NA
BRANCH  13  16
ATOM     14  N   UNL     1     -34.331  30.420   1.705  0.00  0.00    -0.370 N 
ATOM     15  N   UNL     1     -35.126  28.883   3.188  0.00  0.00    -0.370 N 
ATOM     16  C   UNL     1     -34.274  29.944   2.997  0.00  0.00    +0.189 C 
ATOM     17  H   UNL     1     -33.767  31.181   1.436  0.00  0.00    +0.159 HD
ATOM     18  H   UNL     1     -34.934  29.998   1.052  0.00  0.00    +0.159 HD
ATOM     19  H   UNL     1     -35.182  28.449   4.070  0.00  0.00    +0.159 HD
ATOM     20  H   UNL     1     -35.681  28.556   2.444  0.00  0.00    +0.159 HD
ENDBRANCH  13  16
ENDBRANCH  12  13
ENDBRANCH  11  12
ENDBRANCH  10  11
ENDBRANCH   9  10
ENDBRANCH   8   9
ENDBRANCH   2   8
BRANCH   5  21
ATOM     21  C   UNL     1     -35.726  24.941   5.516  0.00  0.00    +0.130 C 
BRANCH  21  24
ATOM     22 BR   UNL     1     -35.710  19.827   0.337  0.00  0.00    -0.049 Br
ATOM     23  N   UNL     1     -35.188  21.282   5.479  0.00  0.00    -0.312 N 
ATOM     24  C   UNL     1     -35.548  23.457   5.216  0.00  0.00    +0.004 C 
ATOM     25  C   UNL     1     -35.638  22.834   3.940  0.00  0.00    +0.011 C 
ATOM     26  C   UNL     1     -35.408  21.470   4.132  0.00  0.00    +0.049 C 
ATOM     27  C   UNL     1     -35.270  22.477   6.142  0.00  0.00    +0.058 C 
ATOM     28  C   UNL     1     -35.895  23.300   2.636  0.00  0.00    +0.001 C 
ATOM     29  C   UNL     1     -35.422  20.546   3.081  0.00  0.00    +0.021 C 
ATOM     30  C   UNL     1     -35.912  22.388   1.575  0.00  0.00    +0.007 C 
ATOM     31  C   UNL     1     -35.679  21.032   1.796  0.00  0.00    +0.036 C 
ATOM     32  H   UNL     1     -34.998  20.414   5.903  0.00  0.00    +0.152 HD
ENDBRANCH  21  24
ENDBRANCH   5  21
TORSDOF 9
ENDMDL
MODEL 6
REMARK VINA RESULT:      -6.5      4.789      6.404
REMARK  Name = 59053149
REMARK  9 active torsions:
REMARK  status: ('A' for Active; 'I' for Inactive)
REMARK    1  A    between atoms: N_2  and  C_8
REMARK    2  A    between atoms: C_5  and  C_21
REMARK    3  A    between atoms: C_8  and  C_9
REMARK    4  A    between atoms: C_9  and  C_10
REMARK    5  A    between atoms: C_10  and  C_11
REMARK    6  A    between atoms: C_11  and  C_12
REMARK    7  A    between atoms: C_12  and  N_13
REMARK    8  A    between atoms: N_13  and  C_16
REMARK    9  A    between atoms: C_21  and  C_24
REMARK                            x       y       z     vdW  Elec       q    Type
REMARK                         _______ _______ _______ _____ _____    ______ ____
ROOT
ATOM      1  O   UNL     1     -33.279  25.762   4.596  0.00  0.00    -0.314 OA
ATOM      2  N   UNL     1     -33.172  28.827   2.918  0.00  0.00    -0.266 N 
ATOM      3  N   UNL     1     -34.655  27.476   4.170  0.00  0.00    -0.300 NA
ATOM      4  N   UNL     1     -32.537  26.679   3.841  0.00  0.00    +0.008 NA
ATOM      5  C   UNL     1     -34.515  26.309   4.744  0.00  0.00    +0.300 C 
ATOM      6  C   UNL     1     -33.417  27.662   3.629  0.00  0.00    +0.183 C 
ATOM      7  H   UNL     1     -32.277  28.955   2.530  0.00  0.00    +0.159 HD
ENDROOT
BRANCH   2   8
ATOM      8  C   UNL     1     -34.157  29.861   2.713  0.00  0.00    +0.098 C 
BRANCH   8   9
ATOM      9  C   UNL     1     -33.508  31.242   2.749  0.00  0.00    +0.022 C 
BRANCH   9  10
ATOM     10  C   UNL     1     -31.986  31.177   2.914  0.00  0.00    +0.004 C 
BRANCH  10  11
ATOM     11  C   UNL     1     -31.555  31.718   4.281  0.00  0.00    +0.026 C 
BRANCH  11  12
ATOM     12  C   UNL     1     -31.019  30.624   5.199  0.00  0.00    +0.129 C 
BRANCH  12  13
ATOM     13  N   UNL     1     -32.133  29.897   5.808  0.00  0.00    -0.240 NA
BRANCH  13  16
ATOM     14  N   UNL     1     -32.082  27.719   6.821  0.00  0.00    -0.370 N 
ATOM     15  N   UNL     1     -31.204  29.524   7.898  0.00  0.00    -0.370 N 
ATOM     16  C   UNL     1     -31.838  29.073   6.766  0.00  0.00    +0.189 C 
ATOM     17  H   UNL     1     -32.533  27.269   6.070  0.00  0.00    +0.159 HD
ATOM     18  H   UNL     1     -31.806  27.201   7.611  0.00  0.00    +0.159 HD
ATOM     19  H   UNL     1     -30.971  30.477   7.986  0.00  0.00    +0.159 HD
ATOM     20  H   UNL     1     -30.981  28.895   8.623  0.00  0.00    +0.159 HD
ENDBRANCH  13  16
ENDBRANCH  12  13
ENDBRANCH  11  12
ENDBRANCH  10  11
ENDBRANCH   9  10
ENDBRANCH   8   9
ENDBRANCH   2   8
BRANCH   5  21
ATOM     21  C   UNL     1     -35.491  25.523   5.511  0.00  0.00    +0.130 C 
BRANCH  21  24
ATOM     22 BR   UNL     1     -40.304  23.461   0.456  0.00  0.00    -0.049 Br
ATOM     23  N   UNL     1     -36.510  22.275   4.065  0.00  0.00    -0.312 N 
ATOM     24  C   UNL     1     -36.092  24.343   4.756  0.00  0.00    +0.004 C 
ATOM     25  C   UNL     1     -37.104  24.403   3.757  0.00  0.00    +0.011 C 
ATOM     26  C   UNL     1     -37.348  23.093   3.340  0.00  0.00    +0.049 C 
ATOM     27  C   UNL     1     -35.747  23.022   4.922  0.00  0.00    +0.058 C 
ATOM     28  C   UNL     1     -37.840  25.450   3.167  0.00  0.00    +0.001 C 
ATOM     29  C   UNL     1     -38.294  22.776   2.359  0.00  0.00    +0.021 C 
ATOM     30  C   UNL     1     -38.789  25.148   2.184  0.00  0.00    +0.007 C 
ATOM     31  C   UNL     1     -39.011  23.831   1.788  0.00  0.00    +0.036 C 
ATOM     32  H   UNL     1     -36.466  21.295   3.978  0.00  0.00    +0.152 HD
ENDBRANCH  21  24
ENDBRANCH   5  21
TORSDOF 9
ENDMDL
MODEL 7
REMARK VINA RESULT:      -6.4      2.937      3.946
REMARK  Name = 59053149
REMARK  9 active torsions:
REMARK  status: ('A' for Active; 'I' for Inactive)
REMARK    1  A    between atoms: N_2  and  C_8
REMARK    2  A    between atoms: C_5  and  C_21
REMARK    3  A    between atoms: C_8  and  C_9
REMARK    4  A    between atoms: C_9  and  C_10
REMARK    5  A    between atoms: C_10  and  C_11
REMARK    6  A    between atoms: C_11  and  C_12
REMARK    7  A    between atoms: C_12  and  N_13
REMARK    8  A    between atoms: N_13  and  C_16
REMARK    9  A    between atoms: C_21  and  C_24
REMARK                            x       y       z     vdW  Elec       q    Type
REMARK                         _______ _______ _______ _____ _____    ______ ____
ROOT
ATOM      1  O   UNL     1     -36.233  21.855   0.726  0.00  0.00    -0.314 OA
ATOM      2  N   UNL     1     -36.352  21.998   4.217  0.00  0.00    -0.266 N 
ATOM      3  N   UNL     1     -34.935  21.290   2.462  0.00  0.00    -0.300 NA
ATOM      4  N   UNL     1     -36.942  22.218   1.878  0.00  0.00    +0.008 NA
ATOM      5  C   UNL     1     -35.062  21.316   1.160  0.00  0.00    +0.300 C 
ATOM      6  C   UNL     1     -36.112  21.853   2.859  0.00  0.00    +0.183 C 
ATOM      7  H   UNL     1     -37.203  22.405   4.498  0.00  0.00    +0.159 HD
ENDROOT
BRANCH   2   8
ATOM      8  C   UNL     1     -35.425  21.586   5.242  0.00  0.00    +0.098 C 
BRANCH   8   9
ATOM      9  C   UNL     1     -34.938  22.788   6.048  0.00  0.00    +0.022 C 
BRANCH   9  10
ATOM     10  C   UNL     1     -34.508  23.960   5.161  0.00  0.00    +0.004 C 
BRANCH  10  11
ATOM     11  C   UNL     1     -35.047  25.289   5.700  0.00  0.00    +0.026 C 
BRANCH  11  12
ATOM     12  C   UNL     1     -36.104  25.903   4.788  0.00  0.00    +0.129 C 
BRANCH  12  13
ATOM     13  N   UNL     1     -37.133  24.909   4.481  0.00  0.00    -0.240 NA
BRANCH  13  16
ATOM     14  N   UNL     1     -39.402  24.809   3.696  0.00  0.00    -0.370 N 
ATOM     15  N   UNL     1     -37.935  26.321   2.827  0.00  0.00    -0.370 N 
ATOM     16  C   UNL     1     -38.115  25.299   3.728  0.00  0.00    +0.189 C 
ATOM     17  H   UNL     1     -39.663  24.073   4.295  0.00  0.00    +0.159 HD
ATOM     18  H   UNL     1     -40.060  25.196   3.075  0.00  0.00    +0.159 HD
ATOM     19  H   UNL     1     -37.058  26.760   2.749  0.00  0.00    +0.159 HD
ATOM     20  H   UNL     1     -38.684  26.615   2.258  0.00  0.00    +0.159 HD
ENDBRANCH  13  16
ENDBRANCH  12  13
ENDBRANCH  11  12
ENDBRANCH  10  11
ENDBRANCH   9  10
ENDBRANCH   8   9
ENDBRANCH   2   8
BRANCH   5  21
ATOM     21  C   UNL     1     -34.131  20.852   0.122  0.00  0.00    +0.130 C 
BRANCH  21  24
ATOM     22 BR   UNL     1     -27.322  18.300  -0.181  0.00  0.00    -0.049 Br
ATOM     23  N   UNL     1     -32.396  17.905   1.529  0.00  0.00    -0.312 N 
ATOM     24  C   UNL     1     -33.184  19.744   0.567  0.00  0.00    +0.004 C 
ATOM     25  C   UNL     1     -31.802  19.630   0.246  0.00  0.00    +0.011 C 
ATOM     26  C   UNL     1     -31.332  18.469   0.861  0.00  0.00    +0.049 C 
ATOM     27  C   UNL     1     -33.519  18.669   1.358  0.00  0.00    +0.058 C 
ATOM     28  C   UNL     1     -30.904  20.406  -0.514  0.00  0.00    +0.001 C 
ATOM     29  C   UNL     1     -30.003  18.042   0.755  0.00  0.00    +0.021 C 
ATOM     30  C   UNL     1     -29.572  19.992  -0.629  0.00  0.00    +0.007 C 
ATOM     31  C   UNL     1     -29.131  18.828  -0.003  0.00  0.00    +0.036 C 
ATOM     32  H   UNL     1     -32.355  17.073   2.055  0.00  0.00    +0.152 HD
ENDBRANCH  21  24
ENDBRANCH   5  21
TORSDOF 9
ENDMDL
MODEL 8
REMARK VINA RESULT:      -6.4      3.024      4.017
REMARK  Name = 59053149
REMARK  9 active torsions:
REMARK  status: ('A' for Active; 'I' for Inactive)
REMARK    1  A    between atoms: N_2  and  C_8
REMARK    2  A    between atoms: C_5  and  C_21
REMARK    3  A    between atoms: C_8  and  C_9
REMARK    4  A    between atoms: C_9  and  C_10
REMARK    5  A    between atoms: C_10  and  C_11
REMARK    6  A    between atoms: C_11  and  C_12
REMARK    7  A    between atoms: C_12  and  N_13
REMARK    8  A    between atoms: N_13  and  C_16
REMARK    9  A    between atoms: C_21  and  C_24
REMARK                            x       y       z     vdW  Elec       q    Type
REMARK                         _______ _______ _______ _____ _____    ______ ____
ROOT
ATOM      1  O   UNL     1     -36.911  20.990   1.224  0.00  0.00    -0.314 OA
ATOM      2  N   UNL     1     -36.257  22.132   4.463  0.00  0.00    -0.266 N 
ATOM      3  N   UNL     1     -35.493  20.534   2.897  0.00  0.00    -0.300 NA
ATOM      4  N   UNL     1     -37.234  21.874   2.261  0.00  0.00    +0.008 NA
ATOM      5  C   UNL     1     -35.876  20.237   1.681  0.00  0.00    +0.300 C 
ATOM      6  C   UNL     1     -36.355  21.543   3.212  0.00  0.00    +0.183 C 
ATOM      7  H   UNL     1     -36.881  22.860   4.685  0.00  0.00    +0.159 HD
ENDROOT
BRANCH   2   8
ATOM      8  C   UNL     1     -35.291  21.738   5.459  0.00  0.00    +0.098 C 
BRANCH   8   9
ATOM      9  C   UNL     1     -34.505  22.948   5.962  0.00  0.00    +0.022 C 
BRANCH   9  10
ATOM     10  C   UNL     1     -34.469  24.093   4.944  0.00  0.00    +0.004 C 
BRANCH  10  11
ATOM     11  C   UNL     1     -34.810  25.431   5.607  0.00  0.00    +0.026 C 
BRANCH  11  12
ATOM     12  C   UNL     1     -36.133  26.007   5.111  0.00  0.00    +0.129 C 
BRANCH  12  13
ATOM     13  N   UNL     1     -37.012  24.924   4.668  0.00  0.00    -0.240 NA
BRANCH  13  16
ATOM     14  N   UNL     1     -38.933  24.461   3.302  0.00  0.00    -0.370 N 
ATOM     15  N   UNL     1     -37.716  26.363   2.993  0.00  0.00    -0.370 N 
ATOM     16  C   UNL     1     -37.851  25.204   3.720  0.00  0.00    +0.189 C 
ATOM     17  H   UNL     1     -39.141  23.605   3.742  0.00  0.00    +0.159 HD
ATOM     18  H   UNL     1     -39.498  24.786   2.565  0.00  0.00    +0.159 HD
ATOM     19  H   UNL     1     -36.980  26.985   3.192  0.00  0.00    +0.159 HD
ATOM     20  H   UNL     1     -38.356  26.572   2.275  0.00  0.00    +0.159 HD
ENDBRANCH  13  16
ENDBRANCH  12  13
ENDBRANCH  11  12
ENDBRANCH  10  11
ENDBRANCH   9  10
ENDBRANCH   8   9
ENDBRANCH   2   8
BRANCH   5  21
ATOM     21  C   UNL     1     -35.350  19.220   0.761  0.00  0.00    +0.130 C 
BRANCH  21  24
ATOM     22 BR   UNL     1     -29.304  22.427  -1.715  0.00  0.00    -0.049 Br
ATOM     23  N   UNL     1     -31.736  18.464   0.969  0.00  0.00    -0.312 N 
ATOM     24  C   UNL     1     -33.829  19.150   0.691  0.00  0.00    +0.004 C 
ATOM     25  C   UNL     1     -32.966  20.077   0.043  0.00  0.00    +0.011 C 
ATOM     26  C   UNL     1     -31.659  19.624   0.231  0.00  0.00    +0.049 C 
ATOM     27  C   UNL     1     -33.042  18.170   1.252  0.00  0.00    +0.058 C 
ATOM     28  C   UNL     1     -33.173  21.263  -0.690  0.00  0.00    +0.001 C 
ATOM     29  C   UNL     1     -30.544  20.299  -0.278  0.00  0.00    +0.021 C 
ATOM     30  C   UNL     1     -32.068  21.949  -1.207  0.00  0.00    +0.007 C 
ATOM     31  C   UNL     1     -30.775  21.473  -1.002  0.00  0.00    +0.036 C 
ATOM     32  H   UNL     1     -30.962  17.924   1.252  0.00  0.00    +0.152 HD
ENDBRANCH  21  24
ENDBRANCH   5  21
TORSDOF 9
ENDMDL
MODEL 9
REMARK VINA RESULT:      -6.3      4.587      6.593
REMARK  Name = 59053149
REMARK  9 active torsions:
REMARK  status: ('A' for Active; 'I' for Inactive)
REMARK    1  A    between atoms: N_2  and  C_8
REMARK    2  A    between atoms: C_5  and  C_21
REMARK    3  A    between atoms: C_8  and  C_9
REMARK    4  A    between atoms: C_9  and  C_10
REMARK    5  A    between atoms: C_10  and  C_11
REMARK    6  A    between atoms: C_11  and  C_12
REMARK    7  A    between atoms: C_12  and  N_13
REMARK    8  A    between atoms: N_13  and  C_16
REMARK    9  A    between atoms: C_21  and  C_24
REMARK                            x       y       z     vdW  Elec       q    Type
REMARK                         _______ _______ _______ _____ _____    ______ ____
ROOT
ATOM      1  O   UNL     1     -33.551  25.598   4.175  0.00  0.00    -0.314 OA
ATOM      2  N   UNL     1     -31.720  28.461   4.997  0.00  0.00    -0.266 N 
ATOM      3  N   UNL     1     -33.399  27.047   5.876  0.00  0.00    -0.300 NA
ATOM      4  N   UNL     1     -32.571  26.529   3.808  0.00  0.00    +0.008 NA
ATOM      5  C   UNL     1     -33.987  25.976   5.406  0.00  0.00    +0.300 C 
ATOM      6  C   UNL     1     -32.540  27.351   4.861  0.00  0.00    +0.183 C 
ATOM      7  H   UNL     1     -31.103  28.675   4.261  0.00  0.00    +0.159 HD
ENDROOT
BRANCH   2   8
ATOM      8  C   UNL     1     -31.724  29.321   6.154  0.00  0.00    +0.098 C 
BRANCH   8   9
ATOM      9  C   UNL     1     -32.061  30.758   5.761  0.00  0.00    +0.022 C 
BRANCH   9  10
ATOM     10  C   UNL     1     -31.212  31.265   4.591  0.00  0.00    +0.004 C 
BRANCH  10  11
ATOM     11  C   UNL     1     -32.089  31.639   3.393  0.00  0.00    +0.026 C 
BRANCH  11  12
ATOM     12  C   UNL     1     -33.524  31.143   3.542  0.00  0.00    +0.129 C 
BRANCH  12  13
ATOM     13  N   UNL     1     -33.703  29.904   2.784  0.00  0.00    -0.240 NA
BRANCH  13  16
ATOM     14  N   UNL     1     -35.312  28.185   3.259  0.00  0.00    -0.370 N 
ATOM     15  N   UNL     1     -35.936  30.101   2.195  0.00  0.00    -0.370 N 
ATOM     16  C   UNL     1     -34.898  29.401   2.762  0.00  0.00    +0.189 C 
ATOM     17  H   UNL     1     -34.664  27.584   3.692  0.00  0.00    +0.159 HD
ATOM     18  H   UNL     1     -36.256  27.917   3.180  0.00  0.00    +0.159 HD
ATOM     19  H   UNL     1     -35.774  30.989   1.801  0.00  0.00    +0.159 HD
ATOM     20  H   UNL     1     -36.842  29.716   2.181  0.00  0.00    +0.159 HD
ENDBRANCH  13  16
ENDBRANCH  12  13
ENDBRANCH  11  12
ENDBRANCH  10  11
ENDBRANCH   9  10
ENDBRANCH   8   9
ENDBRANCH   2   8
BRANCH   5  21
ATOM     21  C   UNL     1     -35.033  25.143   6.014  0.00  0.00    +0.130 C 
BRANCH  21  24
ATOM     22 BR   UNL     1     -39.909  23.524   0.859  0.00  0.00    -0.049 Br
ATOM     23  N   UNL     1     -35.890  22.087   4.116  0.00  0.00    -0.312 N 
ATOM     24  C   UNL     1     -35.585  24.051   5.105  0.00  0.00    +0.004 C 
ATOM     25  C   UNL     1     -36.641  24.187   4.161  0.00  0.00    +0.011 C 
ATOM     26  C   UNL     1     -36.813  22.941   3.555  0.00  0.00    +0.049 C 
ATOM     27  C   UNL     1     -35.143  22.749   5.053  0.00  0.00    +0.058 C 
ATOM     28  C   UNL     1     -37.471  25.254   3.764  0.00  0.00    +0.001 C 
ATOM     29  C   UNL     1     -37.777  22.708   2.567  0.00  0.00    +0.021 C 
ATOM     30  C   UNL     1     -38.439  25.036   2.778  0.00  0.00    +0.007 C 
ATOM     31  C   UNL     1     -38.588  23.782   2.190  0.00  0.00    +0.036 C 
ATOM     32  H   UNL     1     -35.783  21.137   3.877  0.00  0.00    +0.152 HD
ENDBRANCH  21  24
ENDBRANCH   5  21
TORSDOF 9
ENDMDL
