MODEL 1
REMARK VINA RESULT:      -6.7      0.000      0.000
REMARK  Name = 194101
REMARK  5 active torsions:
REMARK  status: ('A' for Active; 'I' for Inactive)
REMARK    1  A    between atoms: N_1  and  C1*_18
REMARK    2  A    between atoms: C2*_19  and  O2*_22
REMARK    3  A    between atoms: C3*_20  and  O3*_24
REMARK    4  A    between atoms: C4*_21  and  C5*_26
REMARK    5  A    between atoms: C5*_26  and  O5*_27
REMARK                            x       y       z     vdW  Elec       q    Type
REMARK                         _______ _______ _______ _____ _____    ______ ____
ROOT
ATOM      1  N   UNL     1     -37.530  24.288   3.283  0.00  0.00    -0.262 N 
ATOM      2  N   UNL     1     -39.683  24.769   3.013  0.00  0.00    -0.247 NA
ATOM      3  N   UNL     1     -37.643  20.376   0.357  0.00  0.00    -0.244 NA
ATOM      4  N   UNL     1     -39.755  19.833  -0.660  0.00  0.00    -0.230 NA
ATOM      5  N   UNL     1     -41.661  21.145  -0.244  0.00  0.00    -0.343 N 
ATOM      6  C   UNL     1     -38.017  23.330   2.432  0.00  0.00    +0.070 C 
ATOM      7  C   UNL     1     -38.563  25.125   3.602  0.00  0.00    +0.222 C 
ATOM      8  C   UNL     1     -39.360  23.651   2.280  0.00  0.00    +0.092 C 
ATOM      9  C   UNL     1     -37.416  22.238   1.800  0.00  0.00    +0.035 C 
ATOM     10  C   UNL     1     -40.158  22.848   1.453  0.00  0.00    +0.024 C 
ATOM     11  C   UNL     1     -38.198  21.432   0.975  0.00  0.00    +0.082 C 
ATOM     12  C   UNL     1     -39.560  21.742   0.810  0.00  0.00    +0.050 C 
ATOM     13  C   UNL     1     -40.282  20.897  -0.026  0.00  0.00    +0.124 C 
ATOM     14  C   UNL     1     -38.449  19.634  -0.426  0.00  0.00    +0.252 C 
ATOM     15  H   UNL     1     -42.181  20.552  -0.834  0.00  0.00    +0.144 HD
ATOM     16  H   UNL     1     -42.099  21.911   0.194  0.00  0.00    +0.144 HD
ENDROOT
BRANCH   1  18
ATOM     17  O4* UNL     1     -35.615  23.097   4.018  0.00  0.00    -0.333 OA
ATOM     18  C1* UNL     1     -36.158  24.407   3.769  0.00  0.00    +0.224 C 
ATOM     19  C2* UNL     1     -36.027  25.175   5.076  0.00  0.00    +0.187 C 
ATOM     20  C3* UNL     1     -34.733  24.612   5.628  0.00  0.00    +0.171 C 
ATOM     21  C4* UNL     1     -34.819  23.142   5.224  0.00  0.00    +0.175 C 
BRANCH  19  22
ATOM     22  O2* UNL     1     -35.978  26.571   4.865  0.00  0.00    -0.378 OA
ATOM     23  H2* UNL     1     -36.291  27.030   5.661  0.00  0.00    +0.211 HD
ENDBRANCH  19  22
BRANCH  20  24
ATOM     24  O3* UNL     1     -33.626  25.211   4.953  0.00  0.00    -0.379 OA
ATOM     25  H3* UNL     1     -33.518  26.125   5.259  0.00  0.00    +0.211 HD
ENDBRANCH  20  24
BRANCH  21  26
ATOM     26  C5* UNL     1     -35.493  22.276   6.278  0.00  0.00    +0.169 C 
BRANCH  26  27
ATOM     27  O5* UNL     1     -35.414  20.922   5.869  0.00  0.00    -0.379 OA
ATOM     28  H5* UNL     1     -36.301  20.529   5.878  0.00  0.00    +0.211 HD
ENDBRANCH  26  27
ENDBRANCH  21  26
ENDBRANCH   1  18
TORSDOF 5
ENDMDL
MODEL 2
REMARK VINA RESULT:      -6.6      3.378      7.268
REMARK  Name = 194101
REMARK  5 active torsions:
REMARK  status: ('A' for Active; 'I' for Inactive)
REMARK    1  A    between atoms: N_1  and  C1*_18
REMARK    2  A    between atoms: C2*_19  and  O2*_22
REMARK    3  A    between atoms: C3*_20  and  O3*_24
REMARK    4  A    between atoms: C4*_21  and  C5*_26
REMARK    5  A    between atoms: C5*_26  and  O5*_27
REMARK                            x       y       z     vdW  Elec       q    Type
REMARK                         _______ _______ _______ _____ _____    ______ ____
ROOT
ATOM      1  N   UNL     1     -35.604  22.832   3.743  0.00  0.00    -0.262 N 
ATOM      2  N   UNL     1     -35.285  22.909   5.941  0.00  0.00    -0.247 NA
ATOM      3  N   UNL     1     -33.458  27.140   2.895  0.00  0.00    -0.244 NA
ATOM      4  N   UNL     1     -32.595  28.325   4.803  0.00  0.00    -0.230 NA
ATOM      5  N   UNL     1     -32.791  27.425   6.966  0.00  0.00    -0.343 N 
ATOM      6  C   UNL     1     -34.954  24.016   3.979  0.00  0.00    +0.070 C 
ATOM      7  C   UNL     1     -35.779  22.207   4.946  0.00  0.00    +0.222 C 
ATOM      8  C   UNL     1     -34.767  24.041   5.355  0.00  0.00    +0.092 C 
ATOM      9  C   UNL     1     -34.526  25.041   3.131  0.00  0.00    +0.035 C 
ATOM     10  C   UNL     1     -34.118  25.143   5.930  0.00  0.00    +0.024 C 
ATOM     11  C   UNL     1     -33.879  26.142   3.690  0.00  0.00    +0.082 C 
ATOM     12  C   UNL     1     -33.681  26.183   5.082  0.00  0.00    +0.050 C 
ATOM     13  C   UNL     1     -33.029  27.310   5.573  0.00  0.00    +0.124 C 
ATOM     14  C   UNL     1     -32.840  28.177   3.492  0.00  0.00    +0.252 C 
ATOM     15  H   UNL     1     -32.331  28.218   7.323  0.00  0.00    +0.144 HD
ATOM     16  H   UNL     1     -33.087  26.711   7.576  0.00  0.00    +0.144 HD
ENDROOT
BRANCH   1  18
ATOM     17  O4* UNL     1     -37.155  23.089   1.966  0.00  0.00    -0.333 OA
ATOM     18  C1* UNL     1     -36.037  22.318   2.446  0.00  0.00    +0.224 C 
ATOM     19  C2* UNL     1     -36.502  20.870   2.476  0.00  0.00    +0.187 C 
ATOM     20  C3* UNL     1     -37.429  20.826   1.278  0.00  0.00    +0.171 C 
ATOM     21  C4* UNL     1     -38.102  22.195   1.338  0.00  0.00    +0.175 C 
BRANCH  19  22
ATOM     22  O2* UNL     1     -35.420  19.967   2.372  0.00  0.00    -0.378 OA
ATOM     23  H2* UNL     1     -35.428  19.552   1.496  0.00  0.00    +0.211 HD
ENDBRANCH  19  22
BRANCH  20  24
ATOM     24  O3* UNL     1     -36.656  20.745   0.080  0.00  0.00    -0.379 OA
ATOM     25  H3* UNL     1     -37.165  21.114  -0.658  0.00  0.00    +0.211 HD
ENDBRANCH  20  24
BRANCH  21  26
ATOM     26  C5* UNL     1     -39.380  22.192   2.163  0.00  0.00    +0.169 C 
BRANCH  26  27
ATOM     27  O5* UNL     1     -40.079  20.985   1.913  0.00  0.00    -0.379 OA
ATOM     28  H5* UNL     1     -40.185  20.865   0.956  0.00  0.00    +0.211 HD
ENDBRANCH  26  27
ENDBRANCH  21  26
ENDBRANCH   1  18
TORSDOF 5
ENDMDL
MODEL 3
REMARK VINA RESULT:      -6.6      4.538      7.007
REMARK  Name = 194101
REMARK  5 active torsions:
REMARK  status: ('A' for Active; 'I' for Inactive)
REMARK    1  A    between atoms: N_1  and  C1*_18
REMARK    2  A    between atoms: C2*_19  and  O2*_22
REMARK    3  A    between atoms: C3*_20  and  O3*_24
REMARK    4  A    between atoms: C4*_21  and  C5*_26
REMARK    5  A    between atoms: C5*_26  and  O5*_27
REMARK                            x       y       z     vdW  Elec       q    Type
REMARK                         _______ _______ _______ _____ _____    ______ ____
ROOT
ATOM      1  N   UNL     1     -32.751  27.760   4.255  0.00  0.00    -0.262 N 
ATOM      2  N   UNL     1     -32.772  27.226   2.098  0.00  0.00    -0.247 NA
ATOM      3  N   UNL     1     -35.152  23.745   5.666  0.00  0.00    -0.244 NA
ATOM      4  N   UNL     1     -35.791  22.191   3.942  0.00  0.00    -0.230 NA
ATOM      5  N   UNL     1     -35.269  22.615   1.690  0.00  0.00    -0.343 N 
ATOM      6  C   UNL     1     -33.406  26.558   4.180  0.00  0.00    +0.070 C 
ATOM      7  C   UNL     1     -32.392  28.118   2.985  0.00  0.00    +0.222 C 
ATOM      8  C   UNL     1     -33.406  26.247   2.827  0.00  0.00    +0.092 C 
ATOM      9  C   UNL     1     -33.984  25.738   5.153  0.00  0.00    +0.035 C 
ATOM     10  C   UNL     1     -34.012  25.054   2.407  0.00  0.00    +0.024 C 
ATOM     11  C   UNL     1     -34.590  24.549   4.749  0.00  0.00    +0.082 C 
ATOM     12  C   UNL     1     -34.599  24.219   3.382  0.00  0.00    +0.050 C 
ATOM     13  C   UNL     1     -35.219  23.019   3.048  0.00  0.00    +0.124 C 
ATOM     14  C   UNL     1     -35.723  22.610   5.215  0.00  0.00    +0.252 C 
ATOM     15  H   UNL     1     -35.706  21.769   1.443  0.00  0.00    +0.144 HD
ATOM     16  H   UNL     1     -34.866  23.182   0.993  0.00  0.00    +0.144 HD
ENDROOT
BRANCH   1  18
ATOM     17  O4* UNL     1     -32.762  29.923   5.230  0.00  0.00    -0.333 OA
ATOM     18  C1* UNL     1     -32.479  28.531   5.466  0.00  0.00    +0.224 C 
ATOM     19  C2* UNL     1     -31.032  28.466   5.930  0.00  0.00    +0.187 C 
ATOM     20  C3* UNL     1     -30.908  29.756   6.714  0.00  0.00    +0.171 C 
ATOM     21  C4* UNL     1     -31.750  30.722   5.885  0.00  0.00    +0.175 C 
BRANCH  19  22
ATOM     22  O2* UNL     1     -30.780  27.317   6.713  0.00  0.00    -0.378 OA
ATOM     23  H2* UNL     1     -30.447  26.604   6.145  0.00  0.00    +0.211 HD
ENDBRANCH  19  22
BRANCH  20  24
ATOM     24  O3* UNL     1     -31.518  29.597   7.995  0.00  0.00    -0.379 OA
ATOM     25  H3* UNL     1     -31.624  30.465   8.413  0.00  0.00    +0.211 HD
ENDBRANCH  20  24
BRANCH  21  26
ATOM     26  C5* UNL     1     -30.943  31.446   4.816  0.00  0.00    +0.169 C 
BRANCH  26  27
ATOM     27  O5* UNL     1     -31.741  31.568   3.651  0.00  0.00    -0.379 OA
ATOM     28  H5* UNL     1     -32.657  31.329   3.860  0.00  0.00    +0.211 HD
ENDBRANCH  26  27
ENDBRANCH  21  26
ENDBRANCH   1  18
TORSDOF 5
ENDMDL
MODEL 4
REMARK VINA RESULT:      -6.4      3.958      6.642
REMARK  Name = 194101
REMARK  5 active torsions:
REMARK  status: ('A' for Active; 'I' for Inactive)
REMARK    1  A    between atoms: N_1  and  C1*_18
REMARK    2  A    between atoms: C2*_19  and  O2*_22
REMARK    3  A    between atoms: C3*_20  and  O3*_24
REMARK    4  A    between atoms: C4*_21  and  C5*_26
REMARK    5  A    between atoms: C5*_26  and  O5*_27
REMARK                            x       y       z     vdW  Elec       q    Type
REMARK                         _______ _______ _______ _____ _____    ______ ____
ROOT
ATOM      1  N   UNL     1     -35.446  21.716   4.095  0.00  0.00    -0.262 N 
ATOM      2  N   UNL     1     -35.092  22.735   6.038  0.00  0.00    -0.247 NA
ATOM      3  N   UNL     1     -34.222  25.601   1.396  0.00  0.00    -0.244 NA
ATOM      4  N   UNL     1     -33.563  27.590   2.580  0.00  0.00    -0.230 NA
ATOM      5  N   UNL     1     -33.520  27.630   4.930  0.00  0.00    -0.343 N 
ATOM      6  C   UNL     1     -35.039  22.985   3.776  0.00  0.00    +0.070 C 
ATOM      7  C   UNL     1     -35.462  21.615   5.458  0.00  0.00    +0.222 C 
ATOM      8  C   UNL     1     -34.824  23.600   5.002  0.00  0.00    +0.092 C 
ATOM      9  C   UNL     1     -34.845  23.631   2.552  0.00  0.00    +0.035 C 
ATOM     10  C   UNL     1     -34.392  24.933   5.024  0.00  0.00    +0.024 C 
ATOM     11  C   UNL     1     -34.415  24.958   2.560  0.00  0.00    +0.082 C 
ATOM     12  C   UNL     1     -34.194  25.596   3.793  0.00  0.00    +0.050 C 
ATOM     13  C   UNL     1     -33.766  26.918   3.729  0.00  0.00    +0.124 C 
ATOM     14  C   UNL     1     -33.807  26.881   1.468  0.00  0.00    +0.252 C 
ATOM     15  H   UNL     1     -33.217  28.566   4.895  0.00  0.00    +0.144 HD
ATOM     16  H   UNL     1     -33.651  27.187   5.800  0.00  0.00    +0.144 HD
ENDROOT
BRANCH   1  18
ATOM     17  O4* UNL     1     -34.608  20.110   2.562  0.00  0.00    -0.333 OA
ATOM     18  C1* UNL     1     -35.801  20.652   3.159  0.00  0.00    +0.224 C 
ATOM     19  C2* UNL     1     -36.682  21.109   2.006  0.00  0.00    +0.187 C 
ATOM     20  C3* UNL     1     -36.359  20.071   0.950  0.00  0.00    +0.171 C 
ATOM     21  C4* UNL     1     -34.865  19.842   1.165  0.00  0.00    +0.175 C 
BRANCH  19  22
ATOM     22  O2* UNL     1     -38.049  21.130   2.362  0.00  0.00    -0.378 OA
ATOM     23  H2* UNL     1     -38.264  21.984   2.769  0.00  0.00    +0.211 HD
ENDBRANCH  19  22
BRANCH  20  24
ATOM     24  O3* UNL     1     -37.057  18.860   1.244  0.00  0.00    -0.379 OA
ATOM     25  H3* UNL     1     -36.493  18.102   1.028  0.00  0.00    +0.211 HD
ENDBRANCH  20  24
BRANCH  21  26
ATOM     26  C5* UNL     1     -33.997  20.771   0.330  0.00  0.00    +0.169 C 
BRANCH  26  27
ATOM     27  O5* UNL     1     -32.642  20.389   0.488  0.00  0.00    -0.379 OA
ATOM     28  H5* UNL     1     -32.224  20.950   1.160  0.00  0.00    +0.211 HD
ENDBRANCH  26  27
ENDBRANCH  21  26
ENDBRANCH   1  18
TORSDOF 5
ENDMDL
MODEL 5
REMARK VINA RESULT:      -6.3      1.618      2.250
REMARK  Name = 194101
REMARK  5 active torsions:
REMARK  status: ('A' for Active; 'I' for Inactive)
REMARK    1  A    between atoms: N_1  and  C1*_18
REMARK    2  A    between atoms: C2*_19  and  O2*_22
REMARK    3  A    between atoms: C3*_20  and  O3*_24
REMARK    4  A    between atoms: C4*_21  and  C5*_26
REMARK    5  A    between atoms: C5*_26  and  O5*_27
REMARK                            x       y       z     vdW  Elec       q    Type
REMARK                         _______ _______ _______ _____ _____    ______ ____
ROOT
ATOM      1  N   UNL     1     -37.152  23.138   2.740  0.00  0.00    -0.262 N 
ATOM      2  N   UNL     1     -39.153  22.744   1.856  0.00  0.00    -0.247 NA
ATOM      3  N   UNL     1     -35.041  19.257   0.653  0.00  0.00    -0.244 NA
ATOM      4  N   UNL     1     -36.433  17.874  -0.741  0.00  0.00    -0.230 NA
ATOM      5  N   UNL     1     -38.702  18.394  -1.065  0.00  0.00    -0.343 N 
ATOM      6  C   UNL     1     -37.004  22.003   1.987  0.00  0.00    +0.070 C 
ATOM      7  C   UNL     1     -38.453  23.544   2.630  0.00  0.00    +0.222 C 
ATOM      8  C   UNL     1     -38.263  21.778   1.446  0.00  0.00    +0.092 C 
ATOM      9  C   UNL     1     -35.906  21.174   1.738  0.00  0.00    +0.035 C 
ATOM     10  C   UNL     1     -38.453  20.669   0.610  0.00  0.00    +0.024 C 
ATOM     11  C   UNL     1     -36.081  20.068   0.907  0.00  0.00    +0.082 C 
ATOM     12  C   UNL     1     -37.351  19.825   0.352  0.00  0.00    +0.050 C 
ATOM     13  C   UNL     1     -37.455  18.706  -0.467  0.00  0.00    +0.124 C 
ATOM     14  C   UNL     1     -35.272  18.204  -0.156  0.00  0.00    +0.252 C 
ATOM     15  H   UNL     1     -38.786  17.604  -1.646  0.00  0.00    +0.144 HD
ATOM     16  H   UNL     1     -39.484  18.969  -0.900  0.00  0.00    +0.144 HD
ENDROOT
BRANCH   1  18
ATOM     17  O4* UNL     1     -35.217  22.827   4.076  0.00  0.00    -0.333 OA
ATOM     18  C1* UNL     1     -36.116  23.807   3.524  0.00  0.00    +0.224 C 
ATOM     19  C2* UNL     1     -36.648  24.606   4.703  0.00  0.00    +0.187 C 
ATOM     20  C3* UNL     1     -35.446  24.620   5.625  0.00  0.00    +0.171 C 
ATOM     21  C4* UNL     1     -34.864  23.224   5.421  0.00  0.00    +0.175 C 
BRANCH  19  22
ATOM     22  O2* UNL     1     -37.066  25.900   4.318  0.00  0.00    -0.378 OA
ATOM     23  H2* UNL     1     -36.372  26.542   4.536  0.00  0.00    +0.211 HD
ENDBRANCH  19  22
BRANCH  20  24
ATOM     24  O3* UNL     1     -34.502  25.585   5.163  0.00  0.00    -0.379 OA
ATOM     25  H3* UNL     1     -33.609  25.210   5.206  0.00  0.00    +0.211 HD
ENDBRANCH  20  24
BRANCH  21  26
ATOM     26  C5* UNL     1     -35.431  22.197   6.390  0.00  0.00    +0.169 C 
BRANCH  26  27
ATOM     27  O5* UNL     1     -35.402  20.924   5.769  0.00  0.00    -0.379 OA
ATOM     28  H5* UNL     1     -35.620  20.240   6.422  0.00  0.00    +0.211 HD
ENDBRANCH  26  27
ENDBRANCH  21  26
ENDBRANCH   1  18
TORSDOF 5
ENDMDL
MODEL 6
REMARK VINA RESULT:      -6.3      4.436      6.335
REMARK  Name = 194101
REMARK  5 active torsions:
REMARK  status: ('A' for Active; 'I' for Inactive)
REMARK    1  A    between atoms: N_1  and  C1*_18
REMARK    2  A    between atoms: C2*_19  and  O2*_22
REMARK    3  A    between atoms: C3*_20  and  O3*_24
REMARK    4  A    between atoms: C4*_21  and  C5*_26
REMARK    5  A    between atoms: C5*_26  and  O5*_27
REMARK                            x       y       z     vdW  Elec       q    Type
REMARK                         _______ _______ _______ _____ _____    ______ ____
ROOT
ATOM      1  N   UNL     1     -33.329  27.311   4.664  0.00  0.00    -0.262 N 
ATOM      2  N   UNL     1     -34.383  25.929   6.050  0.00  0.00    -0.247 NA
ATOM      3  N   UNL     1     -36.881  27.272   1.309  0.00  0.00    -0.244 NA
ATOM      4  N   UNL     1     -38.819  25.926   1.784  0.00  0.00    -0.230 NA
ATOM      5  N   UNL     1     -38.966  24.695   3.782  0.00  0.00    -0.343 N 
ATOM      6  C   UNL     1     -34.516  27.007   4.049  0.00  0.00    +0.070 C 
ATOM      7  C   UNL     1     -33.296  26.642   5.856  0.00  0.00    +0.222 C 
ATOM      8  C   UNL     1     -35.154  26.146   4.931  0.00  0.00    +0.092 C 
ATOM      9  C   UNL     1     -35.071  27.402   2.828  0.00  0.00    +0.035 C 
ATOM     10  C   UNL     1     -36.417  25.642   4.590  0.00  0.00    +0.024 C 
ATOM     11  C   UNL     1     -36.327  26.908   2.477  0.00  0.00    +0.082 C 
ATOM     12  C   UNL     1     -36.987  26.034   3.359  0.00  0.00    +0.050 C 
ATOM     13  C   UNL     1     -38.236  25.579   2.947  0.00  0.00    +0.124 C 
ATOM     14  C   UNL     1     -38.096  26.762   1.025  0.00  0.00    +0.252 C 
ATOM     15  H   UNL     1     -39.849  24.368   3.499  0.00  0.00    +0.144 HD
ATOM     16  H   UNL     1     -38.587  24.409   4.645  0.00  0.00    +0.144 HD
ENDROOT
BRANCH   1  18
ATOM     17  O4* UNL     1     -30.988  27.674   4.530  0.00  0.00    -0.333 OA
ATOM     18  C1* UNL     1     -32.279  28.188   4.152  0.00  0.00    +0.224 C 
ATOM     19  C2* UNL     1     -32.343  29.610   4.687  0.00  0.00    +0.187 C 
ATOM     20  C3* UNL     1     -30.902  30.053   4.539  0.00  0.00    +0.171 C 
ATOM     21  C4* UNL     1     -30.133  28.783   4.892  0.00  0.00    +0.175 C 
BRANCH  19  22
ATOM     22  O2* UNL     1     -33.246  30.411   3.953  0.00  0.00    -0.378 OA
ATOM     23  H2* UNL     1     -33.245  31.313   4.311  0.00  0.00    +0.211 HD
ENDBRANCH  19  22
BRANCH  20  24
ATOM     24  O3* UNL     1     -30.643  30.384   3.174  0.00  0.00    -0.379 OA
ATOM     25  H3* UNL     1     -29.977  29.777   2.815  0.00  0.00    +0.211 HD
ENDBRANCH  20  24
BRANCH  21  26
ATOM     26  C5* UNL     1     -29.811  28.677   6.375  0.00  0.00    +0.169 C 
BRANCH  26  27
ATOM     27  O5* UNL     1     -29.914  27.319   6.765  0.00  0.00    -0.379 OA
ATOM     28  H5* UNL     1     -29.769  27.245   7.722  0.00  0.00    +0.211 HD
ENDBRANCH  26  27
ENDBRANCH  21  26
ENDBRANCH   1  18
TORSDOF 5
ENDMDL
MODEL 7
REMARK VINA RESULT:      -6.2      4.547      6.946
REMARK  Name = 194101
REMARK  5 active torsions:
REMARK  status: ('A' for Active; 'I' for Inactive)
REMARK    1  A    between atoms: N_1  and  C1*_18
REMARK    2  A    between atoms: C2*_19  and  O2*_22
REMARK    3  A    between atoms: C3*_20  and  O3*_24
REMARK    4  A    between atoms: C4*_21  and  C5*_26
REMARK    5  A    between atoms: C5*_26  and  O5*_27
REMARK                            x       y       z     vdW  Elec       q    Type
REMARK                         _______ _______ _______ _____ _____    ______ ____
ROOT
ATOM      1  N   UNL     1     -33.255  28.014   4.177  0.00  0.00    -0.262 N 
ATOM      2  N   UNL     1     -32.850  26.744   5.956  0.00  0.00    -0.247 NA
ATOM      3  N   UNL     1     -36.670  25.036   2.349  0.00  0.00    -0.244 NA
ATOM      4  N   UNL     1     -37.161  23.038   3.599  0.00  0.00    -0.230 NA
ATOM      5  N   UNL     1     -36.030  22.569   5.606  0.00  0.00    -0.343 N 
ATOM      6  C   UNL     1     -34.095  26.938   4.059  0.00  0.00    +0.070 C 
ATOM      7  C   UNL     1     -32.532  27.853   5.326  0.00  0.00    +0.222 C 
ATOM      8  C   UNL     1     -33.825  26.162   5.178  0.00  0.00    +0.092 C 
ATOM      9  C   UNL     1     -35.043  26.585   3.094  0.00  0.00    +0.035 C 
ATOM     10  C   UNL     1     -34.532  24.964   5.358  0.00  0.00    +0.024 C 
ATOM     11  C   UNL     1     -35.754  25.397   3.262  0.00  0.00    +0.082 C 
ATOM     12  C   UNL     1     -35.492  24.598   4.390  0.00  0.00    +0.050 C 
ATOM     13  C   UNL     1     -36.235  23.427   4.496  0.00  0.00    +0.124 C 
ATOM     14  C   UNL     1     -37.324  23.877   2.565  0.00  0.00    +0.252 C 
ATOM     15  H   UNL     1     -36.551  21.739   5.689  0.00  0.00    +0.144 HD
ATOM     16  H   UNL     1     -35.366  22.805   6.293  0.00  0.00    +0.144 HD
ENDROOT
BRANCH   1  18
ATOM     17  O4* UNL     1     -31.770  29.568   3.172  0.00  0.00    -0.333 OA
ATOM     18  C1* UNL     1     -33.142  29.139   3.251  0.00  0.00    +0.224 C 
ATOM     19  C2* UNL     1     -33.946  30.364   3.661  0.00  0.00    +0.187 C 
ATOM     20  C3* UNL     1     -33.184  31.472   2.964  0.00  0.00    +0.171 C 
ATOM     21  C4* UNL     1     -31.736  31.012   3.111  0.00  0.00    +0.175 C 
BRANCH  19  22
ATOM     22  O2* UNL     1     -35.294  30.273   3.246  0.00  0.00    -0.378 OA
ATOM     23  H2* UNL     1     -35.516  29.346   3.068  0.00  0.00    +0.211 HD
ENDBRANCH  19  22
BRANCH  20  24
ATOM     24  O3* UNL     1     -33.524  31.486   1.577  0.00  0.00    -0.379 OA
ATOM     25  H3* UNL     1     -34.419  31.842   1.468  0.00  0.00    +0.211 HD
ENDBRANCH  20  24
BRANCH  21  26
ATOM     26  C5* UNL     1     -31.074  31.532   4.379  0.00  0.00    +0.169 C 
BRANCH  26  27
ATOM     27  O5* UNL     1     -30.240  30.514   4.904  0.00  0.00    -0.379 OA
ATOM     28  H5* UNL     1     -29.950  29.930   4.186  0.00  0.00    +0.211 HD
ENDBRANCH  26  27
ENDBRANCH  21  26
ENDBRANCH   1  18
TORSDOF 5
ENDMDL
MODEL 8
REMARK VINA RESULT:      -6.2      2.620      4.558
REMARK  Name = 194101
REMARK  5 active torsions:
REMARK  status: ('A' for Active; 'I' for Inactive)
REMARK    1  A    between atoms: N_1  and  C1*_18
REMARK    2  A    between atoms: C2*_19  and  O2*_22
REMARK    3  A    between atoms: C3*_20  and  O3*_24
REMARK    4  A    between atoms: C4*_21  and  C5*_26
REMARK    5  A    between atoms: C5*_26  and  O5*_27
REMARK                            x       y       z     vdW  Elec       q    Type
REMARK                         _______ _______ _______ _____ _____    ______ ____
ROOT
ATOM      1  N   UNL     1     -37.325  23.706   2.645  0.00  0.00    -0.262 N 
ATOM      2  N   UNL     1     -37.234  24.012   0.446  0.00  0.00    -0.247 NA
ATOM      3  N   UNL     1     -41.440  26.279   3.220  0.00  0.00    -0.244 NA
ATOM      4  N   UNL     1     -42.414  27.239   1.239  0.00  0.00    -0.230 NA
ATOM      5  N   UNL     1     -41.408  26.934  -0.863  0.00  0.00    -0.343 N 
ATOM      6  C   UNL     1     -38.422  24.468   2.335  0.00  0.00    +0.070 C 
ATOM      7  C   UNL     1     -36.648  23.460   1.484  0.00  0.00    +0.222 C 
ATOM      8  C   UNL     1     -38.343  24.645   0.960  0.00  0.00    +0.092 C 
ATOM      9  C   UNL     1     -39.448  25.005   3.117  0.00  0.00    +0.035 C 
ATOM     10  C   UNL     1     -39.337  25.396   0.316  0.00  0.00    +0.024 C 
ATOM     11  C   UNL     1     -40.443  25.753   2.489  0.00  0.00    +0.082 C 
ATOM     12  C   UNL     1     -40.378  25.943   1.097  0.00  0.00    +0.050 C 
ATOM     13  C   UNL     1     -41.402  26.699   0.535  0.00  0.00    +0.124 C 
ATOM     14  C   UNL     1     -42.371  26.993   2.558  0.00  0.00    +0.252 C 
ATOM     15  H   UNL     1     -42.127  27.468  -1.270  0.00  0.00    +0.144 HD
ATOM     16  H   UNL     1     -40.691  26.562  -1.427  0.00  0.00    +0.144 HD
ENDROOT
BRANCH   1  18
ATOM     17  O4* UNL     1     -36.663  24.361   4.828  0.00  0.00    -0.333 OA
ATOM     18  C1* UNL     1     -36.939  23.235   3.973  0.00  0.00    +0.224 C 
ATOM     19  C2* UNL     1     -35.683  22.376   3.985  0.00  0.00    +0.187 C 
ATOM     20  C3* UNL     1     -35.192  22.580   5.404  0.00  0.00    +0.171 C 
ATOM     21  C4* UNL     1     -35.516  24.051   5.653  0.00  0.00    +0.175 C 
BRANCH  19  22
ATOM     22  O2* UNL     1     -35.965  21.025   3.686  0.00  0.00    -0.378 OA
ATOM     23  H2* UNL     1     -36.906  20.931   3.468  0.00  0.00    +0.211 HD
ENDBRANCH  19  22
BRANCH  20  24
ATOM     24  O3* UNL     1     -35.968  21.780   6.296  0.00  0.00    -0.379 OA
ATOM     25  H3* UNL     1     -36.151  22.283   7.105  0.00  0.00    +0.211 HD
ENDBRANCH  20  24
BRANCH  21  26
ATOM     26  C5* UNL     1     -34.379  24.983   5.264  0.00  0.00    +0.169 C 
BRANCH  26  27
ATOM     27  O5* UNL     1     -34.742  26.309   5.607  0.00  0.00    -0.379 OA
ATOM     28  H5* UNL     1     -35.467  26.605   5.033  0.00  0.00    +0.211 HD
ENDBRANCH  26  27
ENDBRANCH  21  26
ENDBRANCH   1  18
TORSDOF 5
ENDMDL
MODEL 9
REMARK VINA RESULT:      -6.1      3.978      7.146
REMARK  Name = 194101
REMARK  5 active torsions:
REMARK  status: ('A' for Active; 'I' for Inactive)
REMARK    1  A    between atoms: N_1  and  C1*_18
REMARK    2  A    between atoms: C2*_19  and  O2*_22
REMARK    3  A    between atoms: C3*_20  and  O3*_24
REMARK    4  A    between atoms: C4*_21  and  C5*_26
REMARK    5  A    between atoms: C5*_26  and  O5*_27
REMARK                            x       y       z     vdW  Elec       q    Type
REMARK                         _______ _______ _______ _____ _____    ______ ____
ROOT
ATOM      1  N   UNL     1     -36.054  20.148   0.550  0.00  0.00    -0.262 N 
ATOM      2  N   UNL     1     -37.105  22.057   0.112  0.00  0.00    -0.247 NA
ATOM      3  N   UNL     1     -35.067  21.309   5.192  0.00  0.00    -0.244 NA
ATOM      4  N   UNL     1     -35.830  23.456   5.968  0.00  0.00    -0.230 NA
ATOM      5  N   UNL     1     -36.996  24.907   4.531  0.00  0.00    -0.343 N 
ATOM      6  C   UNL     1     -36.010  20.867   1.715  0.00  0.00    +0.070 C 
ATOM      7  C   UNL     1     -36.718  20.900  -0.378  0.00  0.00    +0.222 C 
ATOM      8  C   UNL     1     -36.671  22.052   1.418  0.00  0.00    +0.092 C 
ATOM      9  C   UNL     1     -35.462  20.592   2.972  0.00  0.00    +0.035 C 
ATOM     10  C   UNL     1     -36.801  23.024   2.419  0.00  0.00    +0.024 C 
ATOM     11  C   UNL     1     -35.585  21.551   3.977  0.00  0.00    +0.082 C 
ATOM     12  C   UNL     1     -36.251  22.756   3.692  0.00  0.00    +0.050 C 
ATOM     13  C   UNL     1     -36.338  23.668   4.739  0.00  0.00    +0.124 C 
ATOM     14  C   UNL     1     -35.216  22.273   6.122  0.00  0.00    +0.252 C 
ATOM     15  H   UNL     1     -37.062  25.558   5.265  0.00  0.00    +0.144 HD
ATOM     16  H   UNL     1     -37.387  25.115   3.652  0.00  0.00    +0.144 HD
ENDROOT
BRANCH   1  18
ATOM     17  O4* UNL     1     -34.358  18.908  -0.552  0.00  0.00    -0.333 OA
ATOM     18  C1* UNL     1     -35.497  18.816   0.324  0.00  0.00    +0.224 C 
ATOM     19  C2* UNL     1     -36.462  17.843  -0.336  0.00  0.00    +0.187 C 
ATOM     20  C3* UNL     1     -35.505  16.870  -0.994  0.00  0.00    +0.171 C 
ATOM     21  C4* UNL     1     -34.381  17.787  -1.466  0.00  0.00    +0.175 C 
BRANCH  19  22
ATOM     22  O2* UNL     1     -37.317  17.228   0.606  0.00  0.00    -0.378 OA
ATOM     23  H2* UNL     1     -38.194  17.640   0.565  0.00  0.00    +0.211 HD
ENDBRANCH  19  22
BRANCH  20  24
ATOM     24  O3* UNL     1     -34.986  15.973  -0.011  0.00  0.00    -0.379 OA
ATOM     25  H3* UNL     1     -34.199  16.364   0.399  0.00  0.00    +0.211 HD
ENDBRANCH  20  24
BRANCH  21  26
ATOM     26  C5* UNL     1     -34.601  18.320  -2.874  0.00  0.00    +0.169 C 
BRANCH  26  27
ATOM     27  O5* UNL     1     -34.456  19.729  -2.853  0.00  0.00    -0.379 OA
ATOM     28  H5* UNL     1     -33.957  19.992  -2.064  0.00  0.00    +0.211 HD
ENDBRANCH  26  27
ENDBRANCH  21  26
ENDBRANCH   1  18
TORSDOF 5
ENDMDL
