MODEL 1
REMARK VINA RESULT:      -6.1      0.000      0.000
REMARK  Name = 57346361
REMARK  15 active torsions:
REMARK  status: ('A' for Active; 'I' for Inactive)
REMARK    1  A    between atoms: CA_1  and  N_3
REMARK    2  A    between atoms: CA_1  and  C_20
REMARK    3  A    between atoms: CA_1  and  C_23
REMARK    4  A    between atoms: C_4  and  C_6
REMARK    5  A    between atoms: C_6  and  C_7
REMARK    6  A    between atoms: C_7  and  C_8
REMARK    7  A    between atoms: C_8  and  C_9
REMARK    8  A    between atoms: C_9  and  C_10
REMARK    9  A    between atoms: C_10  and  N_11
REMARK   10  A    between atoms: N_11  and  C_13
REMARK   11  A    between atoms: C_20  and  O_21
REMARK   12  A    between atoms: C_23  and  C_26
REMARK   13  A    between atoms: C_24  and  N_32
REMARK   14  A    between atoms: C_24  and  O_36
REMARK   15  A    between atoms: C_27  and  N_35
REMARK                            x       y       z     vdW  Elec       q    Type
REMARK                         _______ _______ _______ _____ _____    ______ ____
ROOT
ATOM      1  CA  UNL     1     -35.627  22.852   4.761  0.00  0.00    +0.176 C 
ENDROOT
BRANCH   1   3
ATOM      2  O   UNL     1     -35.088  22.883   1.918  0.00  0.00    -0.275 OA
ATOM      3  N   UNL     1     -36.401  22.219   3.715  0.00  0.00    -0.297 N 
ATOM      4  C   UNL     1     -36.062  22.289   2.371  0.00  0.00    +0.223 C 
ATOM      5  H   UNL     1     -37.207  21.714   3.969  0.00  0.00    +0.150 HD
BRANCH   4   6
ATOM      6  C   UNL     1     -37.037  21.508   1.508  0.00  0.00    +0.085 C 
BRANCH   6   7
ATOM      7  C   UNL     1     -37.169  22.048   0.085  0.00  0.00    +0.010 C 
BRANCH   7   8
ATOM      8  C   UNL     1     -36.238  21.334  -0.900  0.00  0.00    +0.002 C 
BRANCH   8   9
ATOM      9  C   UNL     1     -35.302  22.327  -1.596  0.00  0.00    +0.021 C 
BRANCH   9  10
ATOM     10  C   UNL     1     -33.829  21.957  -1.439  0.00  0.00    +0.087 C 
BRANCH  10  11
ATOM     11  N   UNL     1     -33.532  21.604  -0.072  0.00  0.00    -0.333 N 
ATOM     12  H   UNL     1     -33.805  22.228   0.639  0.00  0.00    +0.147 HD
BRANCH  11  13
ATOM     13  C   UNL     1     -32.884  20.437   0.298  0.00  0.00    +0.045 C 
ATOM     14  C   UNL     1     -31.572  20.206  -0.115  0.00  0.00    +0.014 C 
ATOM     15  C   UNL     1     -33.543  19.492   1.086  0.00  0.00    +0.014 C 
ATOM     16  C   UNL     1     -30.920  19.030   0.257  0.00  0.00    +0.001 C 
ATOM     17  C   UNL     1     -32.890  18.317   1.459  0.00  0.00    +0.001 C 
ATOM     18  C   UNL     1     -31.579  18.085   1.045  0.00  0.00    +0.000 C 
ENDBRANCH  11  13
ENDBRANCH  10  11
ENDBRANCH   9  10
ENDBRANCH   8   9
ENDBRANCH   7   8
ENDBRANCH   6   7
ENDBRANCH   4   6
ENDBRANCH   1   3
BRANCH   1  20
ATOM     19  OXT UNL     1     -35.234  22.290   7.081  0.00  0.00    -0.248 OA
ATOM     20  C   UNL     1     -35.341  21.909   5.921  0.00  0.00    +0.332 C 
BRANCH  20  21
ATOM     21  O   UNL     1     -35.223  20.606   5.571  0.00  0.00    -0.479 OA
ATOM     22  H   UNL     1     -35.984  20.113   5.333  0.00  0.00    +0.295 HD
ENDBRANCH  20  21
ENDBRANCH   1  20
BRANCH   1  23
ATOM     23  C   UNL     1     -36.286  24.156   5.227  0.00  0.00    +0.059 C 
BRANCH  23  26
ATOM     24  C   UNL     1     -36.356  27.186   2.011  0.00  0.00    +0.257 C 
ATOM     25  C   UNL     1     -35.182  27.252   3.006  0.00  0.00    +0.111 C 
ATOM     26  C   UNL     1     -36.217  25.283   4.233  0.00  0.00    -0.002 C 
ATOM     27  C   UNL     1     -35.207  26.139   4.010  0.00  0.00    +0.121 C 
ATOM     28  C   UNL     1     -37.501  26.304   2.406  0.00  0.00    +0.028 C 
ATOM     29  C   UNL     1     -37.427  25.445   3.434  0.00  0.00    -0.003 C 
BRANCH  24  32
ATOM     30  O   UNL     1     -36.419  25.606   0.301  0.00  0.00    -0.128 OA
ATOM     31  O   UNL     1     -34.934  27.228   0.170  0.00  0.00    -0.128 OA
ATOM     32  N   UNL     1     -35.861  26.626   0.732  0.00  0.00    +0.061 N 
ENDBRANCH  24  32
BRANCH  27  35
ATOM     33  O   UNL     1     -33.093  25.357   4.314  0.00  0.00    -0.126 OA
ATOM     34  O   UNL     1     -34.002  26.612   5.880  0.00  0.00    -0.126 OA
ATOM     35  N   UNL     1     -34.020  26.029   4.788  0.00  0.00    +0.053 N 
ENDBRANCH  27  35
BRANCH  24  36
ATOM     36  O   UNL     1     -36.832  28.485   1.696  0.00  0.00    -0.360 OA
ATOM     37  H   UNL     1     -36.545  29.109   2.381  0.00  0.00    +0.213 HD
ENDBRANCH  24  36
ENDBRANCH  23  26
ENDBRANCH   1  23
TORSDOF 15
ENDMDL
MODEL 2
REMARK VINA RESULT:      -6.1      4.350      8.279
REMARK  Name = 57346361
REMARK  15 active torsions:
REMARK  status: ('A' for Active; 'I' for Inactive)
REMARK    1  A    between atoms: CA_1  and  N_3
REMARK    2  A    between atoms: CA_1  and  C_20
REMARK    3  A    between atoms: CA_1  and  C_23
REMARK    4  A    between atoms: C_4  and  C_6
REMARK    5  A    between atoms: C_6  and  C_7
REMARK    6  A    between atoms: C_7  and  C_8
REMARK    7  A    between atoms: C_8  and  C_9
REMARK    8  A    between atoms: C_9  and  C_10
REMARK    9  A    between atoms: C_10  and  N_11
REMARK   10  A    between atoms: N_11  and  C_13
REMARK   11  A    between atoms: C_20  and  O_21
REMARK   12  A    between atoms: C_23  and  C_26
REMARK   13  A    between atoms: C_24  and  N_32
REMARK   14  A    between atoms: C_24  and  O_36
REMARK   15  A    between atoms: C_27  and  N_35
REMARK                            x       y       z     vdW  Elec       q    Type
REMARK                         _______ _______ _______ _____ _____    ______ ____
ROOT
ATOM      1  CA  UNL     1     -36.555  21.735   1.581  0.00  0.00    +0.176 C 
ENDROOT
BRANCH   1   3
ATOM      2  O   UNL     1     -38.417  23.538   0.294  0.00  0.00    -0.275 OA
ATOM      3  N   UNL     1     -37.707  22.377   2.176  0.00  0.00    -0.297 N 
ATOM      4  C   UNL     1     -38.546  23.231   1.476  0.00  0.00    +0.223 C 
ATOM      5  H   UNL     1     -37.904  22.199   3.124  0.00  0.00    +0.150 HD
BRANCH   4   6
ATOM      6  C   UNL     1     -39.686  23.732   2.346  0.00  0.00    +0.085 C 
BRANCH   6   7
ATOM      7  C   UNL     1     -39.317  24.936   3.212  0.00  0.00    +0.010 C 
BRANCH   7   8
ATOM      8  C   UNL     1     -40.030  26.215   2.767  0.00  0.00    +0.002 C 
BRANCH   8   9
ATOM      9  C   UNL     1     -41.551  26.073   2.892  0.00  0.00    +0.021 C 
BRANCH   9  10
ATOM     10  C   UNL     1     -42.167  27.121   3.815  0.00  0.00    +0.087 C 
BRANCH  10  11
ATOM     11  N   UNL     1     -43.529  27.404   3.432  0.00  0.00    -0.333 N 
ATOM     12  H   UNL     1     -43.694  28.170   2.835  0.00  0.00    +0.147 HD
BRANCH  11  13
ATOM     13  C   UNL     1     -44.619  26.661   3.856  0.00  0.00    +0.045 C 
ATOM     14  C   UNL     1     -45.152  26.869   5.128  0.00  0.00    +0.014 C 
ATOM     15  C   UNL     1     -45.183  25.704   3.011  0.00  0.00    +0.014 C 
ATOM     16  C   UNL     1     -46.249  26.120   5.556  0.00  0.00    +0.001 C 
ATOM     17  C   UNL     1     -46.279  24.956   3.439  0.00  0.00    +0.001 C 
ATOM     18  C   UNL     1     -46.813  25.163   4.711  0.00  0.00    +0.000 C 
ENDBRANCH  11  13
ENDBRANCH  10  11
ENDBRANCH   9  10
ENDBRANCH   8   9
ENDBRANCH   7   8
ENDBRANCH   6   7
ENDBRANCH   4   6
ENDBRANCH   1   3
BRANCH   1  20
ATOM     19  OXT UNL     1     -36.778  19.638   0.395  0.00  0.00    -0.248 OA
ATOM     20  C   UNL     1     -36.726  20.227   1.469  0.00  0.00    +0.332 C 
BRANCH  20  21
ATOM     21  O   UNL     1     -36.807  19.579   2.656  0.00  0.00    -0.479 OA
ATOM     22  H   UNL     1     -37.256  18.759   2.713  0.00  0.00    +0.295 HD
ENDBRANCH  20  21
ENDBRANCH   1  20
BRANCH   1  23
ATOM     23  C   UNL     1     -35.264  22.116   2.317  0.00  0.00    +0.059 C 
BRANCH  23  26
ATOM     24  C   UNL     1     -35.405  25.717   4.873  0.00  0.00    +0.257 C 
ATOM     25  C   UNL     1     -35.670  24.364   5.560  0.00  0.00    +0.111 C 
ATOM     26  C   UNL     1     -35.410  23.254   3.290  0.00  0.00    -0.002 C 
ATOM     27  C   UNL     1     -35.524  23.200   4.627  0.00  0.00    +0.121 C 
ATOM     28  C   UNL     1     -35.426  25.708   3.375  0.00  0.00    +0.028 C 
ATOM     29  C   UNL     1     -35.440  24.570   2.663  0.00  0.00    -0.003 C 
BRANCH  24  32
ATOM     30  O   UNL     1     -33.198  26.228   4.331  0.00  0.00    -0.128 OA
ATOM     31  O   UNL     1     -33.848  26.490   6.420  0.00  0.00    -0.128 OA
ATOM     32  N   UNL     1     -34.044  26.174   5.237  0.00  0.00    +0.061 N 
ENDBRANCH  24  32
BRANCH  27  35
ATOM     33  O   UNL     1     -35.013  20.984   4.659  0.00  0.00    -0.126 OA
ATOM     34  O   UNL     1     -36.038  21.869   6.397  0.00  0.00    -0.126 OA
ATOM     35  N   UNL     1     -35.526  21.931   5.272  0.00  0.00    +0.053 N 
ENDBRANCH  27  35
BRANCH  24  36
ATOM     36  O   UNL     1     -36.283  26.718   5.363  0.00  0.00    -0.360 OA
ATOM     37  H   UNL     1     -37.190  26.377   5.372  0.00  0.00    +0.213 HD
ENDBRANCH  24  36
ENDBRANCH  23  26
ENDBRANCH   1  23
TORSDOF 15
ENDMDL
MODEL 3
REMARK VINA RESULT:      -6.1      3.406      8.498
REMARK  Name = 57346361
REMARK  15 active torsions:
REMARK  status: ('A' for Active; 'I' for Inactive)
REMARK    1  A    between atoms: CA_1  and  N_3
REMARK    2  A    between atoms: CA_1  and  C_20
REMARK    3  A    between atoms: CA_1  and  C_23
REMARK    4  A    between atoms: C_4  and  C_6
REMARK    5  A    between atoms: C_6  and  C_7
REMARK    6  A    between atoms: C_7  and  C_8
REMARK    7  A    between atoms: C_8  and  C_9
REMARK    8  A    between atoms: C_9  and  C_10
REMARK    9  A    between atoms: C_10  and  N_11
REMARK   10  A    between atoms: N_11  and  C_13
REMARK   11  A    between atoms: C_20  and  O_21
REMARK   12  A    between atoms: C_23  and  C_26
REMARK   13  A    between atoms: C_24  and  N_32
REMARK   14  A    between atoms: C_24  and  O_36
REMARK   15  A    between atoms: C_27  and  N_35
REMARK                            x       y       z     vdW  Elec       q    Type
REMARK                         _______ _______ _______ _____ _____    ______ ____
ROOT
ATOM      1  CA  UNL     1     -35.370  25.988   3.975  0.00  0.00    +0.176 C 
ENDROOT
BRANCH   1   3
ATOM      2  O   UNL     1     -32.519  26.465   4.122  0.00  0.00    -0.275 OA
ATOM      3  N   UNL     1     -34.630  26.538   5.089  0.00  0.00    -0.297 N 
ATOM      4  C   UNL     1     -33.256  26.731   5.068  0.00  0.00    +0.223 C 
ATOM      5  H   UNL     1     -35.126  26.788   5.902  0.00  0.00    +0.150 HD
BRANCH   4   6
ATOM      6  C   UNL     1     -32.759  27.350   6.363  0.00  0.00    +0.085 C 
BRANCH   6   7
ATOM      7  C   UNL     1     -31.569  28.292   6.178  0.00  0.00    +0.010 C 
BRANCH   7   8
ATOM      8  C   UNL     1     -31.836  29.687   6.748  0.00  0.00    +0.002 C 
BRANCH   8   9
ATOM      9  C   UNL     1     -31.840  30.746   5.640  0.00  0.00    +0.021 C 
BRANCH   9  10
ATOM     10  C   UNL     1     -32.247  30.178   4.284  0.00  0.00    +0.087 C 
BRANCH  10  11
ATOM     11  N   UNL     1     -33.670  30.311   4.079  0.00  0.00    -0.333 N 
ATOM     12  H   UNL     1     -34.272  29.754   4.624  0.00  0.00    +0.147 HD
BRANCH  11  13
ATOM     13  C   UNL     1     -34.237  31.177   3.159  0.00  0.00    +0.045 C 
ATOM     14  C   UNL     1     -35.575  31.027   2.792  0.00  0.00    +0.014 C 
ATOM     15  C   UNL     1     -33.472  32.201   2.598  0.00  0.00    +0.014 C 
ATOM     16  C   UNL     1     -36.147  31.898   1.864  0.00  0.00    +0.001 C 
ATOM     17  C   UNL     1     -34.044  33.072   1.672  0.00  0.00    +0.001 C 
ATOM     18  C   UNL     1     -35.381  32.922   1.304  0.00  0.00    +0.000 C 
ENDBRANCH  11  13
ENDBRANCH  10  11
ENDBRANCH   9  10
ENDBRANCH   8   9
ENDBRANCH   7   8
ENDBRANCH   6   7
ENDBRANCH   4   6
ENDBRANCH   1   3
BRANCH   1  20
ATOM     19  OXT UNL     1     -34.994  27.805   2.422  0.00  0.00    -0.248 OA
ATOM     20  C   UNL     1     -35.791  27.056   2.975  0.00  0.00    +0.332 C 
BRANCH  20  21
ATOM     21  O   UNL     1     -37.123  27.108   2.735  0.00  0.00    -0.479 OA
ATOM     22  H   UNL     1     -37.731  26.972   3.435  0.00  0.00    +0.295 HD
ENDBRANCH  20  21
ENDBRANCH   1  20
BRANCH   1  23
ATOM     23  C   UNL     1     -36.560  25.149   4.457  0.00  0.00    +0.059 C 
BRANCH  23  26
ATOM     24  C   UNL     1     -36.470  21.213   2.451  0.00  0.00    +0.257 C 
ATOM     25  C   UNL     1     -37.763  22.038   2.310  0.00  0.00    +0.111 C 
ATOM     26  C   UNL     1     -36.696  23.811   3.783  0.00  0.00    -0.002 C 
ATOM     27  C   UNL     1     -37.666  23.385   2.959  0.00  0.00    +0.121 C 
ATOM     28  C   UNL     1     -35.499  21.686   3.490  0.00  0.00    +0.028 C 
ATOM     29  C   UNL     1     -35.622  22.875   4.101  0.00  0.00    -0.003 C 
BRANCH  24  32
ATOM     30  O   UNL     1     -36.225  21.946   0.254  0.00  0.00    -0.128 OA
ATOM     31  O   UNL     1     -34.648  20.669   1.111  0.00  0.00    -0.128 OA
ATOM     32  N   UNL     1     -35.727  21.276   1.171  0.00  0.00    +0.061 N 
ENDBRANCH  24  32
BRANCH  27  35
ATOM     33  O   UNL     1     -39.668  24.337   3.470  0.00  0.00    -0.126 OA
ATOM     34  O   UNL     1     -38.679  24.882   1.579  0.00  0.00    -0.126 OA
ATOM     35  N   UNL     1     -38.744  24.261   2.648  0.00  0.00    +0.053 N 
ENDBRANCH  27  35
BRANCH  24  36
ATOM     36  O   UNL     1     -36.760  19.839   2.651  0.00  0.00    -0.360 OA
ATOM     37  H   UNL     1     -37.714  19.726   2.786  0.00  0.00    +0.213 HD
ENDBRANCH  24  36
ENDBRANCH  23  26
ENDBRANCH   1  23
TORSDOF 15
ENDMDL
MODEL 4
REMARK VINA RESULT:      -6.0      4.694      7.023
REMARK  Name = 57346361
REMARK  15 active torsions:
REMARK  status: ('A' for Active; 'I' for Inactive)
REMARK    1  A    between atoms: CA_1  and  N_3
REMARK    2  A    between atoms: CA_1  and  C_20
REMARK    3  A    between atoms: CA_1  and  C_23
REMARK    4  A    between atoms: C_4  and  C_6
REMARK    5  A    between atoms: C_6  and  C_7
REMARK    6  A    between atoms: C_7  and  C_8
REMARK    7  A    between atoms: C_8  and  C_9
REMARK    8  A    between atoms: C_9  and  C_10
REMARK    9  A    between atoms: C_10  and  N_11
REMARK   10  A    between atoms: N_11  and  C_13
REMARK   11  A    between atoms: C_20  and  O_21
REMARK   12  A    between atoms: C_23  and  C_26
REMARK   13  A    between atoms: C_24  and  N_32
REMARK   14  A    between atoms: C_24  and  O_36
REMARK   15  A    between atoms: C_27  and  N_35
REMARK                            x       y       z     vdW  Elec       q    Type
REMARK                         _______ _______ _______ _____ _____    ______ ____
ROOT
ATOM      1  CA  UNL     1     -31.585  28.795   5.602  0.00  0.00    +0.176 C 
ENDROOT
BRANCH   1   3
ATOM      2  O   UNL     1     -32.754  26.619   4.095  0.00  0.00    -0.275 OA
ATOM      3  N   UNL     1     -32.625  27.889   6.036  0.00  0.00    -0.297 N 
ATOM      4  C   UNL     1     -33.125  26.869   5.238  0.00  0.00    +0.223 C 
ATOM      5  H   UNL     1     -32.996  28.001   6.940  0.00  0.00    +0.150 HD
BRANCH   4   6
ATOM      6  C   UNL     1     -34.186  26.061   5.965  0.00  0.00    +0.085 C 
BRANCH   6   7
ATOM      7  C   UNL     1     -35.540  26.044   5.257  0.00  0.00    +0.010 C 
BRANCH   7   8
ATOM      8  C   UNL     1     -36.178  24.652   5.250  0.00  0.00    +0.002 C 
BRANCH   8   9
ATOM      9  C   UNL     1     -35.236  23.608   5.859  0.00  0.00    +0.021 C 
BRANCH   9  10
ATOM     10  C   UNL     1     -35.603  22.181   5.463  0.00  0.00    +0.087 C 
BRANCH  10  11
ATOM     11  N   UNL     1     -36.236  22.156   4.166  0.00  0.00    -0.333 N 
ATOM     12  H   UNL     1     -37.196  22.369   4.114  0.00  0.00    +0.147 HD
BRANCH  11  13
ATOM     13  C   UNL     1     -35.570  21.848   2.991  0.00  0.00    +0.045 C 
ATOM     14  C   UNL     1     -35.289  20.518   2.676  0.00  0.00    +0.014 C 
ATOM     15  C   UNL     1     -35.182  22.868   2.121  0.00  0.00    +0.014 C 
ATOM     16  C   UNL     1     -34.618  20.208   1.493  0.00  0.00    +0.001 C 
ATOM     17  C   UNL     1     -34.511  22.557   0.938  0.00  0.00    +0.001 C 
ATOM     18  C   UNL     1     -34.229  21.228   0.623  0.00  0.00    +0.000 C 
ENDBRANCH  11  13
ENDBRANCH  10  11
ENDBRANCH   9  10
ENDBRANCH   8   9
ENDBRANCH   7   8
ENDBRANCH   6   7
ENDBRANCH   4   6
ENDBRANCH   1   3
BRANCH   1  20
ATOM     19  OXT UNL     1     -29.464  27.652   5.822  0.00  0.00    -0.248 OA
ATOM     20  C   UNL     1     -30.244  28.493   6.255  0.00  0.00    +0.332 C 
BRANCH  20  21
ATOM     21  O   UNL     1     -29.972  29.238   7.353  0.00  0.00    -0.479 OA
ATOM     22  H   UNL     1     -30.666  29.496   7.928  0.00  0.00    +0.295 HD
ENDBRANCH  20  21
ENDBRANCH   1  20
BRANCH   1  23
ATOM     23  C   UNL     1     -32.004  30.258   5.797  0.00  0.00    +0.059 C 
BRANCH  23  26
ATOM     24  C   UNL     1     -31.249  33.138   2.533  0.00  0.00    +0.257 C 
ATOM     25  C   UNL     1     -32.410  32.147   2.333  0.00  0.00    +0.111 C 
ATOM     26  C   UNL     1     -31.822  31.129   4.584  0.00  0.00    -0.002 C 
ATOM     27  C   UNL     1     -32.634  31.265   3.524  0.00  0.00    +0.121 C 
ATOM     28  C   UNL     1     -30.313  32.834   3.663  0.00  0.00    +0.028 C 
ATOM     29  C   UNL     1     -30.584  31.901   4.590  0.00  0.00    -0.003 C 
BRANCH  24  32
ATOM     30  O   UNL     1     -31.061  35.296   3.389  0.00  0.00    -0.128 OA
ATOM     31  O   UNL     1     -32.994  34.677   2.532  0.00  0.00    -0.128 OA
ATOM     32  N   UNL     1     -31.813  34.471   2.848  0.00  0.00    +0.061 N 
ENDBRANCH  24  32
BRANCH  27  35
ATOM     33  O   UNL     1     -34.833  30.987   4.034  0.00  0.00    -0.126 OA
ATOM     34  O   UNL     1     -33.802  29.428   2.869  0.00  0.00    -0.126 OA
ATOM     35  N   UNL     1     -33.838  30.508   3.472  0.00  0.00    +0.053 N 
ENDBRANCH  27  35
BRANCH  24  36
ATOM     36  O   UNL     1     -30.514  33.313   1.332  0.00  0.00    -0.360 OA
ATOM     37  H   UNL     1     -30.785  32.642   0.687  0.00  0.00    +0.213 HD
ENDBRANCH  24  36
ENDBRANCH  23  26
ENDBRANCH   1  23
TORSDOF 15
ENDMDL
MODEL 5
REMARK VINA RESULT:      -5.9      2.602      6.527
REMARK  Name = 57346361
REMARK  15 active torsions:
REMARK  status: ('A' for Active; 'I' for Inactive)
REMARK    1  A    between atoms: CA_1  and  N_3
REMARK    2  A    between atoms: CA_1  and  C_20
REMARK    3  A    between atoms: CA_1  and  C_23
REMARK    4  A    between atoms: C_4  and  C_6
REMARK    5  A    between atoms: C_6  and  C_7
REMARK    6  A    between atoms: C_7  and  C_8
REMARK    7  A    between atoms: C_8  and  C_9
REMARK    8  A    between atoms: C_9  and  C_10
REMARK    9  A    between atoms: C_10  and  N_11
REMARK   10  A    between atoms: N_11  and  C_13
REMARK   11  A    between atoms: C_20  and  O_21
REMARK   12  A    between atoms: C_23  and  C_26
REMARK   13  A    between atoms: C_24  and  N_32
REMARK   14  A    between atoms: C_24  and  O_36
REMARK   15  A    between atoms: C_27  and  N_35
REMARK                            x       y       z     vdW  Elec       q    Type
REMARK                         _______ _______ _______ _____ _____    ______ ____
ROOT
ATOM      1  CA  UNL     1     -36.266  21.601   2.478  0.00  0.00    +0.176 C 
ENDROOT
BRANCH   1   3
ATOM      2  O   UNL     1     -35.168  21.020   5.092  0.00  0.00    -0.275 OA
ATOM      3  N   UNL     1     -35.941  22.548   3.522  0.00  0.00    -0.297 N 
ATOM      4  C   UNL     1     -35.416  22.173   4.750  0.00  0.00    +0.223 C 
ATOM      5  H   UNL     1     -36.100  23.504   3.353  0.00  0.00    +0.150 HD
BRANCH   4   6
ATOM      6  C   UNL     1     -35.147  23.379   5.634  0.00  0.00    +0.085 C 
BRANCH   6   7
ATOM      7  C   UNL     1     -36.052  24.573   5.338  0.00  0.00    +0.010 C 
BRANCH   7   8
ATOM      8  C   UNL     1     -35.315  25.910   5.463  0.00  0.00    +0.002 C 
BRANCH   8   9
ATOM      9  C   UNL     1     -33.899  25.817   4.885  0.00  0.00    +0.021 C 
BRANCH   9  10
ATOM     10  C   UNL     1     -33.419  27.135   4.285  0.00  0.00    +0.087 C 
BRANCH  10  11
ATOM     11  N   UNL     1     -34.091  27.403   3.036  0.00  0.00    -0.333 N 
ATOM     12  H   UNL     1     -34.143  26.678   2.371  0.00  0.00    +0.147 HD
BRANCH  11  13
ATOM     13  C   UNL     1     -34.667  28.622   2.717  0.00  0.00    +0.045 C 
ATOM     14  C   UNL     1     -35.671  28.688   1.751  0.00  0.00    +0.014 C 
ATOM     15  C   UNL     1     -34.243  29.784   3.362  0.00  0.00    +0.014 C 
ATOM     16  C   UNL     1     -36.250  29.916   1.429  0.00  0.00    +0.001 C 
ATOM     17  C   UNL     1     -34.822  31.012   3.041  0.00  0.00    +0.001 C 
ATOM     18  C   UNL     1     -35.826  31.078   2.074  0.00  0.00    +0.000 C 
ENDBRANCH  11  13
ENDBRANCH  10  11
ENDBRANCH   9  10
ENDBRANCH   8   9
ENDBRANCH   7   8
ENDBRANCH   6   7
ENDBRANCH   4   6
ENDBRANCH   1   3
BRANCH   1  20
ATOM     19  OXT UNL     1     -34.346  21.518   1.008  0.00  0.00    -0.248 OA
ATOM     20  C   UNL     1     -35.026  20.966   1.865  0.00  0.00    +0.332 C 
BRANCH  20  21
ATOM     21  O   UNL     1     -34.723  19.738   2.351  0.00  0.00    -0.479 OA
ATOM     22  H   UNL     1     -34.007  19.254   1.988  0.00  0.00    +0.295 HD
ENDBRANCH  20  21
ENDBRANCH   1  20
BRANCH   1  23
ATOM     23  C   UNL     1     -37.174  22.234   1.416  0.00  0.00    +0.059 C 
BRANCH  23  26
ATOM     24  C   UNL     1     -39.484  25.831   2.534  0.00  0.00    +0.257 C 
ATOM     25  C   UNL     1     -38.020  26.047   2.105  0.00  0.00    +0.111 C 
ATOM     26  C   UNL     1     -37.813  23.530   1.831  0.00  0.00    -0.002 C 
ATOM     27  C   UNL     1     -37.347  24.779   1.673  0.00  0.00    +0.121 C 
ATOM     28  C   UNL     1     -39.882  24.414   2.817  0.00  0.00    +0.028 C 
ATOM     29  C   UNL     1     -39.100  23.370   2.499  0.00  0.00    -0.003 C 
BRANCH  24  32
ATOM     30  O   UNL     1     -40.914  27.377   1.541  0.00  0.00    -0.128 OA
ATOM     31  O   UNL     1     -40.492  25.502   0.463  0.00  0.00    -0.128 OA
ATOM     32  N   UNL     1     -40.370  26.268   1.430  0.00  0.00    +0.061 N 
ENDBRANCH  24  32
BRANCH  27  35
ATOM     33  O   UNL     1     -36.081  25.191  -0.171  0.00  0.00    -0.126 OA
ATOM     34  O   UNL     1     -35.079  24.911   1.771  0.00  0.00    -0.126 OA
ATOM     35  N   UNL     1     -36.083  24.974   1.049  0.00  0.00    +0.053 N 
ENDBRANCH  27  35
BRANCH  24  36
ATOM     36  O   UNL     1     -39.820  26.656   3.638  0.00  0.00    -0.360 OA
ATOM     37  H   UNL     1     -40.592  27.197   3.413  0.00  0.00    +0.213 HD
ENDBRANCH  24  36
ENDBRANCH  23  26
ENDBRANCH   1  23
TORSDOF 15
ENDMDL
MODEL 6
REMARK VINA RESULT:      -5.9      1.545      2.640
REMARK  Name = 57346361
REMARK  15 active torsions:
REMARK  status: ('A' for Active; 'I' for Inactive)
REMARK    1  A    between atoms: CA_1  and  N_3
REMARK    2  A    between atoms: CA_1  and  C_20
REMARK    3  A    between atoms: CA_1  and  C_23
REMARK    4  A    between atoms: C_4  and  C_6
REMARK    5  A    between atoms: C_6  and  C_7
REMARK    6  A    between atoms: C_7  and  C_8
REMARK    7  A    between atoms: C_8  and  C_9
REMARK    8  A    between atoms: C_9  and  C_10
REMARK    9  A    between atoms: C_10  and  N_11
REMARK   10  A    between atoms: N_11  and  C_13
REMARK   11  A    between atoms: C_20  and  O_21
REMARK   12  A    between atoms: C_23  and  C_26
REMARK   13  A    between atoms: C_24  and  N_32
REMARK   14  A    between atoms: C_24  and  O_36
REMARK   15  A    between atoms: C_27  and  N_35
REMARK                            x       y       z     vdW  Elec       q    Type
REMARK                         _______ _______ _______ _____ _____    ______ ____
ROOT
ATOM      1  CA  UNL     1     -35.720  22.789   4.406  0.00  0.00    +0.176 C 
ENDROOT
BRANCH   1   3
ATOM      2  O   UNL     1     -35.296  20.692   2.457  0.00  0.00    -0.275 OA
ATOM      3  N   UNL     1     -36.662  22.305   3.421  0.00  0.00    -0.297 N 
ATOM      4  C   UNL     1     -36.367  21.289   2.523  0.00  0.00    +0.223 C 
ATOM      5  H   UNL     1     -37.556  22.716   3.387  0.00  0.00    +0.150 HD
BRANCH   4   6
ATOM      6  C   UNL     1     -37.554  20.971   1.630  0.00  0.00    +0.085 C 
BRANCH   6   7
ATOM      7  C   UNL     1     -37.164  20.549   0.214  0.00  0.00    +0.010 C 
BRANCH   7   8
ATOM      8  C   UNL     1     -36.373  21.635  -0.521  0.00  0.00    +0.002 C 
BRANCH   8   9
ATOM      9  C   UNL     1     -35.263  21.023  -1.382  0.00  0.00    +0.021 C 
BRANCH   9  10
ATOM     10  C   UNL     1     -33.899  21.658  -1.124  0.00  0.00    +0.087 C 
BRANCH  10  11
ATOM     11  N   UNL     1     -33.381  21.253   0.160  0.00  0.00    -0.333 N 
ATOM     12  H   UNL     1     -33.642  21.777   0.953  0.00  0.00    +0.147 HD
BRANCH  11  13
ATOM     13  C   UNL     1     -32.535  20.171   0.343  0.00  0.00    +0.045 C 
ATOM     14  C   UNL     1     -32.964  19.068   1.082  0.00  0.00    +0.014 C 
ATOM     15  C   UNL     1     -31.256  20.183  -0.213  0.00  0.00    +0.014 C 
ATOM     16  C   UNL     1     -32.112  17.978   1.268  0.00  0.00    +0.001 C 
ATOM     17  C   UNL     1     -30.405  19.093  -0.029  0.00  0.00    +0.001 C 
ATOM     18  C   UNL     1     -30.833  17.990   0.712  0.00  0.00    +0.000 C 
ENDBRANCH  11  13
ENDBRANCH  10  11
ENDBRANCH   9  10
ENDBRANCH   8   9
ENDBRANCH   7   8
ENDBRANCH   6   7
ENDBRANCH   4   6
ENDBRANCH   1   3
BRANCH   1  20
ATOM     19  OXT UNL     1     -36.046  22.182   6.725  0.00  0.00    -0.248 OA
ATOM     20  C   UNL     1     -35.624  21.872   5.616  0.00  0.00    +0.332 C 
BRANCH  20  21
ATOM     21  O   UNL     1     -35.041  20.674   5.371  0.00  0.00    -0.479 OA
ATOM     22  H   UNL     1     -35.313  19.914   5.846  0.00  0.00    +0.295 HD
ENDBRANCH  20  21
ENDBRANCH   1  20
BRANCH   1  23
ATOM     23  C   UNL     1     -36.027  24.239   4.804  0.00  0.00    +0.059 C 
BRANCH  23  26
ATOM     24  C   UNL     1     -33.830  27.435   2.687  0.00  0.00    +0.257 C 
ATOM     25  C   UNL     1     -35.165  26.979   2.069  0.00  0.00    +0.111 C 
ATOM     26  C   UNL     1     -35.360  25.278   3.946  0.00  0.00    -0.002 C 
ATOM     27  C   UNL     1     -35.868  25.949   2.899  0.00  0.00    +0.121 C 
ATOM     28  C   UNL     1     -33.269  26.552   3.760  0.00  0.00    +0.028 C 
ATOM     29  C   UNL     1     -33.979  25.560   4.320  0.00  0.00    -0.003 C 
BRANCH  24  32
ATOM     30  O   UNL     1     -33.128  29.169   4.074  0.00  0.00    -0.128 OA
ATOM     31  O   UNL     1     -35.087  29.352   3.082  0.00  0.00    -0.128 OA
ATOM     32  N   UNL     1     -34.033  28.750   3.336  0.00  0.00    +0.061 N 
ENDBRANCH  24  32
BRANCH  27  35
ATOM     33  O   UNL     1     -37.386  24.697   1.758  0.00  0.00    -0.126 OA
ATOM     34  O   UNL     1     -38.086  26.451   2.891  0.00  0.00    -0.126 OA
ATOM     35  N   UNL     1     -37.205  25.681   2.488  0.00  0.00    +0.053 N 
ENDBRANCH  27  35
BRANCH  24  36
ATOM     36  O   UNL     1     -32.851  27.655   1.683  0.00  0.00    -0.360 OA
ATOM     37  H   UNL     1     -32.037  27.184   1.916  0.00  0.00    +0.213 HD
ENDBRANCH  24  36
ENDBRANCH  23  26
ENDBRANCH   1  23
TORSDOF 15
ENDMDL
MODEL 7
REMARK VINA RESULT:      -5.9      2.224      3.330
REMARK  Name = 57346361
REMARK  15 active torsions:
REMARK  status: ('A' for Active; 'I' for Inactive)
REMARK    1  A    between atoms: CA_1  and  N_3
REMARK    2  A    between atoms: CA_1  and  C_20
REMARK    3  A    between atoms: CA_1  and  C_23
REMARK    4  A    between atoms: C_4  and  C_6
REMARK    5  A    between atoms: C_6  and  C_7
REMARK    6  A    between atoms: C_7  and  C_8
REMARK    7  A    between atoms: C_8  and  C_9
REMARK    8  A    between atoms: C_9  and  C_10
REMARK    9  A    between atoms: C_10  and  N_11
REMARK   10  A    between atoms: N_11  and  C_13
REMARK   11  A    between atoms: C_20  and  O_21
REMARK   12  A    between atoms: C_23  and  C_26
REMARK   13  A    between atoms: C_24  and  N_32
REMARK   14  A    between atoms: C_24  and  O_36
REMARK   15  A    between atoms: C_27  and  N_35
REMARK                            x       y       z     vdW  Elec       q    Type
REMARK                         _______ _______ _______ _____ _____    ______ ____
ROOT
ATOM      1  CA  UNL     1     -35.575  22.510   4.373  0.00  0.00    +0.176 C 
ENDROOT
BRANCH   1   3
ATOM      2  O   UNL     1     -34.822  20.257   2.720  0.00  0.00    -0.275 OA
ATOM      3  N   UNL     1     -36.390  21.837   3.385  0.00  0.00    -0.297 N 
ATOM      4  C   UNL     1     -35.940  20.759   2.637  0.00  0.00    +0.223 C 
ATOM      5  H   UNL     1     -37.307  22.161   3.237  0.00  0.00    +0.150 HD
BRANCH   4   6
ATOM      6  C   UNL     1     -37.018  20.239   1.702  0.00  0.00    +0.085 C 
BRANCH   6   7
ATOM      7  C   UNL     1     -36.486  19.762   0.352  0.00  0.00    +0.010 C 
BRANCH   7   8
ATOM      8  C   UNL     1     -37.449  18.800  -0.349  0.00  0.00    +0.002 C 
BRANCH   8   9
ATOM      9  C   UNL     1     -36.855  17.390  -0.438  0.00  0.00    +0.021 C 
BRANCH   9  10
ATOM     10  C   UNL     1     -35.962  17.203  -1.661  0.00  0.00    +0.087 C 
BRANCH  10  11
ATOM     11  N   UNL     1     -34.622  16.840  -1.266  0.00  0.00    -0.333 N 
ATOM     12  H   UNL     1     -34.318  15.920  -1.446  0.00  0.00    +0.147 HD
BRANCH  11  13
ATOM     13  C   UNL     1     -33.739  17.709  -0.646  0.00  0.00    +0.045 C 
ATOM     14  C   UNL     1     -33.236  17.408   0.619  0.00  0.00    +0.014 C 
ATOM     15  C   UNL     1     -33.354  18.887  -1.288  0.00  0.00    +0.014 C 
ATOM     16  C   UNL     1     -32.348  18.284   1.244  0.00  0.00    +0.001 C 
ATOM     17  C   UNL     1     -32.466  19.762  -0.664  0.00  0.00    +0.001 C 
ATOM     18  C   UNL     1     -31.962  19.462   0.602  0.00  0.00    +0.000 C 
ENDBRANCH  11  13
ENDBRANCH  10  11
ENDBRANCH   9  10
ENDBRANCH   8   9
ENDBRANCH   7   8
ENDBRANCH   6   7
ENDBRANCH   4   6
ENDBRANCH   1   3
BRANCH   1  20
ATOM     19  OXT UNL     1     -35.998  22.260   6.742  0.00  0.00    -0.248 OA
ATOM     20  C   UNL     1     -35.556  21.776   5.706  0.00  0.00    +0.332 C 
BRANCH  20  21
ATOM     21  O   UNL     1     -35.018  20.533   5.657  0.00  0.00    -0.479 OA
ATOM     22  H   UNL     1     -35.535  19.810   5.359  0.00  0.00    +0.295 HD
ENDBRANCH  20  21
ENDBRANCH   1  20
BRANCH   1  23
ATOM     23  C   UNL     1     -35.990  23.979   4.530  0.00  0.00    +0.059 C 
BRANCH  23  26
ATOM     24  C   UNL     1     -32.966  27.157   4.001  0.00  0.00    +0.257 C 
ATOM     25  C   UNL     1     -33.326  26.323   2.757  0.00  0.00    +0.111 C 
ATOM     26  C   UNL     1     -34.905  24.973   4.219  0.00  0.00    -0.002 C 
ATOM     27  C   UNL     1     -34.413  25.325   3.021  0.00  0.00    +0.121 C 
ATOM     28  C   UNL     1     -33.445  26.617   5.314  0.00  0.00    +0.028 C 
ATOM     29  C   UNL     1     -34.326  25.607   5.399  0.00  0.00    -0.003 C 
BRANCH  24  32
ATOM     30  O   UNL     1     -34.717  28.543   3.341  0.00  0.00    -0.128 OA
ATOM     31  O   UNL     1     -32.977  29.459   4.335  0.00  0.00    -0.128 OA
ATOM     32  N   UNL     1     -33.600  28.490   3.877  0.00  0.00    +0.061 N 
ENDBRANCH  24  32
BRANCH  27  35
ATOM     33  O   UNL     1     -35.910  25.249   1.311  0.00  0.00    -0.126 OA
ATOM     34  O   UNL     1     -34.375  23.676   1.455  0.00  0.00    -0.126 OA
ATOM     35  N   UNL     1     -34.935  24.707   1.849  0.00  0.00    +0.053 N 
ENDBRANCH  27  35
BRANCH  24  36
ATOM     36  O   UNL     1     -31.571  27.406   4.062  0.00  0.00    -0.360 OA
ATOM     37  H   UNL     1     -31.198  26.970   4.844  0.00  0.00    +0.213 HD
ENDBRANCH  24  36
ENDBRANCH  23  26
ENDBRANCH   1  23
TORSDOF 15
ENDMDL
MODEL 8
REMARK VINA RESULT:      -5.8      2.663      4.787
REMARK  Name = 57346361
REMARK  15 active torsions:
REMARK  status: ('A' for Active; 'I' for Inactive)
REMARK    1  A    between atoms: CA_1  and  N_3
REMARK    2  A    between atoms: CA_1  and  C_20
REMARK    3  A    between atoms: CA_1  and  C_23
REMARK    4  A    between atoms: C_4  and  C_6
REMARK    5  A    between atoms: C_6  and  C_7
REMARK    6  A    between atoms: C_7  and  C_8
REMARK    7  A    between atoms: C_8  and  C_9
REMARK    8  A    between atoms: C_9  and  C_10
REMARK    9  A    between atoms: C_10  and  N_11
REMARK   10  A    between atoms: N_11  and  C_13
REMARK   11  A    between atoms: C_20  and  O_21
REMARK   12  A    between atoms: C_23  and  C_26
REMARK   13  A    between atoms: C_24  and  N_32
REMARK   14  A    between atoms: C_24  and  O_36
REMARK   15  A    between atoms: C_27  and  N_35
REMARK                            x       y       z     vdW  Elec       q    Type
REMARK                         _______ _______ _______ _____ _____    ______ ____
ROOT
ATOM      1  CA  UNL     1     -35.511  22.338   3.915  0.00  0.00    +0.176 C 
ENDROOT
BRANCH   1   3
ATOM      2  O   UNL     1     -34.426  21.034   1.571  0.00  0.00    -0.275 OA
ATOM      3  N   UNL     1     -36.178  21.386   3.055  0.00  0.00    -0.297 N 
ATOM      4  C   UNL     1     -35.574  20.810   1.947  0.00  0.00    +0.223 C 
ATOM      5  H   UNL     1     -37.106  21.134   3.266  0.00  0.00    +0.150 HD
BRANCH   4   6
ATOM      6  C   UNL     1     -36.501  19.828   1.252  0.00  0.00    +0.085 C 
BRANCH   6   7
ATOM      7  C   UNL     1     -36.529  19.978  -0.268  0.00  0.00    +0.010 C 
BRANCH   7   8
ATOM      8  C   UNL     1     -37.723  20.807  -0.751  0.00  0.00    +0.002 C 
BRANCH   8   9
ATOM      9  C   UNL     1     -39.037  20.275  -0.169  0.00  0.00    +0.021 C 
BRANCH   9  10
ATOM     10  C   UNL     1     -39.942  21.387   0.355  0.00  0.00    +0.087 C 
BRANCH  10  11
ATOM     11  N   UNL     1     -39.364  22.010   1.521  0.00  0.00    -0.333 N 
ATOM     12  H   UNL     1     -39.081  21.430   2.266  0.00  0.00    +0.147 HD
BRANCH  11  13
ATOM     13  C   UNL     1     -39.186  23.378   1.656  0.00  0.00    +0.045 C 
ATOM     14  C   UNL     1     -39.623  24.028   2.810  0.00  0.00    +0.014 C 
ATOM     15  C   UNL     1     -38.568  24.104   0.637  0.00  0.00    +0.014 C 
ATOM     16  C   UNL     1     -39.445  25.405   2.945  0.00  0.00    +0.001 C 
ATOM     17  C   UNL     1     -38.389  25.481   0.773  0.00  0.00    +0.001 C 
ATOM     18  C   UNL     1     -38.827  26.132   1.926  0.00  0.00    +0.000 C 
ENDBRANCH  11  13
ENDBRANCH  10  11
ENDBRANCH   9  10
ENDBRANCH   8   9
ENDBRANCH   7   8
ENDBRANCH   6   7
ENDBRANCH   4   6
ENDBRANCH   1   3
BRANCH   1  20
ATOM     19  OXT UNL     1     -35.803  22.635   6.299  0.00  0.00    -0.248 OA
ATOM     20  C   UNL     1     -35.498  21.894   5.371  0.00  0.00    +0.332 C 
BRANCH  20  21
ATOM     21  O   UNL     1     -35.128  20.605   5.563  0.00  0.00    -0.479 OA
ATOM     22  H   UNL     1     -35.736  19.993   5.930  0.00  0.00    +0.295 HD
ENDBRANCH  20  21
ENDBRANCH   1  20
BRANCH   1  23
ATOM     23  C   UNL     1     -36.098  23.745   3.748  0.00  0.00    +0.059 C 
BRANCH  23  26
ATOM     24  C   UNL     1     -33.276  26.263   1.463  0.00  0.00    +0.257 C 
ATOM     25  C   UNL     1     -33.614  26.719   2.895  0.00  0.00    +0.111 C 
ATOM     26  C   UNL     1     -35.183  24.728   3.069  0.00  0.00    -0.002 C 
ATOM     27  C   UNL     1     -34.517  25.760   3.611  0.00  0.00    +0.121 C 
ATOM     28  C   UNL     1     -34.157  25.196   0.888  0.00  0.00    +0.028 C 
ATOM     29  C   UNL     1     -35.035  24.509   1.635  0.00  0.00    -0.003 C 
BRANCH  24  32
ATOM     30  O   UNL     1     -31.566  25.046   0.454  0.00  0.00    -0.128 OA
ATOM     31  O   UNL     1     -31.208  25.887   2.458  0.00  0.00    -0.128 OA
ATOM     32  N   UNL     1     -31.914  25.682   1.460  0.00  0.00    +0.061 N 
ENDBRANCH  24  32
BRANCH  27  35
ATOM     33  O   UNL     1     -35.704  26.573   5.373  0.00  0.00    -0.126 OA
ATOM     34  O   UNL     1     -33.725  25.679   5.741  0.00  0.00    -0.126 OA
ATOM     35  N   UNL     1     -34.658  26.022   5.003  0.00  0.00    +0.053 N 
ENDBRANCH  27  35
BRANCH  24  36
ATOM     36  O   UNL     1     -33.216  27.369   0.576  0.00  0.00    -0.360 OA
ATOM     37  H   UNL     1     -33.636  27.133  -0.265  0.00  0.00    +0.213 HD
ENDBRANCH  24  36
ENDBRANCH  23  26
ENDBRANCH   1  23
TORSDOF 15
ENDMDL
MODEL 9
REMARK VINA RESULT:      -5.8      2.787      5.551
REMARK  Name = 57346361
REMARK  15 active torsions:
REMARK  status: ('A' for Active; 'I' for Inactive)
REMARK    1  A    between atoms: CA_1  and  N_3
REMARK    2  A    between atoms: CA_1  and  C_20
REMARK    3  A    between atoms: CA_1  and  C_23
REMARK    4  A    between atoms: C_4  and  C_6
REMARK    5  A    between atoms: C_6  and  C_7
REMARK    6  A    between atoms: C_7  and  C_8
REMARK    7  A    between atoms: C_8  and  C_9
REMARK    8  A    between atoms: C_9  and  C_10
REMARK    9  A    between atoms: C_10  and  N_11
REMARK   10  A    between atoms: N_11  and  C_13
REMARK   11  A    between atoms: C_20  and  O_21
REMARK   12  A    between atoms: C_23  and  C_26
REMARK   13  A    between atoms: C_24  and  N_32
REMARK   14  A    between atoms: C_24  and  O_36
REMARK   15  A    between atoms: C_27  and  N_35
REMARK                            x       y       z     vdW  Elec       q    Type
REMARK                         _______ _______ _______ _____ _____    ______ ____
ROOT
ATOM      1  CA  UNL     1     -31.817  28.576   5.113  0.00  0.00    +0.176 C 
ENDROOT
BRANCH   1   3
ATOM      2  O   UNL     1     -32.528  26.565   7.069  0.00  0.00    -0.275 OA
ATOM      3  N   UNL     1     -33.000  27.744   5.124  0.00  0.00    -0.297 N 
ATOM      4  C   UNL     1     -33.256  26.802   6.109  0.00  0.00    +0.223 C 
ATOM      5  H   UNL     1     -33.654  27.851   4.396  0.00  0.00    +0.150 HD
BRANCH   4   6
ATOM      6  C   UNL     1     -34.584  26.100   5.879  0.00  0.00    +0.085 C 
BRANCH   6   7
ATOM      7  C   UNL     1     -34.447  24.715   5.248  0.00  0.00    +0.010 C 
BRANCH   7   8
ATOM      8  C   UNL     1     -35.664  23.826   5.521  0.00  0.00    +0.002 C 
BRANCH   8   9
ATOM      9  C   UNL     1     -35.255  22.528   6.225  0.00  0.00    +0.021 C 
BRANCH   9  10
ATOM     10  C   UNL     1     -35.165  21.342   5.268  0.00  0.00    +0.087 C 
BRANCH  10  11
ATOM     11  N   UNL     1     -35.871  21.620   4.041  0.00  0.00    -0.333 N 
ATOM     12  H   UNL     1     -36.813  21.901   4.100  0.00  0.00    +0.147 HD
BRANCH  11  13
ATOM     13  C   UNL     1     -35.300  21.513   2.783  0.00  0.00    +0.045 C 
ATOM     14  C   UNL     1     -35.010  20.256   2.253  0.00  0.00    +0.014 C 
ATOM     15  C   UNL     1     -35.016  22.663   2.045  0.00  0.00    +0.014 C 
ATOM     16  C   UNL     1     -34.434  20.148   0.987  0.00  0.00    +0.001 C 
ATOM     17  C   UNL     1     -34.441  22.555   0.779  0.00  0.00    +0.001 C 
ATOM     18  C   UNL     1     -34.150  21.298   0.249  0.00  0.00    +0.000 C 
ENDBRANCH  11  13
ENDBRANCH  10  11
ENDBRANCH   9  10
ENDBRANCH   8   9
ENDBRANCH   7   8
ENDBRANCH   6   7
ENDBRANCH   4   6
ENDBRANCH   1   3
BRANCH   1  20
ATOM     19  OXT UNL     1     -32.374  30.760   5.989  0.00  0.00    -0.248 OA
ATOM     20  C   UNL     1     -31.863  29.663   6.177  0.00  0.00    +0.332 C 
BRANCH  20  21
ATOM     21  O   UNL     1     -31.299  29.317   7.360  0.00  0.00    -0.479 OA
ATOM     22  H   UNL     1     -31.703  29.578   8.165  0.00  0.00    +0.295 HD
ENDBRANCH  20  21
ENDBRANCH   1  20
BRANCH   1  23
ATOM     23  C   UNL     1     -31.552  29.149   3.715  0.00  0.00    +0.059 C 
BRANCH  23  26
ATOM     24  C   UNL     1     -35.046  28.569   1.072  0.00  0.00    +0.257 C 
ATOM     25  C   UNL     1     -33.873  27.584   0.904  0.00  0.00    +0.111 C 
ATOM     26  C   UNL     1     -32.637  28.875   2.710  0.00  0.00    -0.002 C 
ATOM     27  C   UNL     1     -32.773  27.816   1.895  0.00  0.00    +0.121 C 
ATOM     28  C   UNL     1     -34.764  29.792   1.892  0.00  0.00    +0.028 C 
ATOM     29  C   UNL     1     -33.649  29.922   2.629  0.00  0.00    -0.003 C 
BRANCH  24  32
ATOM     30  O   UNL     1     -35.843  27.138   2.728  0.00  0.00    -0.128 OA
ATOM     31  O   UNL     1     -37.302  28.097   1.384  0.00  0.00    -0.128 OA
ATOM     32  N   UNL     1     -36.148  27.877   1.779  0.00  0.00    +0.061 N 
ENDBRANCH  24  32
BRANCH  27  35
ATOM     33  O   UNL     1     -30.881  26.845   1.088  0.00  0.00    -0.126 OA
ATOM     34  O   UNL     1     -31.917  25.910   2.792  0.00  0.00    -0.126 OA
ATOM     35  N   UNL     1     -31.790  26.787   1.928  0.00  0.00    +0.053 N 
ENDBRANCH  27  35
BRANCH  24  36
ATOM     36  O   UNL     1     -35.581  28.944  -0.187  0.00  0.00    -0.360 OA
ATOM     37  H   UNL     1     -35.279  28.321  -0.865  0.00  0.00    +0.213 HD
ENDBRANCH  24  36
ENDBRANCH  23  26
ENDBRANCH   1  23
TORSDOF 15
ENDMDL
