MODEL 1
REMARK VINA RESULT:      -5.9      0.000      0.000
REMARK  Name = 192729
REMARK  12 active torsions:
REMARK  status: ('A' for Active; 'I' for Inactive)
REMARK    1  A    between atoms: C_1  and  C_4
REMARK    2  A    between atoms: C_1  and  N_11
REMARK    3  A    between atoms: C_1  and  C_23
REMARK    4  A    between atoms: N_3  and  C_6
REMARK    5  A    between atoms: C_6  and  C_8
REMARK    6  A    between atoms: C_8  and  O_9
REMARK    7  A    between atoms: N_11  and  S_13
REMARK    8  A    between atoms: S_13  and  C_16
REMARK    9  A    between atoms: C_23  and  C_24
REMARK   10  A    between atoms: C_24  and  C_25
REMARK   11  A    between atoms: C_25  and  N_26
REMARK   12  A    between atoms: N_26  and  C_29
REMARK                            x       y       z     vdW  Elec       q    Type
REMARK                         _______ _______ _______ _____ _____    ______ ____
ROOT
ATOM      1  C   UNL     1     -36.154  24.958   4.512  0.00  0.00    +0.151 C 
ENDROOT
BRANCH   1   4
ATOM      2  O   UNL     1     -36.095  22.963   5.878  0.00  0.00    -0.274 OA
ATOM      3  N   UNL     1     -35.656  22.771   3.608  0.00  0.00    -0.294 N 
ATOM      4  C   UNL     1     -35.963  23.471   4.765  0.00  0.00    +0.239 C 
ATOM      5  H   UNL     1     -35.571  23.267   2.761  0.00  0.00    +0.150 HD
BRANCH   3   6
ATOM      6  C   UNL     1     -35.454  21.341   3.599  0.00  0.00    +0.200 C 
BRANCH   6   8
ATOM      7  O   UNL     1     -35.521  21.000   1.218  0.00  0.00    -0.248 OA
ATOM      8  C   UNL     1     -35.932  20.688   2.329  0.00  0.00    +0.334 C 
BRANCH   8   9
ATOM      9  O   UNL     1     -36.860  19.724   2.532  0.00  0.00    -0.479 OA
ATOM     10  H   UNL     1     -37.761  19.891   2.337  0.00  0.00    +0.295 HD
ENDBRANCH   8   9
ENDBRANCH   6   8
ENDBRANCH   3   6
ENDBRANCH   1   4
BRANCH   1  11
ATOM     11  N   UNL     1     -37.614  25.092   4.288  0.00  0.00    -0.172 NA
ATOM     12  H   UNL     1     -38.020  24.166   4.417  0.00  0.00    +0.149 HD
BRANCH  11  13
ATOM     13  S   UNL     1     -38.189  25.678   2.800  0.00  0.00    +0.061 S 
ATOM     14  O   UNL     1     -37.128  26.395   2.120  0.00  0.00    -0.153 OA
ATOM     15  O   UNL     1     -39.476  26.310   3.014  0.00  0.00    -0.153 OA
BRANCH  13  16
ATOM     16  C   UNL     1     -38.492  24.180   1.911  0.00  0.00    +0.122 C 
ATOM     17  C   UNL     1     -39.291  23.185   2.474  0.00  0.00    +0.020 C 
ATOM     18  C   UNL     1     -37.932  23.993   0.647  0.00  0.00    +0.020 C 
ATOM     19  C   UNL     1     -38.972  21.817   0.508  0.00  0.00    -0.022 C 
ATOM     20  C   UNL     1     -39.532  22.004   1.772  0.00  0.00    -0.003 C 
ATOM     21  C   UNL     1     -38.173  22.812  -0.054  0.00  0.00    -0.003 C 
ATOM     22  C   UNL     1     -39.228  20.553  -0.241  0.00  0.00    +0.031 C 
ENDBRANCH  13  16
ENDBRANCH  11  13
ENDBRANCH   1  11
BRANCH   1  23
ATOM     23  C   UNL     1     -35.748  25.837   5.697  0.00  0.00    +0.029 C 
BRANCH  23  24
ATOM     24  C   UNL     1     -34.233  26.069   5.743  0.00  0.00    +0.028 C 
BRANCH  24  25
ATOM     25  C   UNL     1     -33.649  26.378   4.368  0.00  0.00    +0.129 C 
BRANCH  25  26
ATOM     26  N   UNL     1     -33.442  27.820   4.228  0.00  0.00    -0.240 NA
BRANCH  26  29
ATOM     27  N   UNL     1     -33.435  28.930   2.098  0.00  0.00    -0.370 N 
ATOM     28  N   UNL     1     -35.392  28.540   3.201  0.00  0.00    -0.370 N 
ATOM     29  C   UNL     1     -34.024  28.399   3.224  0.00  0.00    +0.189 C 
ATOM     30  H   UNL     1     -32.458  28.893   1.990  0.00  0.00    +0.159 HD
ATOM     31  H   UNL     1     -33.992  29.346   1.401  0.00  0.00    +0.159 HD
ATOM     32  H   UNL     1     -35.933  28.201   3.950  0.00  0.00    +0.159 HD
ATOM     33  H   UNL     1     -35.828  28.980   2.437  0.00  0.00    +0.159 HD
ENDBRANCH  26  29
ENDBRANCH  25  26
ENDBRANCH  24  25
ENDBRANCH  23  24
ENDBRANCH   1  23
TORSDOF 12
ENDMDL
MODEL 2
REMARK VINA RESULT:      -5.9      3.104      5.864
REMARK  Name = 192729
REMARK  12 active torsions:
REMARK  status: ('A' for Active; 'I' for Inactive)
REMARK    1  A    between atoms: C_1  and  C_4
REMARK    2  A    between atoms: C_1  and  N_11
REMARK    3  A    between atoms: C_1  and  C_23
REMARK    4  A    between atoms: N_3  and  C_6
REMARK    5  A    between atoms: C_6  and  C_8
REMARK    6  A    between atoms: C_8  and  O_9
REMARK    7  A    between atoms: N_11  and  S_13
REMARK    8  A    between atoms: S_13  and  C_16
REMARK    9  A    between atoms: C_23  and  C_24
REMARK   10  A    between atoms: C_24  and  C_25
REMARK   11  A    between atoms: C_25  and  N_26
REMARK   12  A    between atoms: N_26  and  C_29
REMARK                            x       y       z     vdW  Elec       q    Type
REMARK                         _______ _______ _______ _____ _____    ______ ____
ROOT
ATOM      1  C   UNL     1     -36.126  22.925   1.988  0.00  0.00    +0.151 C 
ENDROOT
BRANCH   1   4
ATOM      2  O   UNL     1     -38.075  23.489   0.672  0.00  0.00    -0.274 OA
ATOM      3  N   UNL     1     -38.135  23.857   2.962  0.00  0.00    -0.294 N 
ATOM      4  C   UNL     1     -37.537  23.454   1.777  0.00  0.00    +0.239 C 
ATOM      5  H   UNL     1     -37.622  23.792   3.799  0.00  0.00    +0.150 HD
BRANCH   3   6
ATOM      6  C   UNL     1     -39.483  24.372   3.010  0.00  0.00    +0.200 C 
BRANCH   6   8
ATOM      7  O   UNL     1     -40.488  26.473   2.404  0.00  0.00    -0.248 OA
ATOM      8  C   UNL     1     -39.543  25.873   2.902  0.00  0.00    +0.334 C 
BRANCH   8   9
ATOM      9  O   UNL     1     -38.453  26.496   3.407  0.00  0.00    -0.479 OA
ATOM     10  H   UNL     1     -38.117  27.265   2.989  0.00  0.00    +0.295 HD
ENDBRANCH   8   9
ENDBRANCH   6   8
ENDBRANCH   3   6
ENDBRANCH   1   4
BRANCH   1  11
ATOM     11  N   UNL     1     -36.023  21.802   1.025  0.00  0.00    -0.172 NA
ATOM     12  H   UNL     1     -36.900  21.778   0.505  0.00  0.00    +0.149 HD
BRANCH  11  13
ATOM     13  S   UNL     1     -35.743  20.226   1.592  0.00  0.00    +0.061 S 
ATOM     14  O   UNL     1     -36.601  19.298   0.881  0.00  0.00    -0.153 OA
ATOM     15  O   UNL     1     -35.733  20.247   3.041  0.00  0.00    -0.153 OA
BRANCH  13  16
ATOM     16  C   UNL     1     -34.079  19.941   1.069  0.00  0.00    +0.122 C 
ATOM     17  C   UNL     1     -33.417  20.896   0.297  0.00  0.00    +0.020 C 
ATOM     18  C   UNL     1     -33.427  18.760   1.427  0.00  0.00    +0.020 C 
ATOM     19  C   UNL     1     -31.452  19.491   0.244  0.00  0.00    -0.022 C 
ATOM     20  C   UNL     1     -32.103  20.672  -0.115  0.00  0.00    -0.003 C 
ATOM     21  C   UNL     1     -32.114  18.536   1.015  0.00  0.00    -0.003 C 
ATOM     22  C   UNL     1     -30.048  19.252  -0.198  0.00  0.00    +0.031 C 
ENDBRANCH  13  16
ENDBRANCH  11  13
ENDBRANCH   1  11
BRANCH   1  23
ATOM     23  C   UNL     1     -35.035  23.952   1.677  0.00  0.00    +0.029 C 
BRANCH  23  24
ATOM     24  C   UNL     1     -34.628  24.749   2.923  0.00  0.00    +0.028 C 
BRANCH  24  25
ATOM     25  C   UNL     1     -34.698  23.913   4.197  0.00  0.00    +0.129 C 
BRANCH  25  26
ATOM     26  N   UNL     1     -35.695  24.477   5.108  0.00  0.00    -0.240 NA
BRANCH  26  29
ATOM     27  N   UNL     1     -34.346  26.257   5.992  0.00  0.00    -0.370 N 
ATOM     28  N   UNL     1     -36.530  26.615   5.443  0.00  0.00    -0.370 N 
ATOM     29  C   UNL     1     -35.504  25.700   5.498  0.00  0.00    +0.189 C 
ATOM     30  H   UNL     1     -33.535  25.708   6.082  0.00  0.00    +0.159 HD
ATOM     31  H   UNL     1     -34.330  27.206   6.255  0.00  0.00    +0.159 HD
ATOM     32  H   UNL     1     -37.414  26.342   5.107  0.00  0.00    +0.159 HD
ATOM     33  H   UNL     1     -36.379  27.540   5.740  0.00  0.00    +0.159 HD
ENDBRANCH  26  29
ENDBRANCH  25  26
ENDBRANCH  24  25
ENDBRANCH  23  24
ENDBRANCH   1  23
TORSDOF 12
ENDMDL
MODEL 3
REMARK VINA RESULT:      -5.9      3.347      5.491
REMARK  Name = 192729
REMARK  12 active torsions:
REMARK  status: ('A' for Active; 'I' for Inactive)
REMARK    1  A    between atoms: C_1  and  C_4
REMARK    2  A    between atoms: C_1  and  N_11
REMARK    3  A    between atoms: C_1  and  C_23
REMARK    4  A    between atoms: N_3  and  C_6
REMARK    5  A    between atoms: C_6  and  C_8
REMARK    6  A    between atoms: C_8  and  O_9
REMARK    7  A    between atoms: N_11  and  S_13
REMARK    8  A    between atoms: S_13  and  C_16
REMARK    9  A    between atoms: C_23  and  C_24
REMARK   10  A    between atoms: C_24  and  C_25
REMARK   11  A    between atoms: C_25  and  N_26
REMARK   12  A    between atoms: N_26  and  C_29
REMARK                            x       y       z     vdW  Elec       q    Type
REMARK                         _______ _______ _______ _____ _____    ______ ____
ROOT
ATOM      1  C   UNL     1     -35.563  23.242   2.121  0.00  0.00    +0.151 C 
ENDROOT
BRANCH   1   4
ATOM      2  O   UNL     1     -37.647  23.387   3.339  0.00  0.00    -0.274 OA
ATOM      3  N   UNL     1     -37.717  22.912   1.069  0.00  0.00    -0.294 N 
ATOM      4  C   UNL     1     -37.076  23.186   2.268  0.00  0.00    +0.239 C 
ATOM      5  H   UNL     1     -37.171  22.764   0.263  0.00  0.00    +0.150 HD
BRANCH   3   6
ATOM      6  C   UNL     1     -39.154  22.833   0.962  0.00  0.00    +0.200 C 
BRANCH   6   8
ATOM      7  O   UNL     1     -40.732  21.017   0.897  0.00  0.00    -0.248 OA
ATOM      8  C   UNL     1     -39.701  21.487   1.361  0.00  0.00    +0.334 C 
BRANCH   8   9
ATOM      9  O   UNL     1     -38.943  20.847   2.281  0.00  0.00    -0.479 OA
ATOM     10  H   UNL     1     -38.070  21.140   2.456  0.00  0.00    +0.295 HD
ENDBRANCH   8   9
ENDBRANCH   6   8
ENDBRANCH   3   6
ENDBRANCH   1   4
BRANCH   1  11
ATOM     11  N   UNL     1     -35.258  22.119   1.202  0.00  0.00    -0.172 NA
ATOM     12  H   UNL     1     -35.937  22.164   0.443  0.00  0.00    +0.149 HD
BRANCH  11  13
ATOM     13  S   UNL     1     -35.275  20.523   1.784  0.00  0.00    +0.061 S 
ATOM     14  O   UNL     1     -36.327  19.778   1.119  0.00  0.00    -0.153 OA
ATOM     15  O   UNL     1     -35.206  20.554   3.231  0.00  0.00    -0.153 OA
BRANCH  13  16
ATOM     16  C   UNL     1     -33.722  19.907   1.206  0.00  0.00    +0.122 C 
ATOM     17  C   UNL     1     -33.295  18.633   1.580  0.00  0.00    +0.020 C 
ATOM     18  C   UNL     1     -32.924  20.695   0.377  0.00  0.00    +0.020 C 
ATOM     19  C   UNL     1     -31.272  18.934   0.294  0.00  0.00    -0.022 C 
ATOM     20  C   UNL     1     -32.070  18.146   1.124  0.00  0.00    -0.003 C 
ATOM     21  C   UNL     1     -31.699  20.208  -0.080  0.00  0.00    -0.003 C 
ATOM     22  C   UNL     1     -29.962  18.413  -0.193  0.00  0.00    +0.031 C 
ENDBRANCH  13  16
ENDBRANCH  11  13
ENDBRANCH   1  11
BRANCH   1  23
ATOM     23  C   UNL     1     -35.057  24.546   1.501  0.00  0.00    +0.029 C 
BRANCH  23  24
ATOM     24  C   UNL     1     -33.856  25.114   2.267  0.00  0.00    +0.028 C 
BRANCH  24  25
ATOM     25  C   UNL     1     -33.951  24.862   3.769  0.00  0.00    +0.129 C 
BRANCH  25  26
ATOM     26  N   UNL     1     -34.707  25.941   4.407  0.00  0.00    -0.240 NA
BRANCH  26  29
ATOM     27  N   UNL     1     -36.059  24.326   5.561  0.00  0.00    -0.370 N 
ATOM     28  N   UNL     1     -36.612  26.538   5.586  0.00  0.00    -0.370 N 
ATOM     29  C   UNL     1     -35.720  25.592   5.137  0.00  0.00    +0.189 C 
ATOM     30  H   UNL     1     -35.501  23.557   5.309  0.00  0.00    +0.159 HD
ATOM     31  H   UNL     1     -36.861  24.192   6.117  0.00  0.00    +0.159 HD
ATOM     32  H   UNL     1     -36.483  27.485   5.352  0.00  0.00    +0.159 HD
ATOM     33  H   UNL     1     -37.379  26.267   6.140  0.00  0.00    +0.159 HD
ENDBRANCH  26  29
ENDBRANCH  25  26
ENDBRANCH  24  25
ENDBRANCH  23  24
ENDBRANCH   1  23
TORSDOF 12
ENDMDL
MODEL 4
REMARK VINA RESULT:      -5.8      2.762      5.347
REMARK  Name = 192729
REMARK  12 active torsions:
REMARK  status: ('A' for Active; 'I' for Inactive)
REMARK    1  A    between atoms: C_1  and  C_4
REMARK    2  A    between atoms: C_1  and  N_11
REMARK    3  A    between atoms: C_1  and  C_23
REMARK    4  A    between atoms: N_3  and  C_6
REMARK    5  A    between atoms: C_6  and  C_8
REMARK    6  A    between atoms: C_8  and  O_9
REMARK    7  A    between atoms: N_11  and  S_13
REMARK    8  A    between atoms: S_13  and  C_16
REMARK    9  A    between atoms: C_23  and  C_24
REMARK   10  A    between atoms: C_24  and  C_25
REMARK   11  A    between atoms: C_25  and  N_26
REMARK   12  A    between atoms: N_26  and  C_29
REMARK                            x       y       z     vdW  Elec       q    Type
REMARK                         _______ _______ _______ _____ _____    ______ ____
ROOT
ATOM      1  C   UNL     1     -36.130  25.862   3.976  0.00  0.00    +0.151 C 
ENDROOT
BRANCH   1   4
ATOM      2  O   UNL     1     -35.685  26.526   1.694  0.00  0.00    -0.274 OA
ATOM      3  N   UNL     1     -35.232  28.032   3.399  0.00  0.00    -0.294 N 
ATOM      4  C   UNL     1     -35.659  26.816   2.889  0.00  0.00    +0.239 C 
ATOM      5  H   UNL     1     -35.249  28.170   4.374  0.00  0.00    +0.150 HD
BRANCH   3   6
ATOM      6  C   UNL     1     -34.764  29.104   2.553  0.00  0.00    +0.200 C 
BRANCH   6   8
ATOM      7  O   UNL     1     -36.084  31.115   2.478  0.00  0.00    -0.248 OA
ATOM      8  C   UNL     1     -35.204  30.464   3.028  0.00  0.00    +0.334 C 
BRANCH   8   9
ATOM      9  O   UNL     1     -34.534  30.898   4.121  0.00  0.00    -0.479 OA
ATOM     10  H   UNL     1     -34.536  31.809   4.341  0.00  0.00    +0.295 HD
ENDBRANCH   8   9
ENDBRANCH   6   8
ENDBRANCH   3   6
ENDBRANCH   1   4
BRANCH   1  11
ATOM     11  N   UNL     1     -35.460  24.583   3.636  0.00  0.00    -0.172 NA
ATOM     12  H   UNL     1     -35.141  24.664   2.671  0.00  0.00    +0.149 HD
BRANCH  11  13
ATOM     13  S   UNL     1     -36.321  23.123   3.749  0.00  0.00    +0.061 S 
ATOM     14  O   UNL     1     -37.665  23.314   3.239  0.00  0.00    -0.153 OA
ATOM     15  O   UNL     1     -36.114  22.560   5.069  0.00  0.00    -0.153 OA
BRANCH  13  16
ATOM     16  C   UNL     1     -35.446  22.095   2.607  0.00  0.00    +0.122 C 
ATOM     17  C   UNL     1     -35.367  20.720   2.827  0.00  0.00    +0.020 C 
ATOM     18  C   UNL     1     -34.835  22.659   1.487  0.00  0.00    +0.020 C 
ATOM     19  C   UNL     1     -34.067  20.471   0.806  0.00  0.00    -0.022 C 
ATOM     20  C   UNL     1     -34.678  19.907   1.926  0.00  0.00    -0.003 C 
ATOM     21  C   UNL     1     -34.146  21.846   0.587  0.00  0.00    -0.003 C 
ATOM     22  C   UNL     1     -33.329  19.603  -0.156  0.00  0.00    +0.031 C 
ENDBRANCH  13  16
ENDBRANCH  11  13
ENDBRANCH   1  11
BRANCH   1  23
ATOM     23  C   UNL     1     -35.712  26.286   5.385  0.00  0.00    +0.029 C 
BRANCH  23  24
ATOM     24  C   UNL     1     -34.405  25.611   5.821  0.00  0.00    +0.028 C 
BRANCH  24  25
ATOM     25  C   UNL     1     -33.433  26.590   6.472  0.00  0.00    +0.129 C 
BRANCH  25  26
ATOM     26  N   UNL     1     -32.827  27.442   5.448  0.00  0.00    -0.240 NA
BRANCH  26  29
ATOM     27  N   UNL     1     -30.861  28.229   6.582  0.00  0.00    -0.370 N 
ATOM     28  N   UNL     1     -32.303  29.696   5.599  0.00  0.00    -0.370 N 
ATOM     29  C   UNL     1     -32.027  28.375   5.864  0.00  0.00    +0.189 C 
ATOM     30  H   UNL     1     -30.548  27.332   6.837  0.00  0.00    +0.159 HD
ATOM     31  H   UNL     1     -30.339  29.023   6.839  0.00  0.00    +0.159 HD
ATOM     32  H   UNL     1     -33.111  29.937   5.091  0.00  0.00    +0.159 HD
ATOM     33  H   UNL     1     -31.692  30.399   5.917  0.00  0.00    +0.159 HD
ENDBRANCH  26  29
ENDBRANCH  25  26
ENDBRANCH  24  25
ENDBRANCH  23  24
ENDBRANCH   1  23
TORSDOF 12
ENDMDL
MODEL 5
REMARK VINA RESULT:      -5.8      3.153      5.859
REMARK  Name = 192729
REMARK  12 active torsions:
REMARK  status: ('A' for Active; 'I' for Inactive)
REMARK    1  A    between atoms: C_1  and  C_4
REMARK    2  A    between atoms: C_1  and  N_11
REMARK    3  A    between atoms: C_1  and  C_23
REMARK    4  A    between atoms: N_3  and  C_6
REMARK    5  A    between atoms: C_6  and  C_8
REMARK    6  A    between atoms: C_8  and  O_9
REMARK    7  A    between atoms: N_11  and  S_13
REMARK    8  A    between atoms: S_13  and  C_16
REMARK    9  A    between atoms: C_23  and  C_24
REMARK   10  A    between atoms: C_24  and  C_25
REMARK   11  A    between atoms: C_25  and  N_26
REMARK   12  A    between atoms: N_26  and  C_29
REMARK                            x       y       z     vdW  Elec       q    Type
REMARK                         _______ _______ _______ _____ _____    ______ ____
ROOT
ATOM      1  C   UNL     1     -36.506  21.359   2.736  0.00  0.00    +0.151 C 
ENDROOT
BRANCH   1   4
ATOM      2  O   UNL     1     -38.329  22.040   1.300  0.00  0.00    -0.274 OA
ATOM      3  N   UNL     1     -37.063  23.680   2.345  0.00  0.00    -0.294 N 
ATOM      4  C   UNL     1     -37.400  22.371   2.037  0.00  0.00    +0.239 C 
ATOM      5  H   UNL     1     -36.301  23.845   2.946  0.00  0.00    +0.150 HD
BRANCH   3   6
ATOM      6  C   UNL     1     -37.789  24.811   1.816  0.00  0.00    +0.200 C 
BRANCH   6   8
ATOM      7  O   UNL     1     -39.173  26.587   2.667  0.00  0.00    -0.248 OA
ATOM      8  C   UNL     1     -38.638  25.500   2.852  0.00  0.00    +0.334 C 
BRANCH   8   9
ATOM      9  O   UNL     1     -38.753  24.805   4.008  0.00  0.00    -0.479 OA
ATOM     10  H   UNL     1     -38.029  24.303   4.327  0.00  0.00    +0.295 HD
ENDBRANCH   8   9
ENDBRANCH   6   8
ENDBRANCH   3   6
ENDBRANCH   1   4
BRANCH   1  11
ATOM     11  N   UNL     1     -35.996  20.515   1.628  0.00  0.00    -0.172 NA
ATOM     12  H   UNL     1     -35.484  19.744   2.056  0.00  0.00    +0.149 HD
BRANCH  11  13
ATOM     13  S   UNL     1     -34.975  21.193   0.452  0.00  0.00    +0.061 S 
ATOM     14  O   UNL     1     -34.602  22.536   0.852  0.00  0.00    -0.153 OA
ATOM     15  O   UNL     1     -35.549  20.954  -0.857  0.00  0.00    -0.153 OA
BRANCH  13  16
ATOM     16  C   UNL     1     -33.540  20.168   0.581  0.00  0.00    +0.122 C 
ATOM     17  C   UNL     1     -33.598  18.974   1.300  0.00  0.00    +0.020 C 
ATOM     18  C   UNL     1     -32.350  20.552  -0.037  0.00  0.00    +0.020 C 
ATOM     19  C   UNL     1     -31.277  18.549   0.783  0.00  0.00    -0.022 C 
ATOM     20  C   UNL     1     -32.467  18.164   1.401  0.00  0.00    -0.003 C 
ATOM     21  C   UNL     1     -31.219  19.742   0.064  0.00  0.00    -0.003 C 
ATOM     22  C   UNL     1     -30.067  17.683   0.892  0.00  0.00    +0.031 C 
ENDBRANCH  13  16
ENDBRANCH  11  13
ENDBRANCH   1  11
BRANCH   1  23
ATOM     23  C   UNL     1     -35.321  21.993   3.468  0.00  0.00    +0.029 C 
BRANCH  23  24
ATOM     24  C   UNL     1     -35.456  21.866   4.991  0.00  0.00    +0.028 C 
BRANCH  24  25
ATOM     25  C   UNL     1     -35.107  23.162   5.716  0.00  0.00    +0.129 C 
BRANCH  25  26
ATOM     26  N   UNL     1     -36.115  24.182   5.424  0.00  0.00    -0.240 NA
BRANCH  26  29
ATOM     27  N   UNL     1     -36.483  26.551   5.274  0.00  0.00    -0.370 N 
ATOM     28  N   UNL     1     -34.402  25.721   5.700  0.00  0.00    -0.370 N 
ATOM     29  C   UNL     1     -35.722  25.418   5.457  0.00  0.00    +0.189 C 
ATOM     30  H   UNL     1     -37.446  26.473   5.092  0.00  0.00    +0.159 HD
ATOM     31  H   UNL     1     -36.061  27.440   5.324  0.00  0.00    +0.159 HD
ATOM     32  H   UNL     1     -33.752  24.997   5.848  0.00  0.00    +0.159 HD
ATOM     33  H   UNL     1     -34.110  26.660   5.724  0.00  0.00    +0.159 HD
ENDBRANCH  26  29
ENDBRANCH  25  26
ENDBRANCH  24  25
ENDBRANCH  23  24
ENDBRANCH   1  23
TORSDOF 12
ENDMDL
MODEL 6
REMARK VINA RESULT:      -5.7      3.266      6.507
REMARK  Name = 192729
REMARK  12 active torsions:
REMARK  status: ('A' for Active; 'I' for Inactive)
REMARK    1  A    between atoms: C_1  and  C_4
REMARK    2  A    between atoms: C_1  and  N_11
REMARK    3  A    between atoms: C_1  and  C_23
REMARK    4  A    between atoms: N_3  and  C_6
REMARK    5  A    between atoms: C_6  and  C_8
REMARK    6  A    between atoms: C_8  and  O_9
REMARK    7  A    between atoms: N_11  and  S_13
REMARK    8  A    between atoms: S_13  and  C_16
REMARK    9  A    between atoms: C_23  and  C_24
REMARK   10  A    between atoms: C_24  and  C_25
REMARK   11  A    between atoms: C_25  and  N_26
REMARK   12  A    between atoms: N_26  and  C_29
REMARK                            x       y       z     vdW  Elec       q    Type
REMARK                         _______ _______ _______ _____ _____    ______ ____
ROOT
ATOM      1  C   UNL     1     -36.875  21.038   1.686  0.00  0.00    +0.151 C 
ENDROOT
BRANCH   1   4
ATOM      2  O   UNL     1     -35.295  20.622   3.469  0.00  0.00    -0.274 OA
ATOM      3  N   UNL     1     -35.870  22.816   2.981  0.00  0.00    -0.294 N 
ATOM      4  C   UNL     1     -35.934  21.442   2.811  0.00  0.00    +0.239 C 
ATOM      5  H   UNL     1     -36.422  23.393   2.404  0.00  0.00    +0.150 HD
BRANCH   3   6
ATOM      6  C   UNL     1     -35.023  23.433   3.975  0.00  0.00    +0.200 C 
BRANCH   6   8
ATOM      7  O   UNL     1     -36.009  22.719   6.050  0.00  0.00    -0.248 OA
ATOM      8  C   UNL     1     -35.719  23.638   5.295  0.00  0.00    +0.334 C 
BRANCH   8   9
ATOM      9  O   UNL     1     -35.994  24.935   5.566  0.00  0.00    -0.479 OA
ATOM     10  H   UNL     1     -35.298  25.561   5.617  0.00  0.00    +0.295 HD
ENDBRANCH   8   9
ENDBRANCH   6   8
ENDBRANCH   3   6
ENDBRANCH   1   4
BRANCH   1  11
ATOM     11  N   UNL     1     -36.626  19.585   1.524  0.00  0.00    -0.172 NA
ATOM     12  H   UNL     1     -35.892  19.335   2.186  0.00  0.00    +0.149 HD
BRANCH  11  13
ATOM     13  S   UNL     1     -36.153  18.973   0.011  0.00  0.00    +0.061 S 
ATOM     14  O   UNL     1     -36.269  20.016  -0.989  0.00  0.00    -0.153 OA
ATOM     15  O   UNL     1     -36.796  17.690  -0.194  0.00  0.00    -0.153 OA
BRANCH  13  16
ATOM     16  C   UNL     1     -34.434  18.653   0.268  0.00  0.00    +0.122 C 
ATOM     17  C   UNL     1     -33.553  19.711   0.492  0.00  0.00    +0.020 C 
ATOM     18  C   UNL     1     -33.957  17.342   0.248  0.00  0.00    +0.020 C 
ATOM     19  C   UNL     1     -31.720  18.148   0.676  0.00  0.00    -0.022 C 
ATOM     20  C   UNL     1     -32.197  19.460   0.696  0.00  0.00    -0.003 C 
ATOM     21  C   UNL     1     -32.601  17.090   0.453  0.00  0.00    -0.003 C 
ATOM     22  C   UNL     1     -30.270  17.879   0.893  0.00  0.00    +0.031 C 
ENDBRANCH  13  16
ENDBRANCH  11  13
ENDBRANCH   1  11
BRANCH   1  23
ATOM     23  C   UNL     1     -38.353  21.257   2.016  0.00  0.00    +0.029 C 
BRANCH  23  24
ATOM     24  C   UNL     1     -38.980  22.344   1.134  0.00  0.00    +0.028 C 
BRANCH  24  25
ATOM     25  C   UNL     1     -39.667  23.433   1.952  0.00  0.00    +0.129 C 
BRANCH  25  26
ATOM     26  N   UNL     1     -38.775  23.890   3.019  0.00  0.00    -0.240 NA
BRANCH  26  29
ATOM     27  N   UNL     1     -37.957  26.059   3.647  0.00  0.00    -0.370 N 
ATOM     28  N   UNL     1     -40.189  25.599   3.696  0.00  0.00    -0.370 N 
ATOM     29  C   UNL     1     -38.931  25.112   3.427  0.00  0.00    +0.189 C 
ATOM     30  H   UNL     1     -37.011  25.838   3.492  0.00  0.00    +0.159 HD
ATOM     31  H   UNL     1     -38.207  26.959   3.959  0.00  0.00    +0.159 HD
ATOM     32  H   UNL     1     -40.976  25.020   3.578  0.00  0.00    +0.159 HD
ATOM     33  H   UNL     1     -40.302  26.526   4.005  0.00  0.00    +0.159 HD
ENDBRANCH  26  29
ENDBRANCH  25  26
ENDBRANCH  24  25
ENDBRANCH  23  24
ENDBRANCH   1  23
TORSDOF 12
ENDMDL
MODEL 7
REMARK VINA RESULT:      -5.6      3.104      6.850
REMARK  Name = 192729
REMARK  12 active torsions:
REMARK  status: ('A' for Active; 'I' for Inactive)
REMARK    1  A    between atoms: C_1  and  C_4
REMARK    2  A    between atoms: C_1  and  N_11
REMARK    3  A    between atoms: C_1  and  C_23
REMARK    4  A    between atoms: N_3  and  C_6
REMARK    5  A    between atoms: C_6  and  C_8
REMARK    6  A    between atoms: C_8  and  O_9
REMARK    7  A    between atoms: N_11  and  S_13
REMARK    8  A    between atoms: S_13  and  C_16
REMARK    9  A    between atoms: C_23  and  C_24
REMARK   10  A    between atoms: C_24  and  C_25
REMARK   11  A    between atoms: C_25  and  N_26
REMARK   12  A    between atoms: N_26  and  C_29
REMARK                            x       y       z     vdW  Elec       q    Type
REMARK                         _______ _______ _______ _____ _____    ______ ____
ROOT
ATOM      1  C   UNL     1     -36.372  25.900   3.672  0.00  0.00    +0.151 C 
ENDROOT
BRANCH   1   4
ATOM      2  O   UNL     1     -38.215  24.347   3.862  0.00  0.00    -0.274 OA
ATOM      3  N   UNL     1     -38.464  26.207   2.498  0.00  0.00    -0.294 N 
ATOM      4  C   UNL     1     -37.767  25.380   3.365  0.00  0.00    +0.239 C 
ATOM      5  H   UNL     1     -38.018  27.014   2.151  0.00  0.00    +0.150 HD
BRANCH   3   6
ATOM      6  C   UNL     1     -39.818  25.928   2.083  0.00  0.00    +0.200 C 
BRANCH   6   8
ATOM      7  O   UNL     1     -41.563  27.462   2.709  0.00  0.00    -0.248 OA
ATOM      8  C   UNL     1     -40.850  26.514   3.012  0.00  0.00    +0.334 C 
BRANCH   8   9
ATOM      9  O   UNL     1     -40.913  25.892   4.212  0.00  0.00    -0.479 OA
ATOM     10  H   UNL     1     -40.155  25.462   4.558  0.00  0.00    +0.295 HD
ENDBRANCH   8   9
ENDBRANCH   6   8
ENDBRANCH   3   6
ENDBRANCH   1   4
BRANCH   1  11
ATOM     11  N   UNL     1     -36.303  27.183   2.930  0.00  0.00    -0.172 NA
ATOM     12  H   UNL     1     -37.140  27.233   2.350  0.00  0.00    +0.149 HD
BRANCH  11  13
ATOM     13  S   UNL     1     -34.980  27.500   1.913  0.00  0.00    +0.061 S 
ATOM     14  O   UNL     1     -35.417  28.306   0.790  0.00  0.00    -0.153 OA
ATOM     15  O   UNL     1     -34.259  26.263   1.687  0.00  0.00    -0.153 OA
BRANCH  13  16
ATOM     16  C   UNL     1     -33.961  28.511   2.945  0.00  0.00    +0.122 C 
ATOM     17  C   UNL     1     -33.047  27.918   3.817  0.00  0.00    +0.020 C 
ATOM     18  C   UNL     1     -34.070  29.900   2.888  0.00  0.00    +0.020 C 
ATOM     19  C   UNL     1     -32.351  30.104   4.573  0.00  0.00    -0.022 C 
ATOM     20  C   UNL     1     -32.242  28.715   4.630  0.00  0.00    -0.003 C 
ATOM     21  C   UNL     1     -33.264  30.697   3.702  0.00  0.00    -0.003 C 
ATOM     22  C   UNL     1     -31.490  30.956   5.444  0.00  0.00    +0.031 C 
ENDBRANCH  13  16
ENDBRANCH  11  13
ENDBRANCH   1  11
BRANCH   1  23
ATOM     23  C   UNL     1     -36.132  26.170   5.159  0.00  0.00    +0.029 C 
BRANCH  23  24
ATOM     24  C   UNL     1     -34.951  25.358   5.704  0.00  0.00    +0.028 C 
BRANCH  24  25
ATOM     25  C   UNL     1     -34.377  24.397   4.668  0.00  0.00    +0.129 C 
BRANCH  25  26
ATOM     26  N   UNL     1     -34.400  23.030   5.190  0.00  0.00    -0.240 NA
BRANCH  26  29
ATOM     27  N   UNL     1     -36.405  22.199   4.161  0.00  0.00    -0.370 N 
ATOM     28  N   UNL     1     -36.056  21.948   6.400  0.00  0.00    -0.370 N 
ATOM     29  C   UNL     1     -35.552  22.434   5.216  0.00  0.00    +0.189 C 
ATOM     30  H   UNL     1     -36.162  22.497   3.255  0.00  0.00    +0.159 HD
ATOM     31  H   UNL     1     -37.259  21.732   4.313  0.00  0.00    +0.159 HD
ATOM     32  H   UNL     1     -35.542  22.052   7.232  0.00  0.00    +0.159 HD
ATOM     33  H   UNL     1     -36.930  21.497   6.414  0.00  0.00    +0.159 HD
ENDBRANCH  26  29
ENDBRANCH  25  26
ENDBRANCH  24  25
ENDBRANCH  23  24
ENDBRANCH   1  23
TORSDOF 12
ENDMDL
MODEL 8
REMARK VINA RESULT:      -5.6      2.807      5.333
REMARK  Name = 192729
REMARK  12 active torsions:
REMARK  status: ('A' for Active; 'I' for Inactive)
REMARK    1  A    between atoms: C_1  and  C_4
REMARK    2  A    between atoms: C_1  and  N_11
REMARK    3  A    between atoms: C_1  and  C_23
REMARK    4  A    between atoms: N_3  and  C_6
REMARK    5  A    between atoms: C_6  and  C_8
REMARK    6  A    between atoms: C_8  and  O_9
REMARK    7  A    between atoms: N_11  and  S_13
REMARK    8  A    between atoms: S_13  and  C_16
REMARK    9  A    between atoms: C_23  and  C_24
REMARK   10  A    between atoms: C_24  and  C_25
REMARK   11  A    between atoms: C_25  and  N_26
REMARK   12  A    between atoms: N_26  and  C_29
REMARK                            x       y       z     vdW  Elec       q    Type
REMARK                         _______ _______ _______ _____ _____    ______ ____
ROOT
ATOM      1  C   UNL     1     -35.715  25.962   2.154  0.00  0.00    +0.151 C 
ENDROOT
BRANCH   1   4
ATOM      2  O   UNL     1     -35.208  26.750   4.383  0.00  0.00    -0.274 OA
ATOM      3  N   UNL     1     -35.331  24.463   4.013  0.00  0.00    -0.294 N 
ATOM      4  C   UNL     1     -35.384  25.794   3.629  0.00  0.00    +0.239 C 
ATOM      5  H   UNL     1     -35.485  23.766   3.335  0.00  0.00    +0.150 HD
BRANCH   3   6
ATOM      6  C   UNL     1     -35.056  24.061   5.373  0.00  0.00    +0.200 C 
BRANCH   6   8
ATOM      7  O   UNL     1     -35.299  22.091   6.734  0.00  0.00    -0.248 OA
ATOM      8  C   UNL     1     -35.553  22.674   5.687  0.00  0.00    +0.334 C 
BRANCH   8   9
ATOM      9  O   UNL     1     -36.306  22.133   4.702  0.00  0.00    -0.479 OA
ATOM     10  H   UNL     1     -36.666  21.274   4.804  0.00  0.00    +0.295 HD
ENDBRANCH   8   9
ENDBRANCH   6   8
ENDBRANCH   3   6
ENDBRANCH   1   4
BRANCH   1  11
ATOM     11  N   UNL     1     -35.606  24.586   1.611  0.00  0.00    -0.172 NA
ATOM     12  H   UNL     1     -35.339  23.982   2.387  0.00  0.00    +0.149 HD
BRANCH  11  13
ATOM     13  S   UNL     1     -34.524  24.263   0.342  0.00  0.00    +0.061 S 
ATOM     14  O   UNL     1     -33.307  25.027   0.538  0.00  0.00    -0.153 OA
ATOM     15  O   UNL     1     -35.242  24.344  -0.915  0.00  0.00    -0.153 OA
BRANCH  13  16
ATOM     16  C   UNL     1     -34.146  22.557   0.611  0.00  0.00    +0.122 C 
ATOM     17  C   UNL     1     -34.910  21.806   1.503  0.00  0.00    +0.020 C 
ATOM     18  C   UNL     1     -33.083  21.963  -0.070  0.00  0.00    +0.020 C 
ATOM     19  C   UNL     1     -33.550  19.865   1.033  0.00  0.00    -0.022 C 
ATOM     20  C   UNL     1     -34.613  20.459   1.714  0.00  0.00    -0.003 C 
ATOM     21  C   UNL     1     -32.786  20.616   0.141  0.00  0.00    -0.003 C 
ATOM     22  C   UNL     1     -33.232  18.426   1.261  0.00  0.00    +0.031 C 
ENDBRANCH  13  16
ENDBRANCH  11  13
ENDBRANCH   1  11
BRANCH   1  23
ATOM     23  C   UNL     1     -37.129  26.488   1.901  0.00  0.00    +0.029 C 
BRANCH  23  24
ATOM     24  C   UNL     1     -38.092  25.366   1.493  0.00  0.00    +0.028 C 
BRANCH  24  25
ATOM     25  C   UNL     1     -38.806  24.748   2.691  0.00  0.00    +0.129 C 
BRANCH  25  26
ATOM     26  N   UNL     1     -38.267  23.413   2.956  0.00  0.00    -0.240 NA
BRANCH  26  29
ATOM     27  N   UNL     1     -40.127  22.411   1.812  0.00  0.00    -0.370 N 
ATOM     28  N   UNL     1     -38.292  21.173   2.356  0.00  0.00    -0.370 N 
ATOM     29  C   UNL     1     -38.883  22.414   2.402  0.00  0.00    +0.189 C 
ATOM     30  H   UNL     1     -40.658  23.239   1.777  0.00  0.00    +0.159 HD
ATOM     31  H   UNL     1     -40.486  21.580   1.424  0.00  0.00    +0.159 HD
ATOM     32  H   UNL     1     -37.398  21.040   2.745  0.00  0.00    +0.159 HD
ATOM     33  H   UNL     1     -38.763  20.419   1.934  0.00  0.00    +0.159 HD
ENDBRANCH  26  29
ENDBRANCH  25  26
ENDBRANCH  24  25
ENDBRANCH  23  24
ENDBRANCH   1  23
TORSDOF 12
ENDMDL
MODEL 9
REMARK VINA RESULT:      -5.6      3.510      6.573
REMARK  Name = 192729
REMARK  12 active torsions:
REMARK  status: ('A' for Active; 'I' for Inactive)
REMARK    1  A    between atoms: C_1  and  C_4
REMARK    2  A    between atoms: C_1  and  N_11
REMARK    3  A    between atoms: C_1  and  C_23
REMARK    4  A    between atoms: N_3  and  C_6
REMARK    5  A    between atoms: C_6  and  C_8
REMARK    6  A    between atoms: C_8  and  O_9
REMARK    7  A    between atoms: N_11  and  S_13
REMARK    8  A    between atoms: S_13  and  C_16
REMARK    9  A    between atoms: C_23  and  C_24
REMARK   10  A    between atoms: C_24  and  C_25
REMARK   11  A    between atoms: C_25  and  N_26
REMARK   12  A    between atoms: N_26  and  C_29
REMARK                            x       y       z     vdW  Elec       q    Type
REMARK                         _______ _______ _______ _____ _____    ______ ____
ROOT
ATOM      1  C   UNL     1     -34.888  28.000   2.557  0.00  0.00    +0.151 C 
ENDROOT
BRANCH   1   4
ATOM      2  O   UNL     1     -35.082  30.286   3.319  0.00  0.00    -0.274 OA
ATOM      3  N   UNL     1     -32.966  29.356   3.119  0.00  0.00    -0.294 N 
ATOM      4  C   UNL     1     -34.350  29.341   3.030  0.00  0.00    +0.239 C 
ATOM      5  H   UNL     1     -32.465  28.547   2.864  0.00  0.00    +0.150 HD
BRANCH   3   6
ATOM      6  C   UNL     1     -32.233  30.515   3.570  0.00  0.00    +0.200 C 
BRANCH   6   8
ATOM      7  O   UNL     1     -31.288  31.353   5.618  0.00  0.00    -0.248 OA
ATOM      8  C   UNL     1     -31.898  30.464   5.038  0.00  0.00    +0.334 C 
BRANCH   8   9
ATOM      9  O   UNL     1     -32.337  29.342   5.654  0.00  0.00    -0.479 OA
ATOM     10  H   UNL     1     -31.722  28.716   5.982  0.00  0.00    +0.295 HD
ENDBRANCH   8   9
ENDBRANCH   6   8
ENDBRANCH   3   6
ENDBRANCH   1   4
BRANCH   1  11
ATOM     11  N   UNL     1     -35.273  27.311   3.813  0.00  0.00    -0.172 NA
ATOM     12  H   UNL     1     -35.547  28.036   4.475  0.00  0.00    +0.149 HD
BRANCH  11  13
ATOM     13  S   UNL     1     -34.149  26.317   4.609  0.00  0.00    +0.061 S 
ATOM     14  O   UNL     1     -34.368  26.390   6.040  0.00  0.00    -0.153 OA
ATOM     15  O   UNL     1     -32.831  26.569   4.058  0.00  0.00    -0.153 OA
BRANCH  13  16
ATOM     16  C   UNL     1     -34.636  24.707   4.064  0.00  0.00    +0.122 C 
ATOM     17  C   UNL     1     -34.592  24.387   2.708  0.00  0.00    +0.020 C 
ATOM     18  C   UNL     1     -35.063  23.756   4.992  0.00  0.00    +0.020 C 
ATOM     19  C   UNL     1     -35.402  22.166   3.205  0.00  0.00    -0.022 C 
ATOM     20  C   UNL     1     -34.974  23.116   2.277  0.00  0.00    -0.003 C 
ATOM     21  C   UNL     1     -35.446  22.486   4.561  0.00  0.00    -0.003 C 
ATOM     22  C   UNL     1     -35.812  20.808   2.745  0.00  0.00    +0.031 C 
ENDBRANCH  13  16
ENDBRANCH  11  13
ENDBRANCH   1  11
BRANCH   1  23
ATOM     23  C   UNL     1     -36.119  28.118   1.655  0.00  0.00    +0.029 C 
BRANCH  23  24
ATOM     24  C   UNL     1     -36.479  26.779   1.000  0.00  0.00    +0.028 C 
BRANCH  24  25
ATOM     25  C   UNL     1     -37.945  26.409   1.200  0.00  0.00    +0.129 C 
BRANCH  25  26
ATOM     26  N   UNL     1     -38.044  25.158   1.954  0.00  0.00    -0.240 NA
BRANCH  26  29
ATOM     27  N   UNL     1     -39.661  24.687   3.666  0.00  0.00    -0.370 N 
ATOM     28  N   UNL     1     -37.816  25.948   4.122  0.00  0.00    -0.370 N 
ATOM     29  C   UNL     1     -38.504  25.241   3.164  0.00  0.00    +0.189 C 
ATOM     30  H   UNL     1     -40.246  24.154   3.082  0.00  0.00    +0.159 HD
ATOM     31  H   UNL     1     -39.901  24.824   4.612  0.00  0.00    +0.159 HD
ATOM     32  H   UNL     1     -36.971  26.394   3.891  0.00  0.00    +0.159 HD
ATOM     33  H   UNL     1     -38.171  26.007   5.038  0.00  0.00    +0.159 HD
ENDBRANCH  26  29
ENDBRANCH  25  26
ENDBRANCH  24  25
ENDBRANCH  23  24
ENDBRANCH   1  23
TORSDOF 12
ENDMDL
