MODEL 1
REMARK VINA RESULT:      -7.0      0.000      0.000
REMARK  Name = 196730
REMARK  6 active torsions:
REMARK  status: ('A' for Active; 'I' for Inactive)
REMARK    1  A    between atoms: C_7  and  O_22
REMARK    2  A    between atoms: C_15  and  C_31
REMARK    3  A    between atoms: C_16  and  O_24
REMARK    4  A    between atoms: C_17  and  O_26
REMARK    5  A    between atoms: C_20  and  O_28
REMARK    6  A    between atoms: C_31  and  O_32
REMARK                            x       y       z     vdW  Elec       q    Type
REMARK                         _______ _______ _______ _____ _____    ______ ____
ROOT
ATOM      1  O   UNL     1     -33.942  25.210   1.002  0.00  0.00    -0.286 OA
ATOM      2  O   UNL     1     -35.040  23.231   5.842  0.00  0.00    -0.287 OA
ATOM      3  C   UNL     1     -32.716  27.427   4.365  0.00  0.00    +0.030 C 
ATOM      4  C   UNL     1     -33.785  25.493   3.337  0.00  0.00    +0.076 C 
ATOM      5  C   UNL     1     -34.073  24.974   4.598  0.00  0.00    +0.045 C 
ATOM      6  C   UNL     1     -33.008  26.901   5.645  0.00  0.00    +0.006 C 
ATOM      7  C   UNL     1     -33.109  26.714   3.221  0.00  0.00    +0.136 C 
ATOM      8  C   UNL     1     -33.686  25.675   5.747  0.00  0.00    +0.004 C 
ATOM      9  C   UNL     1     -32.037  28.654   4.267  0.00  0.00    -0.010 C 
ATOM     10  C   UNL     1     -34.900  23.477   2.251  0.00  0.00    +0.076 C 
ATOM     11  C   UNL     1     -35.189  22.957   3.514  0.00  0.00    +0.048 C 
ATOM     12  C   UNL     1     -34.188  24.764   2.116  0.00  0.00    +0.202 C 
ATOM     13  C   UNL     1     -34.785  23.686   4.734  0.00  0.00    +0.196 C 
ATOM     14  C   UNL     1     -32.614  27.616   6.788  0.00  0.00    +0.037 C 
ATOM     15  C   UNL     1     -31.654  29.352   5.412  0.00  0.00    +0.105 C 
ATOM     16  C   UNL     1     -31.942  28.833   6.671  0.00  0.00    +0.140 C 
ATOM     17  C   UNL     1     -35.289  22.777   1.102  0.00  0.00    +0.140 C 
ATOM     18  C   UNL     1     -31.683  29.293   2.954  0.00  0.00    +0.031 C 
ATOM     19  C   UNL     1     -35.864  21.736   3.630  0.00  0.00    +0.040 C 
ATOM     20  C   UNL     1     -36.249  21.041   2.483  0.00  0.00    +0.137 C 
ATOM     21  C   UNL     1     -35.962  21.561   1.222  0.00  0.00    +0.073 C 
ENDROOT
BRANCH   7  22
ATOM     22  O   UNL     1     -32.835  27.207   1.975  0.00  0.00    -0.505 OA
ATOM     23  H   UNL     1     -32.416  26.663   1.338  0.00  0.00    +0.292 HD
ENDBRANCH   7  22
BRANCH  16  24
ATOM     24  O   UNL     1     -31.576  29.496   7.805  0.00  0.00    -0.505 OA
ATOM     25  H   UNL     1     -32.163  29.535   8.534  0.00  0.00    +0.292 HD
ENDBRANCH  16  24
BRANCH  17  26
ATOM     26  O   UNL     1     -35.043  23.225  -0.161  0.00  0.00    -0.505 OA
ATOM     27  H   UNL     1     -35.422  22.787  -0.897  0.00  0.00    +0.292 HD
ENDBRANCH  17  26
BRANCH  20  28
ATOM     28  O   UNL     1     -36.907  19.855   2.596  0.00  0.00    -0.505 OA
ATOM     29  H   UNL     1     -36.966  19.281   1.857  0.00  0.00    +0.292 HD
ENDBRANCH  20  28
BRANCH  15  31
ATOM     30  O   UNL     1     -31.444  31.705   5.012  0.00  0.00    -0.245 OA
ATOM     31  C   UNL     1     -30.948  30.627   5.314  0.00  0.00    +0.341 C 
BRANCH  31  32
ATOM     32  O   UNL     1     -29.626  30.494   5.604  0.00  0.00    -0.477 OA
ATOM     33  H   UNL     1     -28.982  30.893   5.053  0.00  0.00    +0.295 HD
ENDBRANCH  31  32
ENDBRANCH  15  31
TORSDOF 6
ENDMDL
MODEL 2
REMARK VINA RESULT:      -6.7      2.651      8.309
REMARK  Name = 196730
REMARK  6 active torsions:
REMARK  status: ('A' for Active; 'I' for Inactive)
REMARK    1  A    between atoms: C_7  and  O_22
REMARK    2  A    between atoms: C_15  and  C_31
REMARK    3  A    between atoms: C_16  and  O_24
REMARK    4  A    between atoms: C_17  and  O_26
REMARK    5  A    between atoms: C_20  and  O_28
REMARK    6  A    between atoms: C_31  and  O_32
REMARK                            x       y       z     vdW  Elec       q    Type
REMARK                         _______ _______ _______ _____ _____    ______ ____
ROOT
ATOM      1  O   UNL     1     -31.371  27.443   6.592  0.00  0.00    -0.286 OA
ATOM      2  O   UNL     1     -32.118  30.826   2.525  0.00  0.00    -0.287 OA
ATOM      3  C   UNL     1     -34.688  26.805   4.079  0.00  0.00    +0.030 C 
ATOM      4  C   UNL     1     -32.695  28.044   4.737  0.00  0.00    +0.076 C 
ATOM      5  C   UNL     1     -32.887  28.928   3.677  0.00  0.00    +0.045 C 
ATOM      6  C   UNL     1     -34.884  27.702   3.003  0.00  0.00    +0.006 C 
ATOM      7  C   UNL     1     -33.591  26.987   4.937  0.00  0.00    +0.136 C 
ATOM      8  C   UNL     1     -33.977  28.758   2.814  0.00  0.00    +0.004 C 
ATOM      9  C   UNL     1     -35.597  25.750   4.265  0.00  0.00    -0.010 C 
ATOM     10  C   UNL     1     -30.611  29.331   5.435  0.00  0.00    +0.076 C 
ATOM     11  C   UNL     1     -30.804  30.217   4.374  0.00  0.00    +0.048 C 
ATOM     12  C   UNL     1     -31.550  28.212   5.656  0.00  0.00    +0.202 C 
ATOM     13  C   UNL     1     -31.949  30.048   3.455  0.00  0.00    +0.196 C 
ATOM     14  C   UNL     1     -35.981  27.518   2.146  0.00  0.00    +0.037 C 
ATOM     15  C   UNL     1     -36.683  25.582   3.405  0.00  0.00    +0.105 C 
ATOM     16  C   UNL     1     -36.874  26.466   2.347  0.00  0.00    +0.140 C 
ATOM     17  C   UNL     1     -29.522  29.503   6.299  0.00  0.00    +0.140 C 
ATOM     18  C   UNL     1     -35.474  24.747   5.377  0.00  0.00    +0.031 C 
ATOM     19  C   UNL     1     -29.907  31.274   4.174  0.00  0.00    +0.040 C 
ATOM     20  C   UNL     1     -28.823  31.441   5.036  0.00  0.00    +0.137 C 
ATOM     21  C   UNL     1     -28.633  30.558   6.097  0.00  0.00    +0.073 C 
ENDROOT
BRANCH   7  22
ATOM     22  O   UNL     1     -33.386  26.128   5.982  0.00  0.00    -0.505 OA
ATOM     23  H   UNL     1     -32.945  25.314   5.838  0.00  0.00    +0.292 HD
ENDBRANCH   7  22
BRANCH  16  24
ATOM     24  O   UNL     1     -37.928  26.322   1.493  0.00  0.00    -0.505 OA
ATOM     25  H   UNL     1     -38.218  27.051   0.982  0.00  0.00    +0.292 HD
ENDBRANCH  16  24
BRANCH  17  26
ATOM     26  O   UNL     1     -29.275  28.679   7.356  0.00  0.00    -0.505 OA
ATOM     27  H   UNL     1     -29.614  28.887   8.203  0.00  0.00    +0.292 HD
ENDBRANCH  17  26
BRANCH  20  28
ATOM     28  O   UNL     1     -27.953  32.470   4.843  0.00  0.00    -0.505 OA
ATOM     29  H   UNL     1     -27.892  32.880   4.002  0.00  0.00    +0.292 HD
ENDBRANCH  20  28
BRANCH  15  31
ATOM     30  O   UNL     1     -37.409  23.299   3.396  0.00  0.00    -0.245 OA
ATOM     31  C   UNL     1     -37.629  24.486   3.596  0.00  0.00    +0.341 C 
BRANCH  31  32
ATOM     32  O   UNL     1     -38.836  24.935   4.037  0.00  0.00    -0.477 OA
ATOM     33  H   UNL     1     -39.019  24.961   4.955  0.00  0.00    +0.295 HD
ENDBRANCH  31  32
ENDBRANCH  15  31
TORSDOF 6
ENDMDL
MODEL 3
REMARK VINA RESULT:      -6.7      1.295      7.586
REMARK  Name = 196730
REMARK  6 active torsions:
REMARK  status: ('A' for Active; 'I' for Inactive)
REMARK    1  A    between atoms: C_7  and  O_22
REMARK    2  A    between atoms: C_15  and  C_31
REMARK    3  A    between atoms: C_16  and  O_24
REMARK    4  A    between atoms: C_17  and  O_26
REMARK    5  A    between atoms: C_20  and  O_28
REMARK    6  A    between atoms: C_31  and  O_32
REMARK                            x       y       z     vdW  Elec       q    Type
REMARK                         _______ _______ _______ _____ _____    ______ ____
ROOT
ATOM      1  O   UNL     1     -32.864  27.801   1.003  0.00  0.00    -0.286 OA
ATOM      2  O   UNL     1     -32.495  28.219   6.316  0.00  0.00    -0.287 OA
ATOM      3  C   UNL     1     -34.465  24.688   3.343  0.00  0.00    +0.030 C 
ATOM      4  C   UNL     1     -33.328  26.830   3.099  0.00  0.00    +0.076 C 
ATOM      5  C   UNL     1     -33.230  26.942   4.485  0.00  0.00    +0.045 C 
ATOM      6  C   UNL     1     -34.366  24.801   4.748  0.00  0.00    +0.006 C 
ATOM      7  C   UNL     1     -33.943  25.708   2.530  0.00  0.00    +0.136 C 
ATOM      8  C   UNL     1     -33.747  25.932   5.306  0.00  0.00    +0.004 C 
ATOM      9  C   UNL     1     -35.085  23.555   2.788  0.00  0.00    -0.010 C 
ATOM     10  C   UNL     1     -32.139  29.067   2.834  0.00  0.00    +0.076 C 
ATOM     11  C   UNL     1     -32.041  29.179   4.222  0.00  0.00    +0.048 C 
ATOM     12  C   UNL     1     -32.786  27.888   2.221  0.00  0.00    +0.202 C 
ATOM     13  C   UNL     1     -32.583  28.121   5.099  0.00  0.00    +0.196 C 
ATOM     14  C   UNL     1     -34.889  23.780   5.559  0.00  0.00    +0.037 C 
ATOM     15  C   UNL     1     -35.599  22.550   3.607  0.00  0.00    +0.105 C 
ATOM     16  C   UNL     1     -35.501  22.662   4.991  0.00  0.00    +0.140 C 
ATOM     17  C   UNL     1     -31.620  30.076   2.013  0.00  0.00    +0.140 C 
ATOM     18  C   UNL     1     -35.238  23.345   1.308  0.00  0.00    +0.031 C 
ATOM     19  C   UNL     1     -31.426  30.301   4.791  0.00  0.00    +0.040 C 
ATOM     20  C   UNL     1     -30.912  31.305   3.970  0.00  0.00    +0.137 C 
ATOM     21  C   UNL     1     -31.008  31.192   2.584  0.00  0.00    +0.073 C 
ENDROOT
BRANCH   7  22
ATOM     22  O   UNL     1     -34.031  25.616   1.169  0.00  0.00    -0.505 OA
ATOM     23  H   UNL     1     -34.826  25.854   0.734  0.00  0.00    +0.292 HD
ENDBRANCH   7  22
BRANCH  16  24
ATOM     24  O   UNL     1     -35.996  21.692   5.811  0.00  0.00    -0.505 OA
ATOM     25  H   UNL     1     -36.616  21.072   5.482  0.00  0.00    +0.292 HD
ENDBRANCH  16  24
BRANCH  17  26
ATOM     26  O   UNL     1     -31.679  30.032   0.652  0.00  0.00    -0.505 OA
ATOM     27  H   UNL     1     -31.011  29.589   0.168  0.00  0.00    +0.292 HD
ENDBRANCH  17  26
BRANCH  20  28
ATOM     28  O   UNL     1     -30.312  32.395   4.523  0.00  0.00    -0.505 OA
ATOM     29  H   UNL     1     -30.192  33.172   4.012  0.00  0.00    +0.292 HD
ENDBRANCH  20  28
BRANCH  15  31
ATOM     30  O   UNL     1     -35.725  20.276   2.863  0.00  0.00    -0.245 OA
ATOM     31  C   UNL     1     -36.244  21.371   3.034  0.00  0.00    +0.341 C 
BRANCH  31  32
ATOM     32  O   UNL     1     -37.538  21.621   2.694  0.00  0.00    -0.477 OA
ATOM     33  H   UNL     1     -38.047  20.959   2.270  0.00  0.00    +0.295 HD
ENDBRANCH  31  32
ENDBRANCH  15  31
TORSDOF 6
ENDMDL
MODEL 4
REMARK VINA RESULT:      -6.7      1.214      8.265
REMARK  Name = 196730
REMARK  6 active torsions:
REMARK  status: ('A' for Active; 'I' for Inactive)
REMARK    1  A    between atoms: C_7  and  O_22
REMARK    2  A    between atoms: C_15  and  C_31
REMARK    3  A    between atoms: C_16  and  O_24
REMARK    4  A    between atoms: C_17  and  O_26
REMARK    5  A    between atoms: C_20  and  O_28
REMARK    6  A    between atoms: C_31  and  O_32
REMARK                            x       y       z     vdW  Elec       q    Type
REMARK                         _______ _______ _______ _____ _____    ______ ____
ROOT
ATOM      1  O   UNL     1     -33.268  26.303   6.372  0.00  0.00    -0.286 OA
ATOM      2  O   UNL     1     -32.784  28.479   1.517  0.00  0.00    -0.287 OA
ATOM      3  C   UNL     1     -34.803  24.161   3.089  0.00  0.00    +0.030 C 
ATOM      4  C   UNL     1     -33.678  26.092   4.061  0.00  0.00    +0.076 C 
ATOM      5  C   UNL     1     -33.550  26.663   2.796  0.00  0.00    +0.045 C 
ATOM      6  C   UNL     1     -34.674  24.739   1.805  0.00  0.00    +0.006 C 
ATOM      7  C   UNL     1     -34.302  24.847   4.207  0.00  0.00    +0.136 C 
ATOM      8  C   UNL     1     -34.046  25.989   1.673  0.00  0.00    +0.004 C 
ATOM      9  C   UNL     1     -35.432  22.911   3.217  0.00  0.00    -0.010 C 
ATOM     10  C   UNL     1     -32.505  28.106   5.088  0.00  0.00    +0.076 C 
ATOM     11  C   UNL     1     -32.377  28.677   3.821  0.00  0.00    +0.048 C 
ATOM     12  C   UNL     1     -33.161  26.793   5.255  0.00  0.00    +0.202 C 
ATOM     13  C   UNL     1     -32.895  27.977   2.628  0.00  0.00    +0.196 C 
ATOM     14  C   UNL     1     -35.176  24.052   0.688  0.00  0.00    +0.037 C 
ATOM     15  C   UNL     1     -35.926  22.241   2.098  0.00  0.00    +0.105 C 
ATOM     16  C   UNL     1     -35.798  22.811   0.835  0.00  0.00    +0.140 C 
ATOM     17  C   UNL     1     -32.011  28.781   6.212  0.00  0.00    +0.140 C 
ATOM     18  C   UNL     1     -35.616  22.217   4.537  0.00  0.00    +0.031 C 
ATOM     19  C   UNL     1     -31.754  29.923   3.675  0.00  0.00    +0.040 C 
ATOM     20  C   UNL     1     -31.262  30.591   4.797  0.00  0.00    +0.137 C 
ATOM     21  C   UNL     1     -31.391  30.021   6.062  0.00  0.00    +0.073 C 
ENDROOT
BRANCH   7  22
ATOM     22  O   UNL     1     -34.417  24.302   5.456  0.00  0.00    -0.505 OA
ATOM     23  H   UNL     1     -33.828  23.627   5.728  0.00  0.00    +0.292 HD
ENDBRANCH   7  22
BRANCH  16  24
ATOM     24  O   UNL     1     -36.273  22.176  -0.275  0.00  0.00    -0.505 OA
ATOM     25  H   UNL     1     -36.793  21.402  -0.183  0.00  0.00    +0.292 HD
ENDBRANCH  16  24
BRANCH  17  26
ATOM     26  O   UNL     1     -32.103  28.284   7.478  0.00  0.00    -0.505 OA
ATOM     27  H   UNL     1     -32.589  28.748   8.130  0.00  0.00    +0.292 HD
ENDBRANCH  17  26
BRANCH  20  28
ATOM     28  O   UNL     1     -30.657  31.803   4.656  0.00  0.00    -0.505 OA
ATOM     29  H   UNL     1     -30.234  32.203   5.390  0.00  0.00    +0.292 HD
ENDBRANCH  20  28
BRANCH  15  31
ATOM     30  O   UNL     1     -36.018  19.858   2.324  0.00  0.00    -0.245 OA
ATOM     31  C   UNL     1     -36.579  20.942   2.228  0.00  0.00    +0.341 C 
BRANCH  31  32
ATOM     32  O   UNL     1     -37.935  21.058   2.231  0.00  0.00    -0.477 OA
ATOM     33  H   UNL     1     -38.372  21.472   1.514  0.00  0.00    +0.295 HD
ENDBRANCH  31  32
ENDBRANCH  15  31
TORSDOF 6
ENDMDL
MODEL 5
REMARK VINA RESULT:      -6.7      5.930      9.668
REMARK  Name = 196730
REMARK  6 active torsions:
REMARK  status: ('A' for Active; 'I' for Inactive)
REMARK    1  A    between atoms: C_7  and  O_22
REMARK    2  A    between atoms: C_15  and  C_31
REMARK    3  A    between atoms: C_16  and  O_24
REMARK    4  A    between atoms: C_17  and  O_26
REMARK    5  A    between atoms: C_20  and  O_28
REMARK    6  A    between atoms: C_31  and  O_32
REMARK                            x       y       z     vdW  Elec       q    Type
REMARK                         _______ _______ _______ _____ _____    ______ ____
ROOT
ATOM      1  O   UNL     1     -38.907  20.230   0.173  0.00  0.00    -0.286 OA
ATOM      2  O   UNL     1     -35.316  22.688   3.272  0.00  0.00    -0.287 OA
ATOM      3  C   UNL     1     -35.042  18.575   0.408  0.00  0.00    +0.030 C 
ATOM      4  C   UNL     1     -36.703  20.255   1.008  0.00  0.00    +0.076 C 
ATOM      5  C   UNL     1     -35.769  20.899   1.817  0.00  0.00    +0.045 C 
ATOM      6  C   UNL     1     -34.094  19.228   1.229  0.00  0.00    +0.006 C 
ATOM      7  C   UNL     1     -36.341  19.099   0.307  0.00  0.00    +0.136 C 
ATOM      8  C   UNL     1     -34.469  20.388   1.927  0.00  0.00    +0.004 C 
ATOM      9  C   UNL     1     -34.662  17.416  -0.288  0.00  0.00    -0.010 C 
ATOM     10  C   UNL     1     -38.446  22.006   1.626  0.00  0.00    +0.076 C 
ATOM     11  C   UNL     1     -37.510  22.651   2.437  0.00  0.00    +0.048 C 
ATOM     12  C   UNL     1     -38.077  20.785   0.882  0.00  0.00    +0.202 C 
ATOM     13  C   UNL     1     -36.137  22.121   2.563  0.00  0.00    +0.196 C 
ATOM     14  C   UNL     1     -32.795  18.703   1.330  0.00  0.00    +0.037 C 
ATOM     15  C   UNL     1     -33.368  16.908  -0.179  0.00  0.00    +0.105 C 
ATOM     16  C   UNL     1     -32.435  17.551   0.630  0.00  0.00    +0.140 C 
ATOM     17  C   UNL     1     -39.745  22.519   1.515  0.00  0.00    +0.140 C 
ATOM     18  C   UNL     1     -35.597  16.653  -1.184  0.00  0.00    +0.031 C 
ATOM     19  C   UNL     1     -37.872  23.808   3.138  0.00  0.00    +0.040 C 
ATOM     20  C   UNL     1     -39.167  24.315   3.025  0.00  0.00    +0.137 C 
ATOM     21  C   UNL     1     -40.100  23.672   2.214  0.00  0.00    +0.073 C 
ENDROOT
BRANCH   7  22
ATOM     22  O   UNL     1     -37.272  18.480  -0.482  0.00  0.00    -0.505 OA
ATOM     23  H   UNL     1     -37.856  17.849  -0.109  0.00  0.00    +0.292 HD
ENDBRANCH   7  22
BRANCH  16  24
ATOM     24  O   UNL     1     -31.164  17.073   0.754  0.00  0.00    -0.505 OA
ATOM     25  H   UNL     1     -30.621  17.366   1.459  0.00  0.00    +0.292 HD
ENDBRANCH  16  24
BRANCH  17  26
ATOM     26  O   UNL     1     -40.708  21.944   0.741  0.00  0.00    -0.505 OA
ATOM     27  H   UNL     1     -41.612  22.128   0.902  0.00  0.00    +0.292 HD
ENDBRANCH  17  26
BRANCH  20  28
ATOM     28  O   UNL     1     -39.518  25.441   3.705  0.00  0.00    -0.505 OA
ATOM     29  H   UNL     1     -39.635  26.248   3.245  0.00  0.00    +0.292 HD
ENDBRANCH  20  28
BRANCH  15  31
ATOM     30  O   UNL     1     -32.823  15.603  -2.113  0.00  0.00    -0.245 OA
ATOM     31  C   UNL     1     -32.970  15.703  -0.901  0.00  0.00    +0.341 C 
BRANCH  31  32
ATOM     32  O   UNL     1     -32.769  14.654  -0.058  0.00  0.00    -0.477 OA
ATOM     33  H   UNL     1     -32.144  13.991  -0.275  0.00  0.00    +0.295 HD
ENDBRANCH  31  32
ENDBRANCH  15  31
TORSDOF 6
ENDMDL
MODEL 6
REMARK VINA RESULT:      -6.6      2.356      7.852
REMARK  Name = 196730
REMARK  6 active torsions:
REMARK  status: ('A' for Active; 'I' for Inactive)
REMARK    1  A    between atoms: C_7  and  O_22
REMARK    2  A    between atoms: C_15  and  C_31
REMARK    3  A    between atoms: C_16  and  O_24
REMARK    4  A    between atoms: C_17  and  O_26
REMARK    5  A    between atoms: C_20  and  O_28
REMARK    6  A    between atoms: C_31  and  O_32
REMARK                            x       y       z     vdW  Elec       q    Type
REMARK                         _______ _______ _______ _____ _____    ______ ____
ROOT
ATOM      1  O   UNL     1     -33.874  30.278   2.506  0.00  0.00    -0.286 OA
ATOM      2  O   UNL     1     -30.969  27.739   6.202  0.00  0.00    -0.287 OA
ATOM      3  C   UNL     1     -35.212  26.508   3.821  0.00  0.00    +0.030 C 
ATOM      4  C   UNL     1     -33.631  28.363   3.858  0.00  0.00    +0.076 C 
ATOM      5  C   UNL     1     -32.871  27.703   4.822  0.00  0.00    +0.045 C 
ATOM      6  C   UNL     1     -34.442  25.839   4.799  0.00  0.00    +0.006 C 
ATOM      7  C   UNL     1     -34.796  27.768   3.360  0.00  0.00    +0.136 C 
ATOM      8  C   UNL     1     -33.275  26.446   5.291  0.00  0.00    +0.004 C 
ATOM      9  C   UNL     1     -36.380  25.898   3.331  0.00  0.00    -0.010 C 
ATOM     10  C   UNL     1     -31.984  30.305   3.888  0.00  0.00    +0.076 C 
ATOM     11  C   UNL     1     -31.222  29.644   4.853  0.00  0.00    +0.048 C 
ATOM     12  C   UNL     1     -33.216  29.689   3.354  0.00  0.00    +0.202 C 
ATOM     13  C   UNL     1     -31.638  28.319   5.357  0.00  0.00    +0.196 C 
ATOM     14  C   UNL     1     -34.859  24.579   5.259  0.00  0.00    +0.037 C 
ATOM     15  C   UNL     1     -36.780  24.646   3.798  0.00  0.00    +0.105 C 
ATOM     16  C   UNL     1     -36.021  23.987   4.761  0.00  0.00    +0.140 C 
ATOM     17  C   UNL     1     -31.579  31.561   3.418  0.00  0.00    +0.140 C 
ATOM     18  C   UNL     1     -37.262  26.529   2.293  0.00  0.00    +0.031 C 
ATOM     19  C   UNL     1     -30.057  30.239   5.352  0.00  0.00    +0.040 C 
ATOM     20  C   UNL     1     -29.657  31.490   4.882  0.00  0.00    +0.137 C 
ATOM     21  C   UNL     1     -30.416  32.149   3.917  0.00  0.00    +0.073 C 
ENDROOT
BRANCH   7  22
ATOM     22  O   UNL     1     -35.530  28.431   2.415  0.00  0.00    -0.505 OA
ATOM     23  H   UNL     1     -36.076  27.950   1.824  0.00  0.00    +0.292 HD
ENDBRANCH   7  22
BRANCH  16  24
ATOM     24  O   UNL     1     -36.392  22.763   5.233  0.00  0.00    -0.505 OA
ATOM     25  H   UNL     1     -35.842  22.019   5.087  0.00  0.00    +0.292 HD
ENDBRANCH  16  24
BRANCH  17  26
ATOM     26  O   UNL     1     -32.271  32.261   2.476  0.00  0.00    -0.505 OA
ATOM     27  H   UNL     1     -31.811  32.761   1.831  0.00  0.00    +0.292 HD
ENDBRANCH  17  26
BRANCH  20  28
ATOM     28  O   UNL     1     -28.523  32.068   5.365  0.00  0.00    -0.505 OA
ATOM     29  H   UNL     1     -27.743  32.074   4.845  0.00  0.00    +0.292 HD
ENDBRANCH  20  28
BRANCH  15  31
ATOM     30  O   UNL     1     -38.041  23.077   2.498  0.00  0.00    -0.245 OA
ATOM     31  C   UNL     1     -37.992  24.008   3.292  0.00  0.00    +0.341 C 
BRANCH  31  32
ATOM     32  O   UNL     1     -39.114  24.575   3.813  0.00  0.00    -0.477 OA
ATOM     33  H   UNL     1     -39.102  24.927   4.681  0.00  0.00    +0.295 HD
ENDBRANCH  31  32
ENDBRANCH  15  31
TORSDOF 6
ENDMDL
MODEL 7
REMARK VINA RESULT:      -6.5      3.394      7.997
REMARK  Name = 196730
REMARK  6 active torsions:
REMARK  status: ('A' for Active; 'I' for Inactive)
REMARK    1  A    between atoms: C_7  and  O_22
REMARK    2  A    between atoms: C_15  and  C_31
REMARK    3  A    between atoms: C_16  and  O_24
REMARK    4  A    between atoms: C_17  and  O_26
REMARK    5  A    between atoms: C_20  and  O_28
REMARK    6  A    between atoms: C_31  and  O_32
REMARK                            x       y       z     vdW  Elec       q    Type
REMARK                         _______ _______ _______ _____ _____    ______ ____
ROOT
ATOM      1  O   UNL     1     -33.639  29.322   3.917  0.00  0.00    -0.286 OA
ATOM      2  O   UNL     1     -37.293  28.836   0.050  0.00  0.00    -0.287 OA
ATOM      3  C   UNL     1     -35.619  25.626   3.527  0.00  0.00    +0.030 C 
ATOM      4  C   UNL     1     -35.208  27.929   2.843  0.00  0.00    +0.076 C 
ATOM      5  C   UNL     1     -36.160  27.806   1.833  0.00  0.00    +0.045 C 
ATOM      6  C   UNL     1     -36.586  25.501   2.502  0.00  0.00    +0.006 C 
ATOM      7  C   UNL     1     -34.938  26.844   3.686  0.00  0.00    +0.136 C 
ATOM      8  C   UNL     1     -36.846  26.597   1.663  0.00  0.00    +0.004 C 
ATOM      9  C   UNL     1     -35.361  24.528   4.364  0.00  0.00    -0.010 C 
ATOM     10  C   UNL     1     -34.771  30.337   2.137  0.00  0.00    +0.076 C 
ATOM     11  C   UNL     1     -35.725  30.214   1.126  0.00  0.00    +0.048 C 
ATOM     12  C   UNL     1     -34.477  29.200   3.033  0.00  0.00    +0.202 C 
ATOM     13  C   UNL     1     -36.455  28.943   0.936  0.00  0.00    +0.196 C 
ATOM     14  C   UNL     1     -37.266  24.282   2.345  0.00  0.00    +0.037 C 
ATOM     15  C   UNL     1     -36.046  23.324   4.195  0.00  0.00    +0.105 C 
ATOM     16  C   UNL     1     -36.997  23.202   3.187  0.00  0.00    +0.140 C 
ATOM     17  C   UNL     1     -34.086  31.547   2.307  0.00  0.00    +0.140 C 
ATOM     18  C   UNL     1     -34.355  24.564   5.479  0.00  0.00    +0.031 C 
ATOM     19  C   UNL     1     -35.994  31.298   0.282  0.00  0.00    +0.040 C 
ATOM     20  C   UNL     1     -35.310  32.502   0.454  0.00  0.00    +0.137 C 
ATOM     21  C   UNL     1     -34.358  32.625   1.466  0.00  0.00    +0.073 C 
ENDROOT
BRANCH   7  22
ATOM     22  O   UNL     1     -34.000  26.984   4.671  0.00  0.00    -0.505 OA
ATOM     23  H   UNL     1     -33.438  27.733   4.679  0.00  0.00    +0.292 HD
ENDBRANCH   7  22
BRANCH  16  24
ATOM     24  O   UNL     1     -37.679  22.035   3.001  0.00  0.00    -0.505 OA
ATOM     25  H   UNL     1     -38.375  21.995   2.375  0.00  0.00    +0.292 HD
ENDBRANCH  16  24
BRANCH  17  26
ATOM     26  O   UNL     1     -33.145  31.740   3.274  0.00  0.00    -0.505 OA
ATOM     27  H   UNL     1     -32.455  32.358   3.141  0.00  0.00    +0.292 HD
ENDBRANCH  17  26
BRANCH  20  28
ATOM     28  O   UNL     1     -35.573  33.557  -0.364  0.00  0.00    -0.505 OA
ATOM     29  H   UNL     1     -36.389  34.013  -0.293  0.00  0.00    +0.292 HD
ENDBRANCH  20  28
BRANCH  15  31
ATOM     30  O   UNL     1     -35.919  22.150   6.280  0.00  0.00    -0.245 OA
ATOM     31  C   UNL     1     -35.780  22.181   5.063  0.00  0.00    +0.341 C 
BRANCH  31  32
ATOM     32  O   UNL     1     -35.344  21.103   4.357  0.00  0.00    -0.477 OA
ATOM     33  H   UNL     1     -35.371  20.249   4.740  0.00  0.00    +0.295 HD
ENDBRANCH  31  32
ENDBRANCH  15  31
TORSDOF 6
ENDMDL
MODEL 8
REMARK VINA RESULT:      -6.4      4.033      6.858
REMARK  Name = 196730
REMARK  6 active torsions:
REMARK  status: ('A' for Active; 'I' for Inactive)
REMARK    1  A    between atoms: C_7  and  O_22
REMARK    2  A    between atoms: C_15  and  C_31
REMARK    3  A    between atoms: C_16  and  O_24
REMARK    4  A    between atoms: C_17  and  O_26
REMARK    5  A    between atoms: C_20  and  O_28
REMARK    6  A    between atoms: C_31  and  O_32
REMARK                            x       y       z     vdW  Elec       q    Type
REMARK                         _______ _______ _______ _____ _____    ______ ____
ROOT
ATOM      1  O   UNL     1     -35.077  19.353   1.283  0.00  0.00    -0.286 OA
ATOM      2  O   UNL     1     -40.022  20.357  -0.472  0.00  0.00    -0.287 OA
ATOM      3  C   UNL     1     -36.921  22.930   2.521  0.00  0.00    +0.030 C 
ATOM      4  C   UNL     1     -36.914  20.829   1.285  0.00  0.00    +0.076 C 
ATOM      5  C   UNL     1     -38.204  21.088   0.825  0.00  0.00    +0.045 C 
ATOM      6  C   UNL     1     -38.230  23.193   2.055  0.00  0.00    +0.006 C 
ATOM      7  C   UNL     1     -36.275  21.746   2.129  0.00  0.00    +0.136 C 
ATOM      8  C   UNL     1     -38.859  22.265   1.209  0.00  0.00    +0.004 C 
ATOM      9  C   UNL     1     -36.295  23.860   3.368  0.00  0.00    -0.010 C 
ATOM     10  C   UNL     1     -36.895  18.633  -0.004  0.00  0.00    +0.076 C 
ATOM     11  C   UNL     1     -38.187  18.892  -0.465  0.00  0.00    +0.048 C 
ATOM     12  C   UNL     1     -36.211  19.592   0.887  0.00  0.00    +0.202 C 
ATOM     13  C   UNL     1     -38.890  20.129  -0.066  0.00  0.00    +0.196 C 
ATOM     14  C   UNL     1     -38.874  24.378   2.449  0.00  0.00    +0.037 C 
ATOM     15  C   UNL     1     -36.948  25.032   3.748  0.00  0.00    +0.105 C 
ATOM     16  C   UNL     1     -38.236  25.291   3.289  0.00  0.00    +0.140 C 
ATOM     17  C   UNL     1     -36.240  17.456  -0.390  0.00  0.00    +0.140 C 
ATOM     18  C   UNL     1     -34.908  23.670   3.913  0.00  0.00    +0.031 C 
ATOM     19  C   UNL     1     -38.826  17.976  -1.309  0.00  0.00    +0.040 C 
ATOM     20  C   UNL     1     -38.170  16.805  -1.690  0.00  0.00    +0.137 C 
ATOM     21  C   UNL     1     -36.879  16.547  -1.231  0.00  0.00    +0.073 C 
ENDROOT
BRANCH   7  22
ATOM     22  O   UNL     1     -35.010  21.474   2.571  0.00  0.00    -0.505 OA
ATOM     23  H   UNL     1     -34.883  21.058   3.400  0.00  0.00    +0.292 HD
ENDBRANCH   7  22
BRANCH  16  24
ATOM     24  O   UNL     1     -38.895  26.429   3.648  0.00  0.00    -0.505 OA
ATOM     25  H   UNL     1     -38.416  27.162   3.981  0.00  0.00    +0.292 HD
ENDBRANCH  16  24
BRANCH  17  26
ATOM     26  O   UNL     1     -34.979  17.140   0.019  0.00  0.00    -0.505 OA
ATOM     27  H   UNL     1     -34.792  16.281   0.343  0.00  0.00    +0.292 HD
ENDBRANCH  17  26
BRANCH  20  28
ATOM     28  O   UNL     1     -38.790  15.914  -2.512  0.00  0.00    -0.505 OA
ATOM     29  H   UNL     1     -38.682  14.994  -2.371  0.00  0.00    +0.292 HD
ENDBRANCH  20  28
BRANCH  15  31
ATOM     30  O   UNL     1     -36.125  25.878   5.833  0.00  0.00    -0.245 OA
ATOM     31  C   UNL     1     -36.300  26.001   4.628  0.00  0.00    +0.341 C 
BRANCH  31  32
ATOM     32  O   UNL     1     -35.891  27.105   3.946  0.00  0.00    -0.477 OA
ATOM     33  H   UNL     1     -36.393  27.895   3.987  0.00  0.00    +0.295 HD
ENDBRANCH  31  32
ENDBRANCH  15  31
TORSDOF 6
ENDMDL
MODEL 9
REMARK VINA RESULT:      -6.3     11.505     12.810
REMARK  Name = 196730
REMARK  6 active torsions:
REMARK  status: ('A' for Active; 'I' for Inactive)
REMARK    1  A    between atoms: C_7  and  O_22
REMARK    2  A    between atoms: C_15  and  C_31
REMARK    3  A    between atoms: C_16  and  O_24
REMARK    4  A    between atoms: C_17  and  O_26
REMARK    5  A    between atoms: C_20  and  O_28
REMARK    6  A    between atoms: C_31  and  O_32
REMARK                            x       y       z     vdW  Elec       q    Type
REMARK                         _______ _______ _______ _____ _____    ______ ____
ROOT
ATOM      1  O   UNL     1     -47.949  24.327   5.781  0.00  0.00    -0.286 OA
ATOM      2  O   UNL     1     -44.853  25.547   1.602  0.00  0.00    -0.287 OA
ATOM      3  C   UNL     1     -45.527  27.760   6.056  0.00  0.00    +0.030 C 
ATOM      4  C   UNL     1     -46.363  25.808   4.861  0.00  0.00    +0.076 C 
ATOM      5  C   UNL     1     -45.557  26.123   3.768  0.00  0.00    +0.045 C 
ATOM      6  C   UNL     1     -44.708  28.081   4.948  0.00  0.00    +0.006 C 
ATOM      7  C   UNL     1     -46.349  26.622   5.999  0.00  0.00    +0.136 C 
ATOM      8  C   UNL     1     -44.733  27.255   3.812  0.00  0.00    +0.004 C 
ATOM      9  C   UNL     1     -45.500  28.589   7.191  0.00  0.00    -0.010 C 
ATOM     10  C   UNL     1     -47.243  23.764   3.621  0.00  0.00    +0.076 C 
ATOM     11  C   UNL     1     -46.435  24.080   2.528  0.00  0.00    +0.048 C 
ATOM     12  C   UNL     1     -47.237  24.616   4.828  0.00  0.00    +0.202 C 
ATOM     13  C   UNL     1     -45.563  25.271   2.561  0.00  0.00    +0.196 C 
ATOM     14  C   UNL     1     -43.887  29.219   5.007  0.00  0.00    +0.037 C 
ATOM     15  C   UNL     1     -44.678  29.715   7.233  0.00  0.00    +0.105 C 
ATOM     16  C   UNL     1     -43.873  30.029   6.142  0.00  0.00    +0.140 C 
ATOM     17  C   UNL     1     -48.066  22.631   3.578  0.00  0.00    +0.140 C 
ATOM     18  C   UNL     1     -46.332  28.331   8.415  0.00  0.00    +0.031 C 
ATOM     19  C   UNL     1     -46.450  23.265   1.389  0.00  0.00    +0.040 C 
ATOM     20  C   UNL     1     -47.272  22.138   1.349  0.00  0.00    +0.137 C 
ATOM     21  C   UNL     1     -48.077  21.822   2.442  0.00  0.00    +0.073 C 
ENDROOT
BRANCH   7  22
ATOM     22  O   UNL     1     -47.147  26.298   7.060  0.00  0.00    -0.505 OA
ATOM     23  H   UNL     1     -46.762  26.079   7.886  0.00  0.00    +0.292 HD
ENDBRANCH   7  22
BRANCH  16  24
ATOM     24  O   UNL     1     -43.062  31.126   6.160  0.00  0.00    -0.505 OA
ATOM     25  H   UNL     1     -42.181  31.051   6.472  0.00  0.00    +0.292 HD
ENDBRANCH  16  24
BRANCH  17  26
ATOM     26  O   UNL     1     -48.877  22.261   4.608  0.00  0.00    -0.505 OA
ATOM     27  H   UNL     1     -48.533  21.761   5.321  0.00  0.00    +0.292 HD
ENDBRANCH  17  26
BRANCH  20  28
ATOM     28  O   UNL     1     -47.285  21.344   0.243  0.00  0.00    -0.505 OA
ATOM     29  H   UNL     1     -47.155  20.420   0.329  0.00  0.00    +0.292 HD
ENDBRANCH  20  28
BRANCH  15  31
ATOM     30  O   UNL     1     -45.608  31.147   8.914  0.00  0.00    -0.245 OA
ATOM     31  C   UNL     1     -44.647  30.578   8.410  0.00  0.00    +0.341 C 
BRANCH  31  32
ATOM     32  O   UNL     1     -43.390  30.694   8.918  0.00  0.00    -0.477 OA
ATOM     33  H   UNL     1     -42.970  31.530   8.943  0.00  0.00    +0.295 HD
ENDBRANCH  31  32
ENDBRANCH  15  31
TORSDOF 6
ENDMDL
