MODEL 1
REMARK VINA RESULT:      -5.1      0.000      0.000
REMARK  Name = 57376616
REMARK  6 active torsions:
REMARK  status: ('A' for Active; 'I' for Inactive)
REMARK    1  A    between atoms: C_2  and  O_12
REMARK    2  A    between atoms: C_3  and  N_8
REMARK    3  A    between atoms: C_4  and  O_14
REMARK    4  A    between atoms: C_5  and  C_18
REMARK    5  A    between atoms: C_6  and  O_16
REMARK    6  A    between atoms: C_18  and  O_19
REMARK                            x       y       z     vdW  Elec       q    Type
REMARK                         _______ _______ _______ _____ _____    ______ ____
ROOT
ATOM      1  O   UNL     1     -38.885  22.992   2.546  0.00  0.00    -0.327 OA
ATOM      2  C   UNL     1     -36.167  22.548   1.765  0.00  0.00    +0.162 C 
ATOM      3  C   UNL     1     -36.508  23.381   3.008  0.00  0.00    +0.158 C 
ATOM      4  C   UNL     1     -37.270  21.545   1.418  0.00  0.00    +0.169 C 
ATOM      5  C   UNL     1     -38.617  22.279   1.332  0.00  0.00    +0.176 C 
ATOM      6  C   UNL     1     -37.911  23.988   2.875  0.00  0.00    +0.253 C 
ENDROOT
BRANCH   3   8
ATOM      7  O   UNL     1     -34.615  23.748   5.180  0.00  0.00    -0.275 OA
ATOM      8  N   UNL     1     -36.407  22.607   4.228  0.00  0.00    -0.299 N 
ATOM      9  C   UNL     1     -35.464  22.861   5.208  0.00  0.00    +0.223 C 
ATOM     10  C   UNL     1     -35.597  21.924   6.380  0.00  0.00    +0.095 C 
ATOM     11  H   UNL     1     -37.038  21.864   4.364  0.00  0.00    +0.150 HD
ENDBRANCH   3   8
BRANCH   2  12
ATOM     12  O   UNL     1     -34.913  21.897   1.933  0.00  0.00    -0.380 OA
ATOM     13  H   UNL     1     -34.529  21.705   1.064  0.00  0.00    +0.211 HD
ENDBRANCH   2  12
BRANCH   4  14
ATOM     14  O   UNL     1     -37.316  20.530   2.421  0.00  0.00    -0.379 OA
ATOM     15  H   UNL     1     -37.023  19.687   2.041  0.00  0.00    +0.211 HD
ENDBRANCH   4  14
BRANCH   6  16
ATOM     16  O   UNL     1     -37.877  25.045   1.917  0.00  0.00    -0.359 OA
ATOM     17  H   UNL     1     -38.456  24.824   1.171  0.00  0.00    +0.213 HD
ENDBRANCH   6  16
BRANCH   5  18
ATOM     18  C   UNL     1     -39.791  21.335   1.095  0.00  0.00    +0.169 C 
BRANCH  18  19
ATOM     19  O   UNL     1     -40.312  20.939   2.349  0.00  0.00    -0.379 OA
ATOM     20  H   UNL     1     -41.087  20.372   2.213  0.00  0.00    +0.211 HD
ENDBRANCH  18  19
ENDBRANCH   5  18
TORSDOF 6
ENDMDL
MODEL 2
REMARK VINA RESULT:      -4.9      2.539      4.694
REMARK  Name = 57376616
REMARK  6 active torsions:
REMARK  status: ('A' for Active; 'I' for Inactive)
REMARK    1  A    between atoms: C_2  and  O_12
REMARK    2  A    between atoms: C_3  and  N_8
REMARK    3  A    between atoms: C_4  and  O_14
REMARK    4  A    between atoms: C_5  and  C_18
REMARK    5  A    between atoms: C_6  and  O_16
REMARK    6  A    between atoms: C_18  and  O_19
REMARK                            x       y       z     vdW  Elec       q    Type
REMARK                         _______ _______ _______ _____ _____    ______ ____
ROOT
ATOM      1  O   UNL     1     -34.562  25.187   2.906  0.00  0.00    -0.327 OA
ATOM      2  C   UNL     1     -37.394  24.874   3.191  0.00  0.00    +0.162 C 
ATOM      3  C   UNL     1     -36.449  23.670   3.301  0.00  0.00    +0.158 C 
ATOM      4  C   UNL     1     -36.698  26.191   3.542  0.00  0.00    +0.169 C 
ATOM      5  C   UNL     1     -35.412  26.325   2.713  0.00  0.00    +0.176 C 
ATOM      6  C   UNL     1     -35.150  23.939   2.527  0.00  0.00    +0.253 C 
ENDROOT
BRANCH   3   8
ATOM      7  O   UNL     1     -35.344  21.180   4.309  0.00  0.00    -0.275 OA
ATOM      8  N   UNL     1     -36.155  23.331   4.677  0.00  0.00    -0.299 N 
ATOM      9  C   UNL     1     -35.627  22.111   5.060  0.00  0.00    +0.223 C 
ATOM     10  C   UNL     1     -35.397  22.031   6.546  0.00  0.00    +0.095 C 
ATOM     11  H   UNL     1     -36.340  24.001   5.374  0.00  0.00    +0.150 HD
ENDBRANCH   3   8
BRANCH   2  12
ATOM     12  O   UNL     1     -38.550  24.672   3.995  0.00  0.00    -0.380 OA
ATOM     13  H   UNL     1     -38.299  24.691   4.932  0.00  0.00    +0.211 HD
ENDBRANCH   2  12
BRANCH   4  14
ATOM     14  O   UNL     1     -36.398  26.208   4.937  0.00  0.00    -0.379 OA
ATOM     15  H   UNL     1     -37.112  25.771   5.427  0.00  0.00    +0.211 HD
ENDBRANCH   4  14
BRANCH   6  16
ATOM     16  O   UNL     1     -35.415  23.870   1.127  0.00  0.00    -0.359 OA
ATOM     17  H   UNL     1     -36.315  23.537   0.984  0.00  0.00    +0.213 HD
ENDBRANCH   6  16
BRANCH   5  18
ATOM     18  C   UNL     1     -34.598  27.562   3.077  0.00  0.00    +0.169 C 
BRANCH  18  19
ATOM     19  O   UNL     1     -35.492  28.624   3.355  0.00  0.00    -0.379 OA
ATOM     20  H   UNL     1     -36.124  28.345   4.036  0.00  0.00    +0.211 HD
ENDBRANCH  18  19
ENDBRANCH   5  18
TORSDOF 6
ENDMDL
MODEL 3
REMARK VINA RESULT:      -4.9      2.394      3.941
REMARK  Name = 57376616
REMARK  6 active torsions:
REMARK  status: ('A' for Active; 'I' for Inactive)
REMARK    1  A    between atoms: C_2  and  O_12
REMARK    2  A    between atoms: C_3  and  N_8
REMARK    3  A    between atoms: C_4  and  O_14
REMARK    4  A    between atoms: C_5  and  C_18
REMARK    5  A    between atoms: C_6  and  O_16
REMARK    6  A    between atoms: C_18  and  O_19
REMARK                            x       y       z     vdW  Elec       q    Type
REMARK                         _______ _______ _______ _____ _____    ______ ____
ROOT
ATOM      1  O   UNL     1     -35.289  22.397   3.996  0.00  0.00    -0.327 OA
ATOM      2  C   UNL     1     -37.106  24.587   4.311  0.00  0.00    +0.162 C 
ATOM      3  C   UNL     1     -35.717  24.610   4.963  0.00  0.00    +0.158 C 
ATOM      4  C   UNL     1     -37.151  23.684   3.076  0.00  0.00    +0.169 C 
ATOM      5  C   UNL     1     -36.605  22.295   3.438  0.00  0.00    +0.176 C 
ATOM      6  C   UNL     1     -35.211  23.179   5.192  0.00  0.00    +0.253 C 
ENDROOT
BRANCH   3   8
ATOM      7  O   UNL     1     -33.920  26.689   5.901  0.00  0.00    -0.275 OA
ATOM      8  N   UNL     1     -34.760  25.364   4.182  0.00  0.00    -0.299 N 
ATOM      9  C   UNL     1     -33.944  26.341   4.724  0.00  0.00    +0.223 C 
ATOM     10  C   UNL     1     -33.028  26.951   3.696  0.00  0.00    +0.095 C 
ATOM     11  H   UNL     1     -34.688  25.173   3.219  0.00  0.00    +0.150 HD
ENDBRANCH   3   8
BRANCH   2  12
ATOM     12  O   UNL     1     -37.529  25.909   3.999  0.00  0.00    -0.380 OA
ATOM     13  H   UNL     1     -37.721  26.389   4.820  0.00  0.00    +0.211 HD
ENDBRANCH   2  12
BRANCH   4  14
ATOM     14  O   UNL     1     -36.372  24.272   2.034  0.00  0.00    -0.379 OA
ATOM     15  H   UNL     1     -36.631  23.890   1.181  0.00  0.00    +0.211 HD
ENDBRANCH   4  14
BRANCH   6  16
ATOM     16  O   UNL     1     -35.939  22.589   6.269  0.00  0.00    -0.359 OA
ATOM     17  H   UNL     1     -36.517  21.891   5.924  0.00  0.00    +0.213 HD
ENDBRANCH   6  16
BRANCH   5  18
ATOM     18  C   UNL     1     -36.515  21.362   2.236  0.00  0.00    +0.169 C 
BRANCH  18  19
ATOM     19  O   UNL     1     -36.663  20.029   2.688  0.00  0.00    -0.379 OA
ATOM     20  H   UNL     1     -37.547  19.913   3.069  0.00  0.00    +0.211 HD
ENDBRANCH  18  19
ENDBRANCH   5  18
TORSDOF 6
ENDMDL
MODEL 4
REMARK VINA RESULT:      -4.8      3.513      5.251
REMARK  Name = 57376616
REMARK  6 active torsions:
REMARK  status: ('A' for Active; 'I' for Inactive)
REMARK    1  A    between atoms: C_2  and  O_12
REMARK    2  A    between atoms: C_3  and  N_8
REMARK    3  A    between atoms: C_4  and  O_14
REMARK    4  A    between atoms: C_5  and  C_18
REMARK    5  A    between atoms: C_6  and  O_16
REMARK    6  A    between atoms: C_18  and  O_19
REMARK                            x       y       z     vdW  Elec       q    Type
REMARK                         _______ _______ _______ _____ _____    ______ ____
ROOT
ATOM      1  O   UNL     1     -34.586  23.819   3.370  0.00  0.00    -0.327 OA
ATOM      2  C   UNL     1     -35.586  25.893   5.072  0.00  0.00    +0.162 C 
ATOM      3  C   UNL     1     -35.172  26.187   3.624  0.00  0.00    +0.158 C 
ATOM      4  C   UNL     1     -35.994  24.431   5.272  0.00  0.00    +0.169 C 
ATOM      5  C   UNL     1     -34.883  23.514   4.739  0.00  0.00    +0.176 C 
ATOM      6  C   UNL     1     -34.137  25.159   3.146  0.00  0.00    +0.253 C 
ENDROOT
BRANCH   3   8
ATOM      7  O   UNL     1     -35.867  28.267   1.720  0.00  0.00    -0.275 OA
ATOM      8  N   UNL     1     -36.308  26.215   2.726  0.00  0.00    -0.299 N 
ATOM      9  C   UNL     1     -36.555  27.258   1.851  0.00  0.00    +0.223 C 
ATOM     10  C   UNL     1     -37.786  27.021   1.018  0.00  0.00    +0.095 C 
ATOM     11  H   UNL     1     -36.934  25.456   2.740  0.00  0.00    +0.150 HD
ENDBRANCH   3   8
BRANCH   2  12
ATOM     12  O   UNL     1     -36.624  26.777   5.480  0.00  0.00    -0.380 OA
ATOM     13  H   UNL     1     -36.234  27.573   5.875  0.00  0.00    +0.211 HD
ENDBRANCH   2  12
BRANCH   4  14
ATOM     14  O   UNL     1     -37.220  24.185   4.584  0.00  0.00    -0.379 OA
ATOM     15  H   UNL     1     -37.229  23.272   4.257  0.00  0.00    +0.211 HD
ENDBRANCH   4  14
BRANCH   6  16
ATOM     16  O   UNL     1     -32.886  25.421   3.779  0.00  0.00    -0.359 OA
ATOM     17  H   UNL     1     -32.706  26.374   3.755  0.00  0.00    +0.213 HD
ENDBRANCH   6  16
BRANCH   5  18
ATOM     18  C   UNL     1     -35.252  22.037   4.803  0.00  0.00    +0.169 C 
BRANCH  18  19
ATOM     19  O   UNL     1     -36.015  21.812   5.974  0.00  0.00    -0.379 OA
ATOM     20  H   UNL     1     -36.635  21.083   5.821  0.00  0.00    +0.211 HD
ENDBRANCH  18  19
ENDBRANCH   5  18
TORSDOF 6
ENDMDL
MODEL 5
REMARK VINA RESULT:      -4.7      1.834      4.829
REMARK  Name = 57376616
REMARK  6 active torsions:
REMARK  status: ('A' for Active; 'I' for Inactive)
REMARK    1  A    between atoms: C_2  and  O_12
REMARK    2  A    between atoms: C_3  and  N_8
REMARK    3  A    between atoms: C_4  and  O_14
REMARK    4  A    between atoms: C_5  and  C_18
REMARK    5  A    between atoms: C_6  and  O_16
REMARK    6  A    between atoms: C_18  and  O_19
REMARK                            x       y       z     vdW  Elec       q    Type
REMARK                         _______ _______ _______ _____ _____    ______ ____
ROOT
ATOM      1  O   UNL     1     -35.928  23.859   5.628  0.00  0.00    -0.327 OA
ATOM      2  C   UNL     1     -35.010  23.200   2.997  0.00  0.00    +0.162 C 
ATOM      3  C   UNL     1     -36.032  22.316   3.724  0.00  0.00    +0.158 C 
ATOM      4  C   UNL     1     -35.041  24.649   3.492  0.00  0.00    +0.169 C 
ATOM      5  C   UNL     1     -34.912  24.668   5.022  0.00  0.00    +0.176 C 
ATOM      6  C   UNL     1     -35.895  22.481   5.244  0.00  0.00    +0.253 C 
ENDROOT
BRANCH   3   8
ATOM      7  O   UNL     1     -37.506  21.068   1.555  0.00  0.00    -0.275 OA
ATOM      8  N   UNL     1     -37.390  22.596   3.307  0.00  0.00    -0.299 N 
ATOM      9  C   UNL     1     -38.008  21.944   2.254  0.00  0.00    +0.223 C 
ATOM     10  C   UNL     1     -39.425  22.410   2.050  0.00  0.00    +0.095 C 
ATOM     11  H   UNL     1     -37.897  23.284   3.795  0.00  0.00    +0.150 HD
ENDBRANCH   3   8
BRANCH   2  12
ATOM     12  O   UNL     1     -35.207  23.133   1.589  0.00  0.00    -0.380 OA
ATOM     13  H   UNL     1     -36.126  22.881   1.404  0.00  0.00    +0.211 HD
ENDBRANCH   2  12
BRANCH   4  14
ATOM     14  O   UNL     1     -36.266  25.259   3.085  0.00  0.00    -0.379 OA
ATOM     15  H   UNL     1     -36.680  24.722   2.391  0.00  0.00    +0.211 HD
ENDBRANCH   4  14
BRANCH   6  16
ATOM     16  O   UNL     1     -34.704  21.828   5.682  0.00  0.00    -0.359 OA
ATOM     17  H   UNL     1     -34.863  20.873   5.742  0.00  0.00    +0.213 HD
ENDBRANCH   6  16
BRANCH   5  18
ATOM     18  C   UNL     1     -35.041  26.069   5.610  0.00  0.00    +0.169 C 
BRANCH  18  19
ATOM     19  O   UNL     1     -36.391  26.482   5.501  0.00  0.00    -0.379 OA
ATOM     20  H   UNL     1     -36.838  26.349   6.351  0.00  0.00    +0.211 HD
ENDBRANCH  18  19
ENDBRANCH   5  18
TORSDOF 6
ENDMDL
MODEL 6
REMARK VINA RESULT:      -4.6      3.667      6.146
REMARK  Name = 57376616
REMARK  6 active torsions:
REMARK  status: ('A' for Active; 'I' for Inactive)
REMARK    1  A    between atoms: C_2  and  O_12
REMARK    2  A    between atoms: C_3  and  N_8
REMARK    3  A    between atoms: C_4  and  O_14
REMARK    4  A    between atoms: C_5  and  C_18
REMARK    5  A    between atoms: C_6  and  O_16
REMARK    6  A    between atoms: C_18  and  O_19
REMARK                            x       y       z     vdW  Elec       q    Type
REMARK                         _______ _______ _______ _____ _____    ______ ____
ROOT
ATOM      1  O   UNL     1     -32.719  25.992   3.383  0.00  0.00    -0.327 OA
ATOM      2  C   UNL     1     -35.500  26.325   3.972  0.00  0.00    +0.162 C 
ATOM      3  C   UNL     1     -34.949  24.977   3.487  0.00  0.00    +0.158 C 
ATOM      4  C   UNL     1     -34.431  27.172   4.666  0.00  0.00    +0.169 C 
ATOM      5  C   UNL     1     -33.201  27.289   3.754  0.00  0.00    +0.176 C 
ATOM      6  C   UNL     1     -33.666  25.188   2.672  0.00  0.00    +0.253 C 
ENDROOT
BRANCH   3   8
ATOM      7  O   UNL     1     -36.759  22.963   4.536  0.00  0.00    -0.275 OA
ATOM      8  N   UNL     1     -34.707  24.061   4.581  0.00  0.00    -0.299 N 
ATOM      9  C   UNL     1     -35.639  23.132   5.010  0.00  0.00    +0.223 C 
ATOM     10  C   UNL     1     -35.121  22.291   6.147  0.00  0.00    +0.095 C 
ATOM     11  H   UNL     1     -33.839  24.102   5.043  0.00  0.00    +0.150 HD
ENDBRANCH   3   8
BRANCH   2  12
ATOM     12  O   UNL     1     -36.627  26.124   4.818  0.00  0.00    -0.380 OA
ATOM     13  H   UNL     1     -37.393  25.870   4.280  0.00  0.00    +0.211 HD
ENDBRANCH   2  12
BRANCH   4  14
ATOM     14  O   UNL     1     -34.078  26.561   5.907  0.00  0.00    -0.379 OA
ATOM     15  H   UNL     1     -34.065  25.597   5.800  0.00  0.00    +0.211 HD
ENDBRANCH   4  14
BRANCH   6  16
ATOM     16  O   UNL     1     -34.001  25.747   1.403  0.00  0.00    -0.359 OA
ATOM     17  H   UNL     1     -34.115  26.706   1.493  0.00  0.00    +0.213 HD
ENDBRANCH   6  16
BRANCH   5  18
ATOM     18  C   UNL     1     -32.043  28.031   4.412  0.00  0.00    +0.169 C 
BRANCH  18  19
ATOM     19  O   UNL     1     -32.570  28.934   5.366  0.00  0.00    -0.379 OA
ATOM     20  H   UNL     1     -33.193  28.467   5.944  0.00  0.00    +0.211 HD
ENDBRANCH  18  19
ENDBRANCH   5  18
TORSDOF 6
ENDMDL
MODEL 7
REMARK VINA RESULT:      -4.6      2.389      4.818
REMARK  Name = 57376616
REMARK  6 active torsions:
REMARK  status: ('A' for Active; 'I' for Inactive)
REMARK    1  A    between atoms: C_2  and  O_12
REMARK    2  A    between atoms: C_3  and  N_8
REMARK    3  A    between atoms: C_4  and  O_14
REMARK    4  A    between atoms: C_5  and  C_18
REMARK    5  A    between atoms: C_6  and  O_16
REMARK    6  A    between atoms: C_18  and  O_19
REMARK                            x       y       z     vdW  Elec       q    Type
REMARK                         _______ _______ _______ _____ _____    ______ ____
ROOT
ATOM      1  O   UNL     1     -36.614  22.746   3.954  0.00  0.00    -0.327 OA
ATOM      2  C   UNL     1     -36.181  25.450   3.122  0.00  0.00    +0.162 C 
ATOM      3  C   UNL     1     -37.315  24.609   2.521  0.00  0.00    +0.158 C 
ATOM      4  C   UNL     1     -35.784  24.973   4.522  0.00  0.00    +0.169 C 
ATOM      5  C   UNL     1     -35.493  23.466   4.482  0.00  0.00    +0.176 C 
ATOM      6  C   UNL     1     -36.979  23.114   2.620  0.00  0.00    +0.253 C 
ENDROOT
BRANCH   3   8
ATOM      7  O   UNL     1     -39.251  26.641   1.775  0.00  0.00    -0.275 OA
ATOM      8  N   UNL     1     -38.590  24.882   3.149  0.00  0.00    -0.299 N 
ATOM      9  C   UNL     1     -39.447  25.879   2.718  0.00  0.00    +0.223 C 
ATOM     10  C   UNL     1     -40.713  25.932   3.532  0.00  0.00    +0.095 C 
ATOM     11  H   UNL     1     -38.859  24.334   3.921  0.00  0.00    +0.150 HD
ENDBRANCH   3   8
BRANCH   2  12
ATOM     12  O   UNL     1     -36.537  26.829   3.130  0.00  0.00    -0.380 OA
ATOM     13  H   UNL     1     -36.822  27.094   2.242  0.00  0.00    +0.211 HD
ENDBRANCH   2  12
BRANCH   4  14
ATOM     14  O   UNL     1     -36.845  25.255   5.434  0.00  0.00    -0.379 OA
ATOM     15  H   UNL     1     -37.616  25.578   4.943  0.00  0.00    +0.211 HD
ENDBRANCH   4  14
BRANCH   6  16
ATOM     16  O   UNL     1     -35.959  22.797   1.675  0.00  0.00    -0.359 OA
ATOM     17  H   UNL     1     -35.697  21.869   1.782  0.00  0.00    +0.213 HD
ENDBRANCH   6  16
BRANCH   5  18
ATOM     18  C   UNL     1     -35.191  22.885   5.859  0.00  0.00    +0.169 C 
BRANCH  18  19
ATOM     19  O   UNL     1     -36.292  22.093   6.266  0.00  0.00    -0.379 OA
ATOM     20  H   UNL     1     -36.613  22.404   7.127  0.00  0.00    +0.211 HD
ENDBRANCH  18  19
ENDBRANCH   5  18
TORSDOF 6
ENDMDL
MODEL 8
REMARK VINA RESULT:      -4.5      2.572      5.334
REMARK  Name = 57376616
REMARK  6 active torsions:
REMARK  status: ('A' for Active; 'I' for Inactive)
REMARK    1  A    between atoms: C_2  and  O_12
REMARK    2  A    between atoms: C_3  and  N_8
REMARK    3  A    between atoms: C_4  and  O_14
REMARK    4  A    between atoms: C_5  and  C_18
REMARK    5  A    between atoms: C_6  and  O_16
REMARK    6  A    between atoms: C_18  and  O_19
REMARK                            x       y       z     vdW  Elec       q    Type
REMARK                         _______ _______ _______ _____ _____    ______ ____
ROOT
ATOM      1  O   UNL     1     -37.090  23.440   4.122  0.00  0.00    -0.327 OA
ATOM      2  C   UNL     1     -36.993  25.828   2.545  0.00  0.00    +0.162 C 
ATOM      3  C   UNL     1     -38.202  24.885   2.481  0.00  0.00    +0.158 C 
ATOM      4  C   UNL     1     -36.243  25.719   3.875  0.00  0.00    +0.169 C 
ATOM      5  C   UNL     1     -35.906  24.247   4.152  0.00  0.00    +0.176 C 
ATOM      6  C   UNL     1     -37.788  23.460   2.873  0.00  0.00    +0.253 C 
ENDROOT
BRANCH   3   8
ATOM      7  O   UNL     1     -40.353  26.691   1.742  0.00  0.00    -0.275 OA
ATOM      8  N   UNL     1     -39.294  25.340   3.315  0.00  0.00    -0.299 N 
ATOM      9  C   UNL     1     -40.276  26.207   2.869  0.00  0.00    +0.223 C 
ATOM     10  C   UNL     1     -41.303  26.498   3.931  0.00  0.00    +0.095 C 
ATOM     11  H   UNL     1     -39.339  25.019   4.244  0.00  0.00    +0.150 HD
ENDBRANCH   3   8
BRANCH   2  12
ATOM     12  O   UNL     1     -37.396  27.169   2.288  0.00  0.00    -0.380 OA
ATOM     13  H   UNL     1     -36.965  27.486   1.479  0.00  0.00    +0.211 HD
ENDBRANCH   2  12
BRANCH   4  14
ATOM     14  O   UNL     1     -37.058  26.251   4.919  0.00  0.00    -0.379 OA
ATOM     15  H   UNL     1     -37.988  26.239   4.642  0.00  0.00    +0.211 HD
ENDBRANCH   4  14
BRANCH   6  16
ATOM     16  O   UNL     1     -37.019  22.886   1.817  0.00  0.00    -0.359 OA
ATOM     17  H   UNL     1     -37.274  23.293   0.974  0.00  0.00    +0.213 HD
ENDBRANCH   6  16
BRANCH   5  18
ATOM     18  C   UNL     1     -35.250  24.035   5.512  0.00  0.00    +0.169 C 
BRANCH  18  19
ATOM     19  O   UNL     1     -34.455  25.167   5.811  0.00  0.00    -0.379 OA
ATOM     20  H   UNL     1     -33.863  24.960   6.550  0.00  0.00    +0.211 HD
ENDBRANCH  18  19
ENDBRANCH   5  18
TORSDOF 6
ENDMDL
MODEL 9
REMARK VINA RESULT:      -4.5      1.904      3.371
REMARK  Name = 57376616
REMARK  6 active torsions:
REMARK  status: ('A' for Active; 'I' for Inactive)
REMARK    1  A    between atoms: C_2  and  O_12
REMARK    2  A    between atoms: C_3  and  N_8
REMARK    3  A    between atoms: C_4  and  O_14
REMARK    4  A    between atoms: C_5  and  C_18
REMARK    5  A    between atoms: C_6  and  O_16
REMARK    6  A    between atoms: C_18  and  O_19
REMARK                            x       y       z     vdW  Elec       q    Type
REMARK                         _______ _______ _______ _____ _____    ______ ____
ROOT
ATOM      1  O   UNL     1     -35.529  25.322   2.384  0.00  0.00    -0.327 OA
ATOM      2  C   UNL     1     -36.944  22.838   2.240  0.00  0.00    +0.162 C 
ATOM      3  C   UNL     1     -35.509  22.902   2.779  0.00  0.00    +0.158 C 
ATOM      4  C   UNL     1     -37.684  24.169   2.400  0.00  0.00    +0.169 C 
ATOM      5  C   UNL     1     -36.837  25.298   1.797  0.00  0.00    +0.176 C 
ATOM      6  C   UNL     1     -34.776  24.120   2.200  0.00  0.00    +0.253 C 
ENDROOT
BRANCH   3   8
ATOM      7  O   UNL     1     -35.150  20.652   4.581  0.00  0.00    -0.275 OA
ATOM      8  N   UNL     1     -35.471  22.930   4.226  0.00  0.00    -0.299 N 
ATOM      9  C   UNL     1     -35.294  21.797   5.000  0.00  0.00    +0.223 C 
ATOM     10  C   UNL     1     -35.270  22.114   6.473  0.00  0.00    +0.095 C 
ATOM     11  H   UNL     1     -35.577  23.797   4.680  0.00  0.00    +0.150 HD
ENDBRANCH   3   8
BRANCH   2  12
ATOM     12  O   UNL     1     -37.659  21.773   2.858  0.00  0.00    -0.380 OA
ATOM     13  H   UNL     1     -37.054  21.256   3.412  0.00  0.00    +0.211 HD
ENDBRANCH   2  12
BRANCH   4  14
ATOM     14  O   UNL     1     -37.925  24.409   3.786  0.00  0.00    -0.379 OA
ATOM     15  H   UNL     1     -37.377  25.151   4.086  0.00  0.00    +0.211 HD
ENDBRANCH   4  14
BRANCH   6  16
ATOM     16  O   UNL     1     -34.473  23.878   0.827  0.00  0.00    -0.359 OA
ATOM     17  H   UNL     1     -34.671  24.673   0.308  0.00  0.00    +0.213 HD
ENDBRANCH   6  16
BRANCH   5  18
ATOM     18  C   UNL     1     -37.452  26.677   2.008  0.00  0.00    +0.169 C 
BRANCH  18  19
ATOM     19  O   UNL     1     -38.856  26.534   2.112  0.00  0.00    -0.379 OA
ATOM     20  H   UNL     1     -39.186  27.100   2.827  0.00  0.00    +0.211 HD
ENDBRANCH  18  19
ENDBRANCH   5  18
TORSDOF 6
ENDMDL
