MODEL 1
REMARK VINA RESULT:      -5.0      0.000      0.000
REMARK  Name = 53884499
REMARK  15 active torsions:
REMARK  status: ('A' for Active; 'I' for Inactive)
REMARK    1  A    between atoms: C_1  and  N_2
REMARK    2  A    between atoms: C_1  and  C_7
REMARK    3  A    between atoms: C_1  and  C_17
REMARK    4  A    between atoms: C_7  and  O_8
REMARK    5  A    between atoms: O_8  and  C_9
REMARK    6  A    between atoms: C_9  and  C_10
REMARK    7  A    between atoms: C_10  and  C_11
REMARK    8  A    between atoms: C_11  and  C_12
REMARK    9  A    between atoms: C_12  and  C_13
REMARK   10  A    between atoms: C_13  and  C_14
REMARK   11  A    between atoms: C_14  and  C_15
REMARK   12  A    between atoms: C_17  and  C_18
REMARK   13  A    between atoms: C_18  and  C_19
REMARK   14  A    between atoms: C_19  and  N_20
REMARK   15  A    between atoms: N_20  and  C_23
REMARK                            x       y       z     vdW  Elec       q    Type
REMARK                         _______ _______ _______ _____ _____    ______ ____
ROOT
ATOM      1  C   UNL     1     -35.567  25.337   4.771  0.00  0.00    +0.036 C 
ENDROOT
BRANCH   1   2
ATOM      2  N   UNL     1     -36.422  26.397   5.303  0.00  0.00    +0.389 N 
ATOM      3  H   UNL     1     -36.122  26.633   6.249  0.00  0.00    -0.088 HD
ATOM      4  H   UNL     1     -37.390  26.075   5.324  0.00  0.00    -0.088 HD
ATOM      5  H   UNL     1     -36.352  27.222   4.708  0.00  0.00    -0.088 HD
ENDBRANCH   1   2
BRANCH   1   7
ATOM      6  O   UNL     1     -36.098  23.060   5.473  0.00  0.00    -0.252 OA
ATOM      7  C   UNL     1     -36.355  24.039   4.783  0.00  0.00    +0.296 C 
BRANCH   7   8
ATOM      8  O   UNL     1     -37.409  24.131   3.909  0.00  0.00    -0.450 OA
BRANCH   8   9
ATOM      9  C   UNL     1     -37.473  23.129   2.903  0.00  0.00    +0.208 C 
BRANCH   9  10
ATOM     10  C   UNL     1     -36.410  23.418   1.853  0.00  0.00    +0.047 C 
BRANCH  10  11
ATOM     11  C   UNL     1     -35.785  22.133   1.314  0.00  0.00    +0.004 C 
BRANCH  11  12
ATOM     12  C   UNL     1     -35.417  21.175   2.450  0.00  0.00    +0.000 C 
BRANCH  12  13
ATOM     13  C   UNL     1     -34.635  19.946   1.981  0.00  0.00    +0.000 C 
BRANCH  13  14
ATOM     14  C   UNL     1     -33.855  20.178   0.685  0.00  0.00    +0.000 C 
BRANCH  14  15
ATOM     15  C   UNL     1     -32.472  19.527   0.747  0.00  0.00    +0.000 C 
ATOM     16  C   UNL     1     -32.538  18.139   1.363  0.00  0.00    +0.000 C 
ENDBRANCH  14  15
ENDBRANCH  13  14
ENDBRANCH  12  13
ENDBRANCH  11  12
ENDBRANCH  10  11
ENDBRANCH   9  10
ENDBRANCH   8   9
ENDBRANCH   7   8
ENDBRANCH   1   7
BRANCH   1  17
ATOM     17  C   UNL     1     -34.254  25.223   5.561  0.00  0.00    -0.009 C 
BRANCH  17  18
ATOM     18  C   UNL     1     -33.672  26.567   6.026  0.00  0.00    +0.025 C 
BRANCH  18  19
ATOM     19  C   UNL     1     -32.952  27.305   4.900  0.00  0.00    +0.129 C 
BRANCH  19  20
ATOM     20  N   UNL     1     -31.703  27.884   5.399  0.00  0.00    -0.240 NA
BRANCH  20  23
ATOM     21  N   UNL     1     -31.215  29.133   7.289  0.00  0.00    -0.370 N 
ATOM     22  N   UNL     1     -32.440  30.156   5.661  0.00  0.00    -0.370 N 
ATOM     23  C   UNL     1     -31.797  29.001   6.051  0.00  0.00    +0.189 C 
ATOM     24  H   UNL     1     -30.724  28.377   7.685  0.00  0.00    +0.159 HD
ATOM     25  H   UNL     1     -31.291  29.982   7.780  0.00  0.00    +0.159 HD
ATOM     26  H   UNL     1     -32.899  30.194   4.790  0.00  0.00    +0.159 HD
ATOM     27  H   UNL     1     -32.440  30.943   6.252  0.00  0.00    +0.159 HD
ENDBRANCH  20  23
ENDBRANCH  19  20
ENDBRANCH  18  19
ENDBRANCH  17  18
ENDBRANCH   1  17
TORSDOF 15
ENDMDL
MODEL 2
REMARK VINA RESULT:      -4.9      1.419      2.106
REMARK  Name = 53884499
REMARK  15 active torsions:
REMARK  status: ('A' for Active; 'I' for Inactive)
REMARK    1  A    between atoms: C_1  and  N_2
REMARK    2  A    between atoms: C_1  and  C_7
REMARK    3  A    between atoms: C_1  and  C_17
REMARK    4  A    between atoms: C_7  and  O_8
REMARK    5  A    between atoms: O_8  and  C_9
REMARK    6  A    between atoms: C_9  and  C_10
REMARK    7  A    between atoms: C_10  and  C_11
REMARK    8  A    between atoms: C_11  and  C_12
REMARK    9  A    between atoms: C_12  and  C_13
REMARK   10  A    between atoms: C_13  and  C_14
REMARK   11  A    between atoms: C_14  and  C_15
REMARK   12  A    between atoms: C_17  and  C_18
REMARK   13  A    between atoms: C_18  and  C_19
REMARK   14  A    between atoms: C_19  and  N_20
REMARK   15  A    between atoms: N_20  and  C_23
REMARK                            x       y       z     vdW  Elec       q    Type
REMARK                         _______ _______ _______ _____ _____    ______ ____
ROOT
ATOM      1  C   UNL     1     -36.342  24.912   4.400  0.00  0.00    +0.036 C 
ENDROOT
BRANCH   1   2
ATOM      2  N   UNL     1     -37.799  24.969   4.294  0.00  0.00    +0.389 N 
ATOM      3  H   UNL     1     -38.201  25.112   5.221  0.00  0.00    -0.088 HD
ATOM      4  H   UNL     1     -38.147  24.094   3.903  0.00  0.00    -0.088 HD
ATOM      5  H   UNL     1     -38.066  25.743   3.685  0.00  0.00    -0.088 HD
ENDBRANCH   1   2
BRANCH   1   7
ATOM      6  O   UNL     1     -36.172  22.779   5.575  0.00  0.00    -0.252 OA
ATOM      7  C   UNL     1     -35.936  23.460   4.585  0.00  0.00    +0.296 C 
BRANCH   7   8
ATOM      8  O   UNL     1     -35.271  23.020   3.468  0.00  0.00    -0.450 OA
BRANCH   8   9
ATOM      9  C   UNL     1     -35.946  22.043   2.687  0.00  0.00    +0.208 C 
BRANCH   9  10
ATOM     10  C   UNL     1     -35.181  20.730   2.774  0.00  0.00    +0.047 C 
BRANCH  10  11
ATOM     11  C   UNL     1     -34.847  20.178   1.389  0.00  0.00    +0.004 C 
BRANCH  11  12
ATOM     12  C   UNL     1     -33.725  19.139   1.462  0.00  0.00    +0.000 C 
BRANCH  12  13
ATOM     13  C   UNL     1     -32.457  19.557   0.714  0.00  0.00    +0.000 C 
BRANCH  13  14
ATOM     14  C   UNL     1     -32.734  20.417  -0.521  0.00  0.00    +0.000 C 
BRANCH  14  15
ATOM     15  C   UNL     1     -31.685  21.520  -0.674  0.00  0.00    +0.000 C 
ATOM     16  C   UNL     1     -32.309  22.902  -0.561  0.00  0.00    +0.000 C 
ENDBRANCH  14  15
ENDBRANCH  13  14
ENDBRANCH  12  13
ENDBRANCH  11  12
ENDBRANCH  10  11
ENDBRANCH   9  10
ENDBRANCH   8   9
ENDBRANCH   7   8
ENDBRANCH   1   7
BRANCH   1  17
ATOM     17  C   UNL     1     -35.823  25.807   5.536  0.00  0.00    -0.009 C 
BRANCH  17  18
ATOM     18  C   UNL     1     -34.321  25.661   5.824  0.00  0.00    +0.025 C 
BRANCH  18  19
ATOM     19  C   UNL     1     -33.517  26.856   5.319  0.00  0.00    +0.129 C 
BRANCH  19  20
ATOM     20  N   UNL     1     -32.617  27.335   6.371  0.00  0.00    -0.240 NA
BRANCH  20  23
ATOM     21  N   UNL     1     -31.002  28.892   6.952  0.00  0.00    -0.370 N 
ATOM     22  N   UNL     1     -32.445  29.471   5.285  0.00  0.00    -0.370 N 
ATOM     23  C   UNL     1     -32.077  28.499   6.190  0.00  0.00    +0.189 C 
ATOM     24  H   UNL     1     -30.640  28.288   7.640  0.00  0.00    +0.159 HD
ATOM     25  H   UNL     1     -30.597  29.778   6.812  0.00  0.00    +0.159 HD
ATOM     26  H   UNL     1     -33.202  29.314   4.676  0.00  0.00    +0.159 HD
ATOM     27  H   UNL     1     -31.949  30.321   5.246  0.00  0.00    +0.159 HD
ENDBRANCH  20  23
ENDBRANCH  19  20
ENDBRANCH  18  19
ENDBRANCH  17  18
ENDBRANCH   1  17
TORSDOF 15
ENDMDL
MODEL 3
REMARK VINA RESULT:      -4.9      1.693      2.645
REMARK  Name = 53884499
REMARK  15 active torsions:
REMARK  status: ('A' for Active; 'I' for Inactive)
REMARK    1  A    between atoms: C_1  and  N_2
REMARK    2  A    between atoms: C_1  and  C_7
REMARK    3  A    between atoms: C_1  and  C_17
REMARK    4  A    between atoms: C_7  and  O_8
REMARK    5  A    between atoms: O_8  and  C_9
REMARK    6  A    between atoms: C_9  and  C_10
REMARK    7  A    between atoms: C_10  and  C_11
REMARK    8  A    between atoms: C_11  and  C_12
REMARK    9  A    between atoms: C_12  and  C_13
REMARK   10  A    between atoms: C_13  and  C_14
REMARK   11  A    between atoms: C_14  and  C_15
REMARK   12  A    between atoms: C_17  and  C_18
REMARK   13  A    between atoms: C_18  and  C_19
REMARK   14  A    between atoms: C_19  and  N_20
REMARK   15  A    between atoms: N_20  and  C_23
REMARK                            x       y       z     vdW  Elec       q    Type
REMARK                         _______ _______ _______ _____ _____    ______ ____
ROOT
ATOM      1  C   UNL     1     -34.400  26.714   3.867  0.00  0.00    +0.036 C 
ENDROOT
BRANCH   1   2
ATOM      2  N   UNL     1     -35.274  27.881   3.770  0.00  0.00    +0.389 N 
ATOM      3  H   UNL     1     -35.879  27.787   2.954  0.00  0.00    -0.088 HD
ATOM      4  H   UNL     1     -34.708  28.725   3.678  0.00  0.00    -0.088 HD
ATOM      5  H   UNL     1     -35.848  27.948   4.612  0.00  0.00    -0.088 HD
ENDBRANCH   1   2
BRANCH   1   7
ATOM      6  O   UNL     1     -33.555  26.043   6.057  0.00  0.00    -0.252 OA
ATOM      7  C   UNL     1     -34.494  26.164   5.280  0.00  0.00    +0.296 C 
BRANCH   7   8
ATOM      8  O   UNL     1     -35.795  25.833   5.561  0.00  0.00    -0.450 OA
BRANCH   8   9
ATOM      9  C   UNL     1     -36.310  24.697   4.880  0.00  0.00    +0.208 C 
BRANCH   9  10
ATOM     10  C   UNL     1     -35.700  23.442   5.486  0.00  0.00    +0.047 C 
BRANCH  10  11
ATOM     11  C   UNL     1     -35.473  22.359   4.433  0.00  0.00    +0.004 C 
BRANCH  11  12
ATOM     12  C   UNL     1     -35.252  22.970   3.047  0.00  0.00    +0.000 C 
BRANCH  12  13
ATOM     13  C   UNL     1     -35.607  22.022   1.899  0.00  0.00    +0.000 C 
BRANCH  13  14
ATOM     14  C   UNL     1     -35.599  20.546   2.304  0.00  0.00    +0.000 C 
BRANCH  14  15
ATOM     15  C   UNL     1     -34.349  19.836   1.780  0.00  0.00    +0.000 C 
ATOM     16  C   UNL     1     -33.693  20.620   0.656  0.00  0.00    +0.000 C 
ENDBRANCH  14  15
ENDBRANCH  13  14
ENDBRANCH  12  13
ENDBRANCH  11  12
ENDBRANCH  10  11
ENDBRANCH   9  10
ENDBRANCH   8   9
ENDBRANCH   7   8
ENDBRANCH   1   7
BRANCH   1  17
ATOM     17  C   UNL     1     -32.955  27.058   3.476  0.00  0.00    -0.009 C 
BRANCH  17  18
ATOM     18  C   UNL     1     -32.702  28.553   3.229  0.00  0.00    +0.025 C 
BRANCH  18  19
ATOM     19  C   UNL     1     -31.709  29.144   4.227  0.00  0.00    +0.129 C 
BRANCH  19  20
ATOM     20  N   UNL     1     -32.369  29.372   5.515  0.00  0.00    -0.240 NA
BRANCH  20  23
ATOM     21  N   UNL     1     -32.351  28.152   7.486  0.00  0.00    -0.370 N 
ATOM     22  N   UNL     1     -30.442  29.276   6.947  0.00  0.00    -0.370 N 
ATOM     23  C   UNL     1     -31.734  28.975   6.573  0.00  0.00    +0.189 C 
ATOM     24  H   UNL     1     -33.280  27.863   7.336  0.00  0.00    +0.159 HD
ATOM     25  H   UNL     1     -31.865  27.855   8.288  0.00  0.00    +0.159 HD
ATOM     26  H   UNL     1     -29.888  29.858   6.378  0.00  0.00    +0.159 HD
ATOM     27  H   UNL     1     -30.073  28.908   7.783  0.00  0.00    +0.159 HD
ENDBRANCH  20  23
ENDBRANCH  19  20
ENDBRANCH  18  19
ENDBRANCH  17  18
ENDBRANCH   1  17
TORSDOF 15
ENDMDL
MODEL 4
REMARK VINA RESULT:      -4.9      2.966      5.642
REMARK  Name = 53884499
REMARK  15 active torsions:
REMARK  status: ('A' for Active; 'I' for Inactive)
REMARK    1  A    between atoms: C_1  and  N_2
REMARK    2  A    between atoms: C_1  and  C_7
REMARK    3  A    between atoms: C_1  and  C_17
REMARK    4  A    between atoms: C_7  and  O_8
REMARK    5  A    between atoms: O_8  and  C_9
REMARK    6  A    between atoms: C_9  and  C_10
REMARK    7  A    between atoms: C_10  and  C_11
REMARK    8  A    between atoms: C_11  and  C_12
REMARK    9  A    between atoms: C_12  and  C_13
REMARK   10  A    between atoms: C_13  and  C_14
REMARK   11  A    between atoms: C_14  and  C_15
REMARK   12  A    between atoms: C_17  and  C_18
REMARK   13  A    between atoms: C_18  and  C_19
REMARK   14  A    between atoms: C_19  and  N_20
REMARK   15  A    between atoms: N_20  and  C_23
REMARK                            x       y       z     vdW  Elec       q    Type
REMARK                         _______ _______ _______ _____ _____    ______ ____
ROOT
ATOM      1  C   UNL     1     -36.701  25.386   4.657  0.00  0.00    +0.036 C 
ENDROOT
BRANCH   1   2
ATOM      2  N   UNL     1     -36.395  26.657   5.311  0.00  0.00    +0.389 N 
ATOM      3  H   UNL     1     -37.259  27.085   5.642  0.00  0.00    -0.088 HD
ATOM      4  H   UNL     1     -35.939  27.282   4.645  0.00  0.00    -0.088 HD
ATOM      5  H   UNL     1     -35.772  26.492   6.102  0.00  0.00    -0.088 HD
ENDBRANCH   1   2
BRANCH   1   7
ATOM      6  O   UNL     1     -34.484  24.607   5.319  0.00  0.00    -0.252 OA
ATOM      7  C   UNL     1     -35.663  24.365   5.092  0.00  0.00    +0.296 C 
BRANCH   7   8
ATOM      8  O   UNL     1     -36.249  23.130   5.204  0.00  0.00    -0.450 OA
BRANCH   8   9
ATOM      9  C   UNL     1     -35.467  22.027   4.764  0.00  0.00    +0.208 C 
BRANCH   9  10
ATOM     10  C   UNL     1     -35.562  21.931   3.248  0.00  0.00    +0.047 C 
BRANCH  10  11
ATOM     11  C   UNL     1     -35.283  20.513   2.754  0.00  0.00    +0.004 C 
BRANCH  11  12
ATOM     12  C   UNL     1     -35.698  20.344   1.290  0.00  0.00    +0.000 C 
BRANCH  12  13
ATOM     13  C   UNL     1     -34.817  19.358   0.517  0.00  0.00    +0.000 C 
BRANCH  13  14
ATOM     14  C   UNL     1     -33.545  19.993  -0.049  0.00  0.00    +0.000 C 
BRANCH  14  15
ATOM     15  C   UNL     1     -32.303  19.504   0.699  0.00  0.00    +0.000 C 
ATOM     16  C   UNL     1     -32.557  18.174   1.388  0.00  0.00    +0.000 C 
ENDBRANCH  14  15
ENDBRANCH  13  14
ENDBRANCH  12  13
ENDBRANCH  11  12
ENDBRANCH  10  11
ENDBRANCH   9  10
ENDBRANCH   8   9
ENDBRANCH   7   8
ENDBRANCH   1   7
BRANCH   1  17
ATOM     17  C   UNL     1     -36.758  25.537   3.129  0.00  0.00    -0.009 C 
BRANCH  17  18
ATOM     18  C   UNL     1     -38.177  25.682   2.557  0.00  0.00    +0.025 C 
BRANCH  18  19
ATOM     19  C   UNL     1     -39.117  24.589   3.058  0.00  0.00    +0.129 C 
BRANCH  19  20
ATOM     20  N   UNL     1     -38.717  23.292   2.507  0.00  0.00    -0.240 NA
BRANCH  20  23
ATOM     21  N   UNL     1     -40.636  23.053   1.230  0.00  0.00    -0.370 N 
ATOM     22  N   UNL     1     -39.864  21.192   2.295  0.00  0.00    -0.370 N 
ATOM     23  C   UNL     1     -39.666  22.534   2.055  0.00  0.00    +0.189 C 
ATOM     24  H   UNL     1     -40.611  24.005   0.980  0.00  0.00    +0.159 HD
ATOM     25  H   UNL     1     -41.355  22.474   0.890  0.00  0.00    +0.159 HD
ATOM     26  H   UNL     1     -39.237  20.698   2.872  0.00  0.00    +0.159 HD
ATOM     27  H   UNL     1     -40.631  20.726   1.889  0.00  0.00    +0.159 HD
ENDBRANCH  20  23
ENDBRANCH  19  20
ENDBRANCH  18  19
ENDBRANCH  17  18
ENDBRANCH   1  17
TORSDOF 15
ENDMDL
MODEL 5
REMARK VINA RESULT:      -4.9      1.992      2.593
REMARK  Name = 53884499
REMARK  15 active torsions:
REMARK  status: ('A' for Active; 'I' for Inactive)
REMARK    1  A    between atoms: C_1  and  N_2
REMARK    2  A    between atoms: C_1  and  C_7
REMARK    3  A    between atoms: C_1  and  C_17
REMARK    4  A    between atoms: C_7  and  O_8
REMARK    5  A    between atoms: O_8  and  C_9
REMARK    6  A    between atoms: C_9  and  C_10
REMARK    7  A    between atoms: C_10  and  C_11
REMARK    8  A    between atoms: C_11  and  C_12
REMARK    9  A    between atoms: C_12  and  C_13
REMARK   10  A    between atoms: C_13  and  C_14
REMARK   11  A    between atoms: C_14  and  C_15
REMARK   12  A    between atoms: C_17  and  C_18
REMARK   13  A    between atoms: C_18  and  C_19
REMARK   14  A    between atoms: C_19  and  N_20
REMARK   15  A    between atoms: N_20  and  C_23
REMARK                            x       y       z     vdW  Elec       q    Type
REMARK                         _______ _______ _______ _____ _____    ______ ____
ROOT
ATOM      1  C   UNL     1     -36.404  24.794   4.575  0.00  0.00    +0.036 C 
ENDROOT
BRANCH   1   2
ATOM      2  N   UNL     1     -37.820  24.968   4.254  0.00  0.00    +0.389 N 
ATOM      3  H   UNL     1     -37.911  25.332   3.306  0.00  0.00    -0.088 HD
ATOM      4  H   UNL     1     -38.240  25.625   4.912  0.00  0.00    -0.088 HD
ATOM      5  H   UNL     1     -38.298  24.069   4.321  0.00  0.00    -0.088 HD
ENDBRANCH   1   2
BRANCH   1   7
ATOM      6  O   UNL     1     -35.958  22.891   6.038  0.00  0.00    -0.252 OA
ATOM      7  C   UNL     1     -36.170  23.332   4.915  0.00  0.00    +0.296 C 
BRANCH   7   8
ATOM      8  O   UNL     1     -36.242  22.575   3.773  0.00  0.00    -0.450 OA
BRANCH   8   9
ATOM      9  C   UNL     1     -35.380  21.446   3.719  0.00  0.00    +0.208 C 
BRANCH   9  10
ATOM     10  C   UNL     1     -35.227  21.015   2.267  0.00  0.00    +0.047 C 
BRANCH  10  11
ATOM     11  C   UNL     1     -34.895  22.197   1.359  0.00  0.00    +0.004 C 
BRANCH  11  12
ATOM     12  C   UNL     1     -33.827  21.823   0.329  0.00  0.00    +0.000 C 
BRANCH  12  13
ATOM     13  C   UNL     1     -33.426  20.346   0.374  0.00  0.00    +0.000 C 
BRANCH  13  14
ATOM     14  C   UNL     1     -31.939  20.110   0.105  0.00  0.00    +0.000 C 
BRANCH  14  15
ATOM     15  C   UNL     1     -31.468  18.791   0.720  0.00  0.00    +0.000 C 
ATOM     16  C   UNL     1     -32.637  17.970   1.238  0.00  0.00    +0.000 C 
ENDBRANCH  14  15
ENDBRANCH  13  14
ENDBRANCH  12  13
ENDBRANCH  11  12
ENDBRANCH  10  11
ENDBRANCH   9  10
ENDBRANCH   8   9
ENDBRANCH   7   8
ENDBRANCH   1   7
BRANCH   1  17
ATOM     17  C   UNL     1     -35.964  25.729   5.712  0.00  0.00    -0.009 C 
BRANCH  17  18
ATOM     18  C   UNL     1     -34.458  26.028   5.741  0.00  0.00    +0.025 C 
BRANCH  18  19
ATOM     19  C   UNL     1     -33.894  26.300   4.349  0.00  0.00    +0.129 C 
BRANCH  19  20
ATOM     20  N   UNL     1     -33.889  27.740   4.083  0.00  0.00    -0.240 NA
BRANCH  20  23
ATOM     21  N   UNL     1     -35.178  27.336   2.200  0.00  0.00    -0.370 N 
ATOM     22  N   UNL     1     -35.274  29.433   3.089  0.00  0.00    -0.370 N 
ATOM     23  C   UNL     1     -34.728  28.172   3.194  0.00  0.00    +0.189 C 
ATOM     24  H   UNL     1     -34.862  26.404   2.161  0.00  0.00    +0.159 HD
ATOM     25  H   UNL     1     -35.814  27.668   1.527  0.00  0.00    +0.159 HD
ATOM     26  H   UNL     1     -35.033  30.129   3.742  0.00  0.00    +0.159 HD
ATOM     27  H   UNL     1     -35.906  29.637   2.361  0.00  0.00    +0.159 HD
ENDBRANCH  20  23
ENDBRANCH  19  20
ENDBRANCH  18  19
ENDBRANCH  17  18
ENDBRANCH   1  17
TORSDOF 15
ENDMDL
MODEL 6
REMARK VINA RESULT:      -4.9      3.703      8.146
REMARK  Name = 53884499
REMARK  15 active torsions:
REMARK  status: ('A' for Active; 'I' for Inactive)
REMARK    1  A    between atoms: C_1  and  N_2
REMARK    2  A    between atoms: C_1  and  C_7
REMARK    3  A    between atoms: C_1  and  C_17
REMARK    4  A    between atoms: C_7  and  O_8
REMARK    5  A    between atoms: O_8  and  C_9
REMARK    6  A    between atoms: C_9  and  C_10
REMARK    7  A    between atoms: C_10  and  C_11
REMARK    8  A    between atoms: C_11  and  C_12
REMARK    9  A    between atoms: C_12  and  C_13
REMARK   10  A    between atoms: C_13  and  C_14
REMARK   11  A    between atoms: C_14  and  C_15
REMARK   12  A    between atoms: C_17  and  C_18
REMARK   13  A    between atoms: C_18  and  C_19
REMARK   14  A    between atoms: C_19  and  N_20
REMARK   15  A    between atoms: N_20  and  C_23
REMARK                            x       y       z     vdW  Elec       q    Type
REMARK                         _______ _______ _______ _____ _____    ______ ____
ROOT
ATOM      1  C   UNL     1     -34.918  25.941   5.417  0.00  0.00    +0.036 C 
ENDROOT
BRANCH   1   2
ATOM      2  N   UNL     1     -36.362  26.142   5.311  0.00  0.00    +0.389 N 
ATOM      3  H   UNL     1     -36.549  27.041   4.866  0.00  0.00    -0.088 HD
ATOM      4  H   UNL     1     -36.777  26.132   6.243  0.00  0.00    -0.088 HD
ATOM      5  H   UNL     1     -36.771  25.394   4.751  0.00  0.00    -0.088 HD
ENDBRANCH   1   2
BRANCH   1   7
ATOM      6  O   UNL     1     -34.796  27.826   3.870  0.00  0.00    -0.252 OA
ATOM      7  C   UNL     1     -34.228  26.993   4.566  0.00  0.00    +0.296 C 
BRANCH   7   8
ATOM      8  O   UNL     1     -32.868  26.877   4.702  0.00  0.00    -0.450 OA
BRANCH   8   9
ATOM      9  C   UNL     1     -32.168  28.079   4.996  0.00  0.00    +0.208 C 
BRANCH   9  10
ATOM     10  C   UNL     1     -32.093  28.247   6.507  0.00  0.00    +0.047 C 
BRANCH  10  11
ATOM     11  C   UNL     1     -31.390  29.546   6.896  0.00  0.00    +0.004 C 
BRANCH  11  12
ATOM     12  C   UNL     1     -30.382  29.974   5.827  0.00  0.00    +0.000 C 
BRANCH  12  13
ATOM     13  C   UNL     1     -28.940  30.033   6.338  0.00  0.00    +0.000 C 
BRANCH  13  14
ATOM     14  C   UNL     1     -28.564  28.852   7.236  0.00  0.00    +0.000 C 
BRANCH  14  15
ATOM     15  C   UNL     1     -28.360  27.576   6.416  0.00  0.00    +0.000 C 
ATOM     16  C   UNL     1     -27.562  26.540   7.189  0.00  0.00    +0.000 C 
ENDBRANCH  14  15
ENDBRANCH  13  14
ENDBRANCH  12  13
ENDBRANCH  11  12
ENDBRANCH  10  11
ENDBRANCH   9  10
ENDBRANCH   8   9
ENDBRANCH   7   8
ENDBRANCH   1   7
BRANCH   1  17
ATOM     17  C   UNL     1     -34.516  24.514   5.012  0.00  0.00    -0.009 C 
BRANCH  17  18
ATOM     18  C   UNL     1     -35.267  23.405   5.764  0.00  0.00    +0.025 C 
BRANCH  18  19
ATOM     19  C   UNL     1     -35.610  22.223   4.860  0.00  0.00    +0.129 C 
BRANCH  19  20
ATOM     20  N   UNL     1     -35.889  22.695   3.502  0.00  0.00    -0.240 NA
BRANCH  20  23
ATOM     21  N   UNL     1     -37.953  23.727   3.292  0.00  0.00    -0.370 N 
ATOM     22  N   UNL     1     -37.775  21.598   2.497  0.00  0.00    -0.370 N 
ATOM     23  C   UNL     1     -37.124  22.646   3.110  0.00  0.00    +0.189 C 
ATOM     24  H   UNL     1     -37.609  24.544   3.723  0.00  0.00    +0.159 HD
ATOM     25  H   UNL     1     -38.890  23.685   2.995  0.00  0.00    +0.159 HD
ATOM     26  H   UNL     1     -37.292  20.762   2.307  0.00  0.00    +0.159 HD
ATOM     27  H   UNL     1     -38.724  21.687   2.247  0.00  0.00    +0.159 HD
ENDBRANCH  20  23
ENDBRANCH  19  20
ENDBRANCH  18  19
ENDBRANCH  17  18
ENDBRANCH   1  17
TORSDOF 15
ENDMDL
MODEL 7
REMARK VINA RESULT:      -4.8      2.309      2.999
REMARK  Name = 53884499
REMARK  15 active torsions:
REMARK  status: ('A' for Active; 'I' for Inactive)
REMARK    1  A    between atoms: C_1  and  N_2
REMARK    2  A    between atoms: C_1  and  C_7
REMARK    3  A    between atoms: C_1  and  C_17
REMARK    4  A    between atoms: C_7  and  O_8
REMARK    5  A    between atoms: O_8  and  C_9
REMARK    6  A    between atoms: C_9  and  C_10
REMARK    7  A    between atoms: C_10  and  C_11
REMARK    8  A    between atoms: C_11  and  C_12
REMARK    9  A    between atoms: C_12  and  C_13
REMARK   10  A    between atoms: C_13  and  C_14
REMARK   11  A    between atoms: C_14  and  C_15
REMARK   12  A    between atoms: C_17  and  C_18
REMARK   13  A    between atoms: C_18  and  C_19
REMARK   14  A    between atoms: C_19  and  N_20
REMARK   15  A    between atoms: N_20  and  C_23
REMARK                            x       y       z     vdW  Elec       q    Type
REMARK                         _______ _______ _______ _____ _____    ______ ____
ROOT
ATOM      1  C   UNL     1     -35.913  23.417   5.329  0.00  0.00    +0.036 C 
ENDROOT
BRANCH   1   2
ATOM      2  N   UNL     1     -35.907  22.107   5.977  0.00  0.00    +0.389 N 
ATOM      3  H   UNL     1     -34.978  21.919   6.355  0.00  0.00    -0.088 HD
ATOM      4  H   UNL     1     -36.147  21.388   5.294  0.00  0.00    -0.088 HD
ATOM      5  H   UNL     1     -36.590  22.097   6.734  0.00  0.00    -0.088 HD
ENDBRANCH   1   2
BRANCH   1   7
ATOM      6  O   UNL     1     -37.523  23.558   3.499  0.00  0.00    -0.252 OA
ATOM      7  C   UNL     1     -36.411  23.242   3.905  0.00  0.00    +0.296 C 
BRANCH   7   8
ATOM      8  O   UNL     1     -35.422  22.685   3.135  0.00  0.00    -0.450 OA
BRANCH   8   9
ATOM      9  C   UNL     1     -35.302  23.191   1.813  0.00  0.00    +0.208 C 
BRANCH   9  10
ATOM     10  C   UNL     1     -34.554  22.175   0.963  0.00  0.00    +0.047 C 
BRANCH  10  11
ATOM     11  C   UNL     1     -35.497  21.123   0.381  0.00  0.00    +0.004 C 
BRANCH  11  12
ATOM     12  C   UNL     1     -35.438  19.820   1.182  0.00  0.00    +0.000 C 
BRANCH  12  13
ATOM     13  C   UNL     1     -34.027  19.458   1.653  0.00  0.00    +0.000 C 
BRANCH  13  14
ATOM     14  C   UNL     1     -33.315  18.461   0.735  0.00  0.00    +0.000 C 
BRANCH  14  15
ATOM     15  C   UNL     1     -31.901  18.162   1.235  0.00  0.00    +0.000 C 
ATOM     16  C   UNL     1     -30.848  18.754   0.313  0.00  0.00    +0.000 C 
ENDBRANCH  14  15
ENDBRANCH  13  14
ENDBRANCH  12  13
ENDBRANCH  11  12
ENDBRANCH  10  11
ENDBRANCH   9  10
ENDBRANCH   8   9
ENDBRANCH   7   8
ENDBRANCH   1   7
BRANCH   1  17
ATOM     17  C   UNL     1     -34.527  24.078   5.380  0.00  0.00    -0.009 C 
BRANCH  17  18
ATOM     18  C   UNL     1     -34.548  25.573   5.731  0.00  0.00    +0.025 C 
BRANCH  18  19
ATOM     19  C   UNL     1     -33.739  26.411   4.745  0.00  0.00    +0.129 C 
BRANCH  19  20
ATOM     20  N   UNL     1     -34.345  26.341   3.413  0.00  0.00    -0.240 NA
BRANCH  20  23
ATOM     21  N   UNL     1     -35.345  28.426   3.264  0.00  0.00    -0.370 N 
ATOM     22  N   UNL     1     -36.689  26.609   2.959  0.00  0.00    -0.370 N 
ATOM     23  C   UNL     1     -35.410  27.053   3.219  0.00  0.00    +0.189 C 
ATOM     24  H   UNL     1     -34.486  28.872   3.443  0.00  0.00    +0.159 HD
ATOM     25  H   UNL     1     -36.157  28.962   3.117  0.00  0.00    +0.159 HD
ATOM     26  H   UNL     1     -36.872  25.644   2.901  0.00  0.00    +0.159 HD
ATOM     27  H   UNL     1     -37.419  27.258   2.831  0.00  0.00    +0.159 HD
ENDBRANCH  20  23
ENDBRANCH  19  20
ENDBRANCH  18  19
ENDBRANCH  17  18
ENDBRANCH   1  17
TORSDOF 15
ENDMDL
MODEL 8
REMARK VINA RESULT:      -4.8      1.123      1.406
REMARK  Name = 53884499
REMARK  15 active torsions:
REMARK  status: ('A' for Active; 'I' for Inactive)
REMARK    1  A    between atoms: C_1  and  N_2
REMARK    2  A    between atoms: C_1  and  C_7
REMARK    3  A    between atoms: C_1  and  C_17
REMARK    4  A    between atoms: C_7  and  O_8
REMARK    5  A    between atoms: O_8  and  C_9
REMARK    6  A    between atoms: C_9  and  C_10
REMARK    7  A    between atoms: C_10  and  C_11
REMARK    8  A    between atoms: C_11  and  C_12
REMARK    9  A    between atoms: C_12  and  C_13
REMARK   10  A    between atoms: C_13  and  C_14
REMARK   11  A    between atoms: C_14  and  C_15
REMARK   12  A    between atoms: C_17  and  C_18
REMARK   13  A    between atoms: C_18  and  C_19
REMARK   14  A    between atoms: C_19  and  N_20
REMARK   15  A    between atoms: N_20  and  C_23
REMARK                            x       y       z     vdW  Elec       q    Type
REMARK                         _______ _______ _______ _____ _____    ______ ____
ROOT
ATOM      1  C   UNL     1     -35.777  25.501   4.316  0.00  0.00    +0.036 C 
ENDROOT
BRANCH   1   2
ATOM      2  N   UNL     1     -36.230  26.549   5.228  0.00  0.00    +0.389 N 
ATOM      3  H   UNL     1     -35.903  26.343   6.172  0.00  0.00    -0.088 HD
ATOM      4  H   UNL     1     -37.250  26.589   5.224  0.00  0.00    -0.088 HD
ATOM      5  H   UNL     1     -35.855  27.449   4.928  0.00  0.00    -0.088 HD
ENDBRANCH   1   2
BRANCH   1   7
ATOM      6  O   UNL     1     -35.949  23.459   5.642  0.00  0.00    -0.252 OA
ATOM      7  C   UNL     1     -36.391  24.185   4.760  0.00  0.00    +0.296 C 
BRANCH   7   8
ATOM      8  O   UNL     1     -37.527  23.936   4.032  0.00  0.00    -0.450 OA
BRANCH   8   9
ATOM      9  C   UNL     1     -37.331  23.630   2.658  0.00  0.00    +0.208 C 
BRANCH   9  10
ATOM     10  C   UNL     1     -38.013  22.306   2.347  0.00  0.00    +0.047 C 
BRANCH  10  11
ATOM     11  C   UNL     1     -37.080  21.350   1.605  0.00  0.00    +0.004 C 
BRANCH  11  12
ATOM     12  C   UNL     1     -36.059  20.722   2.557  0.00  0.00    +0.000 C 
BRANCH  12  13
ATOM     13  C   UNL     1     -34.648  20.639   1.968  0.00  0.00    +0.000 C 
BRANCH  13  14
ATOM     14  C   UNL     1     -34.436  19.420   1.067  0.00  0.00    +0.000 C 
BRANCH  14  15
ATOM     15  C   UNL     1     -33.148  18.679   1.433  0.00  0.00    +0.000 C 
ATOM     16  C   UNL     1     -31.968  19.175   0.613  0.00  0.00    +0.000 C 
ENDBRANCH  14  15
ENDBRANCH  13  14
ENDBRANCH  12  13
ENDBRANCH  11  12
ENDBRANCH  10  11
ENDBRANCH   9  10
ENDBRANCH   8   9
ENDBRANCH   7   8
ENDBRANCH   1   7
BRANCH   1  17
ATOM     17  C   UNL     1     -34.244  25.432   4.253  0.00  0.00    -0.009 C 
BRANCH  17  18
ATOM     18  C   UNL     1     -33.599  26.454   3.305  0.00  0.00    +0.025 C 
BRANCH  18  19
ATOM     19  C   UNL     1     -32.563  27.325   4.011  0.00  0.00    +0.129 C 
BRANCH  19  20
ATOM     20  N   UNL     1     -33.104  27.819   5.280  0.00  0.00    -0.240 NA
BRANCH  20  23
ATOM     21  N   UNL     1     -32.696  27.049   7.427  0.00  0.00    -0.370 N 
ATOM     22  N   UNL     1     -31.081  28.340   6.467  0.00  0.00    -0.370 N 
ATOM     23  C   UNL     1     -32.321  27.758   6.311  0.00  0.00    +0.189 C 
ATOM     24  H   UNL     1     -33.564  26.585   7.445  0.00  0.00    +0.159 HD
ATOM     25  H   UNL     1     -32.099  27.007   8.208  0.00  0.00    +0.159 HD
ATOM     26  H   UNL     1     -30.695  28.877   5.738  0.00  0.00    +0.159 HD
ATOM     27  H   UNL     1     -30.582  28.218   7.307  0.00  0.00    +0.159 HD
ENDBRANCH  20  23
ENDBRANCH  19  20
ENDBRANCH  18  19
ENDBRANCH  17  18
ENDBRANCH   1  17
TORSDOF 15
ENDMDL
MODEL 9
REMARK VINA RESULT:      -4.8      2.446      4.024
REMARK  Name = 53884499
REMARK  15 active torsions:
REMARK  status: ('A' for Active; 'I' for Inactive)
REMARK    1  A    between atoms: C_1  and  N_2
REMARK    2  A    between atoms: C_1  and  C_7
REMARK    3  A    between atoms: C_1  and  C_17
REMARK    4  A    between atoms: C_7  and  O_8
REMARK    5  A    between atoms: O_8  and  C_9
REMARK    6  A    between atoms: C_9  and  C_10
REMARK    7  A    between atoms: C_10  and  C_11
REMARK    8  A    between atoms: C_11  and  C_12
REMARK    9  A    between atoms: C_12  and  C_13
REMARK   10  A    between atoms: C_13  and  C_14
REMARK   11  A    between atoms: C_14  and  C_15
REMARK   12  A    between atoms: C_17  and  C_18
REMARK   13  A    between atoms: C_18  and  C_19
REMARK   14  A    between atoms: C_19  and  N_20
REMARK   15  A    between atoms: N_20  and  C_23
REMARK                            x       y       z     vdW  Elec       q    Type
REMARK                         _______ _______ _______ _____ _____    ______ ____
ROOT
ATOM      1  C   UNL     1     -33.800  28.258   2.972  0.00  0.00    +0.036 C 
ENDROOT
BRANCH   1   2
ATOM      2  N   UNL     1     -35.073  28.918   3.255  0.00  0.00    +0.389 N 
ATOM      3  H   UNL     1     -35.824  28.229   3.239  0.00  0.00    -0.088 HD
ATOM      4  H   UNL     1     -35.251  29.631   2.547  0.00  0.00    -0.088 HD
ATOM      5  H   UNL     1     -35.033  29.356   4.175  0.00  0.00    -0.088 HD
ENDBRANCH   1   2
BRANCH   1   7
ATOM      6  O   UNL     1     -32.467  26.745   4.348  0.00  0.00    -0.252 OA
ATOM      7  C   UNL     1     -33.559  27.210   4.045  0.00  0.00    +0.296 C 
BRANCH   7   8
ATOM      8  O   UNL     1     -34.750  26.871   4.635  0.00  0.00    -0.450 OA
BRANCH   8   9
ATOM      9  C   UNL     1     -34.678  25.900   5.671  0.00  0.00    +0.208 C 
BRANCH   9  10
ATOM     10  C   UNL     1     -35.674  24.789   5.372  0.00  0.00    +0.047 C 
BRANCH  10  11
ATOM     11  C   UNL     1     -35.144  23.423   5.807  0.00  0.00    +0.004 C 
BRANCH  11  12
ATOM     12  C   UNL     1     -35.544  22.331   4.812  0.00  0.00    +0.000 C 
BRANCH  12  13
ATOM     13  C   UNL     1     -35.992  22.877   3.454  0.00  0.00    +0.000 C 
BRANCH  13  14
ATOM     14  C   UNL     1     -35.257  22.243   2.271  0.00  0.00    +0.000 C 
BRANCH  14  15
ATOM     15  C   UNL     1     -34.798  23.307   1.271  0.00  0.00    +0.000 C 
ATOM     16  C   UNL     1     -35.180  24.704   1.730  0.00  0.00    +0.000 C 
ENDBRANCH  14  15
ENDBRANCH  13  14
ENDBRANCH  12  13
ENDBRANCH  11  12
ENDBRANCH  10  11
ENDBRANCH   9  10
ENDBRANCH   8   9
ENDBRANCH   7   8
ENDBRANCH   1   7
BRANCH   1  17
ATOM     17  C   UNL     1     -32.647  29.270   2.883  0.00  0.00    -0.009 C 
BRANCH  17  18
ATOM     18  C   UNL     1     -32.818  30.508   3.778  0.00  0.00    +0.025 C 
BRANCH  18  19
ATOM     19  C   UNL     1     -31.725  30.609   4.839  0.00  0.00    +0.129 C 
BRANCH  19  20
ATOM     20  N   UNL     1     -32.236  30.146   6.131  0.00  0.00    -0.240 NA
BRANCH  20  23
ATOM     21  N   UNL     1     -32.062  28.033   7.067  0.00  0.00    -0.370 N 
ATOM     22  N   UNL     1     -30.220  29.372   7.185  0.00  0.00    -0.370 N 
ATOM     23  C   UNL     1     -31.525  29.260   6.755  0.00  0.00    +0.189 C 
ATOM     24  H   UNL     1     -32.991  27.825   6.816  0.00  0.00    +0.159 HD
ATOM     25  H   UNL     1     -31.518  27.365   7.542  0.00  0.00    +0.159 HD
ATOM     26  H   UNL     1     -29.719  30.204   7.023  0.00  0.00    +0.159 HD
ATOM     27  H   UNL     1     -29.790  28.620   7.653  0.00  0.00    +0.159 HD
ENDBRANCH  20  23
ENDBRANCH  19  20
ENDBRANCH  18  19
ENDBRANCH  17  18
ENDBRANCH   1  17
TORSDOF 15
ENDMDL
