MODEL 1
REMARK VINA RESULT:      -7.8      0.000      0.000
REMARK  Name = 194098
REMARK  8 active torsions:
REMARK  status: ('A' for Active; 'I' for Inactive)
REMARK    1  A    between atoms: C_2  and  O_16
REMARK    2  A    between atoms: C_3  and  C_18
REMARK    3  A    between atoms: C_5  and  N_8
REMARK    4  A    between atoms: C_18  and  O_19
REMARK    5  A    between atoms: O_19  and  P_20
REMARK    6  A    between atoms: P_20  and  O_22
REMARK    7  A    between atoms: P_20  and  O_24
REMARK    8  A    between atoms: O_24  and  C_25
REMARK                            x       y       z     vdW  Elec       q    Type
REMARK                         _______ _______ _______ _____ _____    ______ ____
ROOT
ATOM      1  O   UNL     1     -34.590  23.292   3.611  0.00  0.00    -0.335 OA
ATOM      2  C   UNL     1     -35.660  22.440   5.546  0.00  0.00    +0.144 C 
ATOM      3  C   UNL     1     -35.479  22.247   4.047  0.00  0.00    +0.174 C 
ATOM      4  C   UNL     1     -35.482  23.930   5.724  0.00  0.00    +0.083 C 
ATOM      5  C   UNL     1     -34.457  24.268   4.654  0.00  0.00    +0.202 C 
ENDROOT
BRANCH   5   8
ATOM      6  O   UNL     1     -32.965  26.581   5.385  0.00  0.00    -0.252 OA
ATOM      7  O   UNL     1     -35.296  29.225   2.432  0.00  0.00    -0.270 OA
ATOM      8  N   UNL     1     -34.640  25.580   4.103  0.00  0.00    -0.219 N 
ATOM      9  N   UNL     1     -34.136  27.888   3.909  0.00  0.00    -0.236 N 
ATOM     10  C   UNL     1     -35.618  25.760   3.134  0.00  0.00    +0.071 C 
ATOM     11  C   UNL     1     -33.849  26.668   4.531  0.00  0.00    +0.315 C 
ATOM     12  C   UNL     1     -35.889  26.929   2.541  0.00  0.00    +0.047 C 
ATOM     13  C   UNL     1     -35.097  28.124   2.937  0.00  0.00    +0.250 C 
ATOM     14  C   UNL     1     -36.947  27.101   1.498  0.00  0.00    +0.037 C 
ATOM     15  H   UNL     1     -33.597  28.662   4.190  0.00  0.00    +0.159 HD
ENDBRANCH   5   8
BRANCH   2  16
ATOM     16  O   UNL     1     -34.633  21.746   6.252  0.00  0.00    -0.382 OA
ATOM     17  H   UNL     1     -33.956  21.446   5.625  0.00  0.00    +0.210 HD
ENDBRANCH   2  16
BRANCH   3  18
ATOM     18  C   UNL     1     -36.782  22.386   3.271  0.00  0.00    +0.187 C 
BRANCH  18  19
ATOM     19  O   UNL     1     -36.535  22.102   1.904  0.00  0.00    -0.261 OA
BRANCH  19  20
ATOM     20  P   UNL     1     -36.258  20.581   1.427  0.00  0.00    +0.531 P 
ATOM     21  O   UNL     1     -36.710  20.260   0.031  0.00  0.00    -0.215 OA
BRANCH  20  22
ATOM     22  O   UNL     1     -36.981  19.680   2.562  0.00  0.00    -0.293 OA
ATOM     23  H   UNL     1     -37.349  18.879   2.155  0.00  0.00    +0.223 HD
ENDBRANCH  20  22
BRANCH  20  24
ATOM     24  O   UNL     1     -34.690  20.319   1.710  0.00  0.00    -0.403 OA
BRANCH  24  25
ATOM     25  C   UNL     1     -33.667  20.721   0.893  0.00  0.00    +0.149 C 
ATOM     26  C   UNL     1     -32.569  19.886   0.637  0.00  0.00    +0.035 C 
ATOM     27  C   UNL     1     -31.536  20.346  -0.214  0.00  0.00    +0.003 C 
ATOM     28  C   UNL     1     -33.750  21.989   0.323  0.00  0.00    +0.037 C 
ATOM     29  C   UNL     1     -32.470  18.605   1.205  0.00  0.00    +0.003 C 
ATOM     30  C   UNL     1     -31.634  21.627  -0.783  0.00  0.00    +0.000 C 
ATOM     31  C   UNL     1     -32.735  22.443  -0.515  0.00  0.00    +0.003 C 
ATOM     32  C   UNL     1     -30.435  19.514  -0.472  0.00  0.00    +0.000 C 
ATOM     33  C   UNL     1     -31.370  17.791   0.938  0.00  0.00    +0.000 C 
ATOM     34  C   UNL     1     -30.355  18.244   0.101  0.00  0.00    +0.000 C 
ENDBRANCH  24  25
ENDBRANCH  20  24
ENDBRANCH  19  20
ENDBRANCH  18  19
ENDBRANCH   3  18
TORSDOF 8
ENDMDL
MODEL 2
REMARK VINA RESULT:      -7.6      1.618      3.241
REMARK  Name = 194098
REMARK  8 active torsions:
REMARK  status: ('A' for Active; 'I' for Inactive)
REMARK    1  A    between atoms: C_2  and  O_16
REMARK    2  A    between atoms: C_3  and  C_18
REMARK    3  A    between atoms: C_5  and  N_8
REMARK    4  A    between atoms: C_18  and  O_19
REMARK    5  A    between atoms: O_19  and  P_20
REMARK    6  A    between atoms: P_20  and  O_22
REMARK    7  A    between atoms: P_20  and  O_24
REMARK    8  A    between atoms: O_24  and  C_25
REMARK                            x       y       z     vdW  Elec       q    Type
REMARK                         _______ _______ _______ _____ _____    ______ ____
ROOT
ATOM      1  O   UNL     1     -37.450  22.870   3.369  0.00  0.00    -0.335 OA
ATOM      2  C   UNL     1     -39.011  23.786   1.839  0.00  0.00    +0.144 C 
ATOM      3  C   UNL     1     -38.068  22.618   2.093  0.00  0.00    +0.174 C 
ATOM      4  C   UNL     1     -38.351  24.927   2.577  0.00  0.00    +0.083 C 
ATOM      5  C   UNL     1     -37.713  24.224   3.764  0.00  0.00    +0.202 C 
ENDROOT
BRANCH   5   8
ATOM      6  O   UNL     1     -36.037  23.291   5.869  0.00  0.00    -0.252 OA
ATOM      7  O   UNL     1     -33.046  26.727   5.237  0.00  0.00    -0.270 OA
ATOM      8  N   UNL     1     -36.489  24.842   4.184  0.00  0.00    -0.219 N 
ATOM      9  N   UNL     1     -34.554  25.010   5.544  0.00  0.00    -0.236 N 
ATOM     10  C   UNL     1     -36.067  25.990   3.526  0.00  0.00    +0.071 C 
ATOM     11  C   UNL     1     -35.724  24.304   5.241  0.00  0.00    +0.315 C 
ATOM     12  C   UNL     1     -34.947  26.662   3.818  0.00  0.00    +0.047 C 
ATOM     13  C   UNL     1     -34.086  26.157   4.920  0.00  0.00    +0.250 C 
ATOM     14  C   UNL     1     -34.511  27.896   3.095  0.00  0.00    +0.037 C 
ATOM     15  H   UNL     1     -34.003  24.654   6.278  0.00  0.00    +0.159 HD
ENDBRANCH   5   8
BRANCH   2  16
ATOM     16  O   UNL     1     -40.287  23.514   2.417  0.00  0.00    -0.382 OA
ATOM     17  H   UNL     1     -40.977  23.963   1.903  0.00  0.00    +0.210 HD
ENDBRANCH   2  16
BRANCH   3  18
ATOM     18  C   UNL     1     -36.964  22.511   1.050  0.00  0.00    +0.187 C 
BRANCH  18  19
ATOM     19  O   UNL     1     -37.033  21.234   0.438  0.00  0.00    -0.261 OA
BRANCH  19  20
ATOM     20  P   UNL     1     -36.167  20.001   1.031  0.00  0.00    +0.531 P 
ATOM     21  O   UNL     1     -36.196  18.748   0.203  0.00  0.00    -0.215 OA
BRANCH  20  22
ATOM     22  O   UNL     1     -36.752  19.800   2.527  0.00  0.00    -0.293 OA
ATOM     23  H   UNL     1     -36.548  20.583   3.063  0.00  0.00    +0.223 HD
ENDBRANCH  20  22
BRANCH  20  24
ATOM     24  O   UNL     1     -34.693  20.602   1.303  0.00  0.00    -0.403 OA
BRANCH  24  25
ATOM     25  C   UNL     1     -33.518  19.954   1.028  0.00  0.00    +0.149 C 
ATOM     26  C   UNL     1     -32.513  20.564   0.263  0.00  0.00    +0.035 C 
ATOM     27  C   UNL     1     -31.316  19.853   0.005  0.00  0.00    +0.003 C 
ATOM     28  C   UNL     1     -33.353  18.666   1.531  0.00  0.00    +0.037 C 
ATOM     29  C   UNL     1     -32.665  21.862  -0.252  0.00  0.00    +0.003 C 
ATOM     30  C   UNL     1     -31.163  18.555   0.520  0.00  0.00    +0.000 C 
ATOM     31  C   UNL     1     -32.176  17.966   1.279  0.00  0.00    +0.003 C 
ATOM     32  C   UNL     1     -30.307  20.461  -0.760  0.00  0.00    +0.000 C 
ATOM     33  C   UNL     1     -31.652  22.450  -1.010  0.00  0.00    +0.000 C 
ATOM     34  C   UNL     1     -30.476  21.751  -1.263  0.00  0.00    +0.000 C 
ENDBRANCH  24  25
ENDBRANCH  20  24
ENDBRANCH  19  20
ENDBRANCH  18  19
ENDBRANCH   3  18
TORSDOF 8
ENDMDL
MODEL 3
REMARK VINA RESULT:      -7.5      2.033      2.883
REMARK  Name = 194098
REMARK  8 active torsions:
REMARK  status: ('A' for Active; 'I' for Inactive)
REMARK    1  A    between atoms: C_2  and  O_16
REMARK    2  A    between atoms: C_3  and  C_18
REMARK    3  A    between atoms: C_5  and  N_8
REMARK    4  A    between atoms: C_18  and  O_19
REMARK    5  A    between atoms: O_19  and  P_20
REMARK    6  A    between atoms: P_20  and  O_22
REMARK    7  A    between atoms: P_20  and  O_24
REMARK    8  A    between atoms: O_24  and  C_25
REMARK                            x       y       z     vdW  Elec       q    Type
REMARK                         _______ _______ _______ _____ _____    ______ ____
ROOT
ATOM      1  O   UNL     1     -34.551  25.385   3.253  0.00  0.00    -0.335 OA
ATOM      2  C   UNL     1     -34.476  25.473   5.620  0.00  0.00    +0.144 C 
ATOM      3  C   UNL     1     -34.112  24.636   4.402  0.00  0.00    +0.174 C 
ATOM      4  C   UNL     1     -35.695  26.238   5.159  0.00  0.00    +0.083 C 
ATOM      5  C   UNL     1     -35.408  26.453   3.682  0.00  0.00    +0.202 C 
ENDROOT
BRANCH   5   8
ATOM      6  O   UNL     1     -35.707  27.808   1.195  0.00  0.00    -0.252 OA
ATOM      7  O   UNL     1     -40.049  26.366   0.739  0.00  0.00    -0.270 OA
ATOM      8  N   UNL     1     -36.597  26.460   2.880  0.00  0.00    -0.219 N 
ATOM      9  N   UNL     1     -37.871  27.083   0.980  0.00  0.00    -0.236 N 
ATOM     10  C   UNL     1     -37.704  25.755   3.333  0.00  0.00    +0.071 C 
ATOM     11  C   UNL     1     -36.649  27.163   1.658  0.00  0.00    +0.315 C 
ATOM     12  C   UNL     1     -38.872  25.680   2.682  0.00  0.00    +0.047 C 
ATOM     13  C   UNL     1     -39.006  26.395   1.385  0.00  0.00    +0.250 C 
ATOM     14  C   UNL     1     -40.053  24.915   3.188  0.00  0.00    +0.037 C 
ATOM     15  H   UNL     1     -37.933  27.565   0.125  0.00  0.00    +0.159 HD
ENDBRANCH   5   8
BRANCH   2  16
ATOM     16  O   UNL     1     -33.419  26.385   5.915  0.00  0.00    -0.382 OA
ATOM     17  H   UNL     1     -33.707  27.290   5.711  0.00  0.00    +0.210 HD
ENDBRANCH   2  16
BRANCH   3  18
ATOM     18  C   UNL     1     -34.817  23.286   4.379  0.00  0.00    +0.187 C 
BRANCH  18  19
ATOM     19  O   UNL     1     -35.000  22.886   3.031  0.00  0.00    -0.261 OA
BRANCH  19  20
ATOM     20  P   UNL     1     -36.159  21.822   2.650  0.00  0.00    +0.531 P 
ATOM     21  O   UNL     1     -37.554  22.378   2.643  0.00  0.00    -0.215 OA
BRANCH  20  22
ATOM     22  O   UNL     1     -35.949  20.620   3.715  0.00  0.00    -0.293 OA
ATOM     23  H   UNL     1     -36.780  20.128   3.817  0.00  0.00    +0.223 HD
ENDBRANCH  20  22
BRANCH  20  24
ATOM     24  O   UNL     1     -35.687  21.151   1.259  0.00  0.00    -0.403 OA
BRANCH  24  25
ATOM     25  C   UNL     1     -34.466  21.342   0.669  0.00  0.00    +0.149 C 
ATOM     26  C   UNL     1     -33.474  20.352   0.712  0.00  0.00    +0.035 C 
ATOM     27  C   UNL     1     -32.227  20.597   0.089  0.00  0.00    +0.003 C 
ATOM     28  C   UNL     1     -34.238  22.557   0.025  0.00  0.00    +0.037 C 
ATOM     29  C   UNL     1     -33.688  19.124   1.359  0.00  0.00    +0.003 C 
ATOM     30  C   UNL     1     -32.012  21.825  -0.558  0.00  0.00    +0.000 C 
ATOM     31  C   UNL     1     -33.013  22.798  -0.589  0.00  0.00    +0.003 C 
ATOM     32  C   UNL     1     -31.232  19.607   0.131  0.00  0.00    +0.000 C 
ATOM     33  C   UNL     1     -32.689  18.151   1.390  0.00  0.00    +0.000 C 
ATOM     34  C   UNL     1     -31.463  18.393   0.778  0.00  0.00    +0.000 C 
ENDBRANCH  24  25
ENDBRANCH  20  24
ENDBRANCH  19  20
ENDBRANCH  18  19
ENDBRANCH   3  18
TORSDOF 8
ENDMDL
MODEL 4
REMARK VINA RESULT:      -7.4      1.849      2.463
REMARK  Name = 194098
REMARK  8 active torsions:
REMARK  status: ('A' for Active; 'I' for Inactive)
REMARK    1  A    between atoms: C_2  and  O_16
REMARK    2  A    between atoms: C_3  and  C_18
REMARK    3  A    between atoms: C_5  and  N_8
REMARK    4  A    between atoms: C_18  and  O_19
REMARK    5  A    between atoms: O_19  and  P_20
REMARK    6  A    between atoms: P_20  and  O_22
REMARK    7  A    between atoms: P_20  and  O_24
REMARK    8  A    between atoms: O_24  and  C_25
REMARK                            x       y       z     vdW  Elec       q    Type
REMARK                         _______ _______ _______ _____ _____    ______ ____
ROOT
ATOM      1  O   UNL     1     -37.098  23.383   3.696  0.00  0.00    -0.335 OA
ATOM      2  C   UNL     1     -38.922  24.129   2.380  0.00  0.00    +0.144 C 
ATOM      3  C   UNL     1     -38.002  22.950   2.662  0.00  0.00    +0.174 C 
ATOM      4  C   UNL     1     -38.058  25.324   2.707  0.00  0.00    +0.083 C 
ATOM      5  C   UNL     1     -37.199  24.806   3.849  0.00  0.00    +0.202 C 
ENDROOT
BRANCH   5   8
ATOM      6  O   UNL     1     -36.081  26.320   5.987  0.00  0.00    -0.252 OA
ATOM      7  O   UNL     1     -32.129  26.924   3.714  0.00  0.00    -0.270 OA
ATOM      8  N   UNL     1     -35.884  25.378   3.859  0.00  0.00    -0.219 N 
ATOM      9  N   UNL     1     -34.116  26.614   4.842  0.00  0.00    -0.236 N 
ATOM     10  C   UNL     1     -35.073  25.191   2.748  0.00  0.00    +0.071 C 
ATOM     11  C   UNL     1     -35.417  26.115   4.968  0.00  0.00    +0.315 C 
ATOM     12  C   UNL     1     -33.828  25.670   2.630  0.00  0.00    +0.047 C 
ATOM     13  C   UNL     1     -33.264  26.458   3.758  0.00  0.00    +0.250 C 
ATOM     14  C   UNL     1     -32.971  25.457   1.424  0.00  0.00    +0.037 C 
ATOM     15  H   UNL     1     -33.767  27.132   5.603  0.00  0.00    +0.159 HD
ENDBRANCH   5   8
BRANCH   2  16
ATOM     16  O   UNL     1     -40.043  24.091   3.262  0.00  0.00    -0.382 OA
ATOM     17  H   UNL     1     -40.713  23.484   2.908  0.00  0.00    +0.210 HD
ENDBRANCH   2  16
BRANCH   3  18
ATOM     18  C   UNL     1     -37.172  22.544   1.452  0.00  0.00    +0.187 C 
BRANCH  18  19
ATOM     19  O   UNL     1     -37.598  21.265   1.011  0.00  0.00    -0.261 OA
BRANCH  19  20
ATOM     20  P   UNL     1     -36.510  20.174   0.514  0.00  0.00    +0.531 P 
ATOM     21  O   UNL     1     -36.387  20.033  -0.977  0.00  0.00    -0.215 OA
BRANCH  20  22
ATOM     22  O   UNL     1     -36.963  18.808   1.256  0.00  0.00    -0.293 OA
ATOM     23  H   UNL     1     -36.867  18.060   0.645  0.00  0.00    +0.223 HD
ENDBRANCH  20  22
BRANCH  20  24
ATOM     24  O   UNL     1     -35.138  20.555   1.276  0.00  0.00    -0.403 OA
BRANCH  24  25
ATOM     25  C   UNL     1     -33.945  20.822   0.658  0.00  0.00    +0.149 C 
ATOM     26  C   UNL     1     -32.899  19.889   0.663  0.00  0.00    +0.035 C 
ATOM     27  C   UNL     1     -31.684  20.210   0.011  0.00  0.00    +0.003 C 
ATOM     28  C   UNL     1     -33.803  22.054   0.023  0.00  0.00    +0.037 C 
ATOM     29  C   UNL     1     -33.026  18.643   1.300  0.00  0.00    +0.003 C 
ATOM     30  C   UNL     1     -31.555  21.456  -0.625  0.00  0.00    +0.000 C 
ATOM     31  C   UNL     1     -32.610  22.371  -0.619  0.00  0.00    +0.003 C 
ATOM     32  C   UNL     1     -30.634  19.278   0.015  0.00  0.00    +0.000 C 
ATOM     33  C   UNL     1     -31.973  17.728   1.293  0.00  0.00    +0.000 C 
ATOM     34  C   UNL     1     -30.779  18.046   0.652  0.00  0.00    +0.000 C 
ENDBRANCH  24  25
ENDBRANCH  20  24
ENDBRANCH  19  20
ENDBRANCH  18  19
ENDBRANCH   3  18
TORSDOF 8
ENDMDL
MODEL 5
REMARK VINA RESULT:      -7.3      3.203      6.155
REMARK  Name = 194098
REMARK  8 active torsions:
REMARK  status: ('A' for Active; 'I' for Inactive)
REMARK    1  A    between atoms: C_2  and  O_16
REMARK    2  A    between atoms: C_3  and  C_18
REMARK    3  A    between atoms: C_5  and  N_8
REMARK    4  A    between atoms: C_18  and  O_19
REMARK    5  A    between atoms: O_19  and  P_20
REMARK    6  A    between atoms: P_20  and  O_22
REMARK    7  A    between atoms: P_20  and  O_24
REMARK    8  A    between atoms: O_24  and  C_25
REMARK                            x       y       z     vdW  Elec       q    Type
REMARK                         _______ _______ _______ _____ _____    ______ ____
ROOT
ATOM      1  O   UNL     1     -35.861  25.973   3.916  0.00  0.00    -0.335 OA
ATOM      2  C   UNL     1     -33.896  27.133   3.277  0.00  0.00    +0.144 C 
ATOM      3  C   UNL     1     -35.416  27.149   3.214  0.00  0.00    +0.174 C 
ATOM      4  C   UNL     1     -33.571  25.659   3.346  0.00  0.00    +0.083 C 
ATOM      5  C   UNL     1     -34.744  25.101   4.137  0.00  0.00    +0.202 C 
ENDROOT
BRANCH   5   8
ATOM      6  O   UNL     1     -36.033  23.182   5.799  0.00  0.00    -0.252 OA
ATOM      7  O   UNL     1     -36.022  20.028   2.453  0.00  0.00    -0.270 OA
ATOM      8  N   UNL     1     -35.096  23.768   3.743  0.00  0.00    -0.219 N 
ATOM      9  N   UNL     1     -36.020  21.618   4.122  0.00  0.00    -0.236 N 
ATOM     10  C   UNL     1     -34.794  23.358   2.451  0.00  0.00    +0.071 C 
ATOM     11  C   UNL     1     -35.735  22.886   4.640  0.00  0.00    +0.315 C 
ATOM     12  C   UNL     1     -35.069  22.144   1.958  0.00  0.00    +0.047 C 
ATOM     13  C   UNL     1     -35.742  21.158   2.843  0.00  0.00    +0.250 C 
ATOM     14  C   UNL     1     -34.734  21.723   0.563  0.00  0.00    +0.037 C 
ATOM     15  H   UNL     1     -36.466  20.985   4.729  0.00  0.00    +0.159 HD
ENDBRANCH   5   8
BRANCH   2  16
ATOM     16  O   UNL     1     -33.452  27.778   4.470  0.00  0.00    -0.382 OA
ATOM     17  H   UNL     1     -32.868  27.181   4.963  0.00  0.00    +0.210 HD
ENDBRANCH   2  16
BRANCH   3  18
ATOM     18  C   UNL     1     -35.950  27.076   1.790  0.00  0.00    +0.187 C 
BRANCH  18  19
ATOM     19  O   UNL     1     -37.321  27.440   1.794  0.00  0.00    -0.261 OA
BRANCH  19  20
ATOM     20  P   UNL     1     -38.465  26.297   1.865  0.00  0.00    +0.531 P 
ATOM     21  O   UNL     1     -39.591  26.463   0.885  0.00  0.00    -0.215 OA
BRANCH  20  22
ATOM     22  O   UNL     1     -38.945  26.324   3.411  0.00  0.00    -0.293 OA
ATOM     23  H   UNL     1     -38.494  25.619   3.903  0.00  0.00    +0.223 HD
ENDBRANCH  20  22
BRANCH  20  24
ATOM     24  O   UNL     1     -37.676  24.891   1.762  0.00  0.00    -0.403 OA
BRANCH  24  25
ATOM     25  C   UNL     1     -38.236  23.704   1.370  0.00  0.00    +0.149 C 
ATOM     26  C   UNL     1     -38.073  23.218   0.065  0.00  0.00    +0.035 C 
ATOM     27  C   UNL     1     -38.671  21.986  -0.292  0.00  0.00    +0.003 C 
ATOM     28  C   UNL     1     -38.976  22.992   2.312  0.00  0.00    +0.037 C 
ATOM     29  C   UNL     1     -37.331  23.925  -0.896  0.00  0.00    +0.003 C 
ATOM     30  C   UNL     1     -39.414  21.279   0.669  0.00  0.00    +0.000 C 
ATOM     31  C   UNL     1     -39.564  21.781   1.963  0.00  0.00    +0.003 C 
ATOM     32  C   UNL     1     -38.511  21.497  -1.599  0.00  0.00    +0.000 C 
ATOM     33  C   UNL     1     -37.181  23.423  -2.189  0.00  0.00    +0.000 C 
ATOM     34  C   UNL     1     -37.770  22.212  -2.540  0.00  0.00    +0.000 C 
ENDBRANCH  24  25
ENDBRANCH  20  24
ENDBRANCH  19  20
ENDBRANCH  18  19
ENDBRANCH   3  18
TORSDOF 8
ENDMDL
MODEL 6
REMARK VINA RESULT:      -7.3      1.669      2.353
REMARK  Name = 194098
REMARK  8 active torsions:
REMARK  status: ('A' for Active; 'I' for Inactive)
REMARK    1  A    between atoms: C_2  and  O_16
REMARK    2  A    between atoms: C_3  and  C_18
REMARK    3  A    between atoms: C_5  and  N_8
REMARK    4  A    between atoms: C_18  and  O_19
REMARK    5  A    between atoms: O_19  and  P_20
REMARK    6  A    between atoms: P_20  and  O_22
REMARK    7  A    between atoms: P_20  and  O_24
REMARK    8  A    between atoms: O_24  and  C_25
REMARK                            x       y       z     vdW  Elec       q    Type
REMARK                         _______ _______ _______ _____ _____    ______ ____
ROOT
ATOM      1  O   UNL     1     -34.639  23.356   3.451  0.00  0.00    -0.335 OA
ATOM      2  C   UNL     1     -35.633  22.479   5.415  0.00  0.00    +0.144 C 
ATOM      3  C   UNL     1     -35.548  22.334   3.902  0.00  0.00    +0.174 C 
ATOM      4  C   UNL     1     -35.378  23.953   5.633  0.00  0.00    +0.083 C 
ATOM      5  C   UNL     1     -34.402  24.286   4.517  0.00  0.00    +0.202 C 
ENDROOT
BRANCH   5   8
ATOM      6  O   UNL     1     -33.065  26.581   5.543  0.00  0.00    -0.252 OA
ATOM      7  O   UNL     1     -35.118  29.346   2.496  0.00  0.00    -0.270 OA
ATOM      8  N   UNL     1     -34.557  25.624   4.024  0.00  0.00    -0.219 N 
ATOM      9  N   UNL     1     -34.097  27.949   4.019  0.00  0.00    -0.236 N 
ATOM     10  C   UNL     1     -35.423  25.841   2.961  0.00  0.00    +0.071 C 
ATOM     11  C   UNL     1     -33.849  26.700   4.600  0.00  0.00    +0.315 C 
ATOM     12  C   UNL     1     -35.657  27.037   2.407  0.00  0.00    +0.047 C 
ATOM     13  C   UNL     1     -34.948  28.222   2.958  0.00  0.00    +0.250 C 
ATOM     14  C   UNL     1     -36.594  27.249   1.262  0.00  0.00    +0.037 C 
ATOM     15  H   UNL     1     -33.615  28.716   4.403  0.00  0.00    +0.159 HD
ENDBRANCH   5   8
BRANCH   2  16
ATOM     16  O   UNL     1     -34.599  21.716   6.035  0.00  0.00    -0.382 OA
ATOM     17  H   UNL     1     -34.387  22.102   6.900  0.00  0.00    +0.210 HD
ENDBRANCH   2  16
BRANCH   3  18
ATOM     18  C   UNL     1     -36.886  22.558   3.210  0.00  0.00    +0.187 C 
BRANCH  18  19
ATOM     19  O   UNL     1     -36.759  22.208   1.842  0.00  0.00    -0.261 OA
BRANCH  19  20
ATOM     20  P   UNL     1     -37.268  20.761   1.323  0.00  0.00    +0.531 P 
ATOM     21  O   UNL     1     -38.698  20.717   0.866  0.00  0.00    -0.215 OA
BRANCH  20  22
ATOM     22  O   UNL     1     -36.957  19.771   2.567  0.00  0.00    -0.293 OA
ATOM     23  H   UNL     1     -36.062  19.944   2.903  0.00  0.00    +0.223 HD
ENDBRANCH  20  22
BRANCH  20  24
ATOM     24  O   UNL     1     -36.186  20.295   0.218  0.00  0.00    -0.403 OA
BRANCH  24  25
ATOM     25  C   UNL     1     -35.789  19.001   0.005  0.00  0.00    +0.149 C 
ATOM     26  C   UNL     1     -34.469  18.596   0.247  0.00  0.00    +0.035 C 
ATOM     27  C   UNL     1     -34.107  17.248   0.011  0.00  0.00    +0.003 C 
ATOM     28  C   UNL     1     -36.742  18.098  -0.463  0.00  0.00    +0.037 C 
ATOM     29  C   UNL     1     -33.498  19.495   0.718  0.00  0.00    +0.003 C 
ATOM     30  C   UNL     1     -35.078  16.348  -0.460  0.00  0.00    +0.000 C 
ATOM     31  C   UNL     1     -36.387  16.772  -0.695  0.00  0.00    +0.003 C 
ATOM     32  C   UNL     1     -32.786  16.839   0.253  0.00  0.00    +0.000 C 
ATOM     33  C   UNL     1     -32.190  19.071   0.953  0.00  0.00    +0.000 C 
ATOM     34  C   UNL     1     -31.835  17.746   0.721  0.00  0.00    +0.000 C 
ENDBRANCH  24  25
ENDBRANCH  20  24
ENDBRANCH  19  20
ENDBRANCH  18  19
ENDBRANCH   3  18
TORSDOF 8
ENDMDL
MODEL 7
REMARK VINA RESULT:      -7.2      3.836      6.877
REMARK  Name = 194098
REMARK  8 active torsions:
REMARK  status: ('A' for Active; 'I' for Inactive)
REMARK    1  A    between atoms: C_2  and  O_16
REMARK    2  A    between atoms: C_3  and  C_18
REMARK    3  A    between atoms: C_5  and  N_8
REMARK    4  A    between atoms: C_18  and  O_19
REMARK    5  A    between atoms: O_19  and  P_20
REMARK    6  A    between atoms: P_20  and  O_22
REMARK    7  A    between atoms: P_20  and  O_24
REMARK    8  A    between atoms: O_24  and  C_25
REMARK                            x       y       z     vdW  Elec       q    Type
REMARK                         _______ _______ _______ _____ _____    ______ ____
ROOT
ATOM      1  O   UNL     1     -33.295  29.989   4.174  0.00  0.00    -0.335 OA
ATOM      2  C   UNL     1     -33.056  30.239   1.829  0.00  0.00    +0.144 C 
ATOM      3  C   UNL     1     -33.966  29.711   2.930  0.00  0.00    +0.174 C 
ATOM      4  C   UNL     1     -31.677  30.108   2.432  0.00  0.00    +0.083 C 
ATOM      5  C   UNL     1     -31.937  30.366   3.907  0.00  0.00    +0.202 C 
ENDROOT
BRANCH   5   8
ATOM      6  O   UNL     1     -32.109  30.267   6.748  0.00  0.00    -0.252 OA
ATOM      7  O   UNL     1     -28.483  27.455   7.037  0.00  0.00    -0.270 OA
ATOM      8  N   UNL     1     -31.060  29.622   4.764  0.00  0.00    -0.219 N 
ATOM      9  N   UNL     1     -30.299  28.866   6.878  0.00  0.00    -0.236 N 
ATOM     10  C   UNL     1     -30.037  28.884   4.184  0.00  0.00    +0.071 C 
ATOM     11  C   UNL     1     -31.225  29.636   6.166  0.00  0.00    +0.315 C 
ATOM     12  C   UNL     1     -29.153  28.148   4.869  0.00  0.00    +0.047 C 
ATOM     13  C   UNL     1     -29.262  28.110   6.352  0.00  0.00    +0.250 C 
ATOM     14  C   UNL     1     -28.059  27.359   4.224  0.00  0.00    +0.037 C 
ATOM     15  H   UNL     1     -30.394  28.859   7.857  0.00  0.00    +0.159 HD
ENDBRANCH   5   8
BRANCH   2  16
ATOM     16  O   UNL     1     -33.343  31.614   1.581  0.00  0.00    -0.382 OA
ATOM     17  H   UNL     1     -32.576  32.155   1.829  0.00  0.00    +0.210 HD
ENDBRANCH   2  16
BRANCH   3  18
ATOM     18  C   UNL     1     -34.189  28.208   2.842  0.00  0.00    +0.187 C 
BRANCH  18  19
ATOM     19  O   UNL     1     -34.581  27.726   4.118  0.00  0.00    -0.261 OA
BRANCH  19  20
ATOM     20  P   UNL     1     -34.072  26.278   4.630  0.00  0.00    +0.531 P 
ATOM     21  O   UNL     1     -33.490  26.262   6.015  0.00  0.00    -0.215 OA
BRANCH  20  22
ATOM     22  O   UNL     1     -33.028  25.805   3.486  0.00  0.00    -0.293 OA
ATOM     23  H   UNL     1     -32.239  26.369   3.515  0.00  0.00    +0.223 HD
ENDBRANCH  20  22
BRANCH  20  24
ATOM     24  O   UNL     1     -35.322  25.279   4.407  0.00  0.00    -0.403 OA
BRANCH  24  25
ATOM     25  C   UNL     1     -35.304  23.932   4.655  0.00  0.00    +0.149 C 
ATOM     26  C   UNL     1     -35.320  23.000   3.608  0.00  0.00    +0.035 C 
ATOM     27  C   UNL     1     -35.301  21.618   3.913  0.00  0.00    +0.003 C 
ATOM     28  C   UNL     1     -35.269  23.515   5.984  0.00  0.00    +0.037 C 
ATOM     29  C   UNL     1     -35.356  23.404   2.263  0.00  0.00    +0.003 C 
ATOM     30  C   UNL     1     -35.265  21.212   5.258  0.00  0.00    +0.000 C 
ATOM     31  C   UNL     1     -35.249  22.157   6.286  0.00  0.00    +0.003 C 
ATOM     32  C   UNL     1     -35.318  20.681   2.867  0.00  0.00    +0.000 C 
ATOM     33  C   UNL     1     -35.372  22.460   1.236  0.00  0.00    +0.000 C 
ATOM     34  C   UNL     1     -35.353  21.102   1.537  0.00  0.00    +0.000 C 
ENDBRANCH  24  25
ENDBRANCH  20  24
ENDBRANCH  19  20
ENDBRANCH  18  19
ENDBRANCH   3  18
TORSDOF 8
ENDMDL
MODEL 8
REMARK VINA RESULT:      -7.1      2.037      3.399
REMARK  Name = 194098
REMARK  8 active torsions:
REMARK  status: ('A' for Active; 'I' for Inactive)
REMARK    1  A    between atoms: C_2  and  O_16
REMARK    2  A    between atoms: C_3  and  C_18
REMARK    3  A    between atoms: C_5  and  N_8
REMARK    4  A    between atoms: C_18  and  O_19
REMARK    5  A    between atoms: O_19  and  P_20
REMARK    6  A    between atoms: P_20  and  O_22
REMARK    7  A    between atoms: P_20  and  O_24
REMARK    8  A    between atoms: O_24  and  C_25
REMARK                            x       y       z     vdW  Elec       q    Type
REMARK                         _______ _______ _______ _____ _____    ______ ____
ROOT
ATOM      1  O   UNL     1     -34.511  25.455   3.315  0.00  0.00    -0.335 OA
ATOM      2  C   UNL     1     -34.478  25.480   5.685  0.00  0.00    +0.144 C 
ATOM      3  C   UNL     1     -34.074  24.685   4.451  0.00  0.00    +0.174 C 
ATOM      4  C   UNL     1     -35.707  26.228   5.223  0.00  0.00    +0.083 C 
ATOM      5  C   UNL     1     -35.400  26.490   3.757  0.00  0.00    +0.202 C 
ENDROOT
BRANCH   5   8
ATOM      6  O   UNL     1     -35.689  27.907   1.304  0.00  0.00    -0.252 OA
ATOM      7  O   UNL     1     -39.986  26.373   0.730  0.00  0.00    -0.270 OA
ATOM      8  N   UNL     1     -36.575  26.490   2.935  0.00  0.00    -0.219 N 
ATOM      9  N   UNL     1     -37.832  27.136   1.031  0.00  0.00    -0.236 N 
ATOM     10  C   UNL     1     -37.673  25.747   3.348  0.00  0.00    +0.071 C 
ATOM     11  C   UNL     1     -36.624  27.227   1.732  0.00  0.00    +0.315 C 
ATOM     12  C   UNL     1     -38.826  25.662   2.675  0.00  0.00    +0.047 C 
ATOM     13  C   UNL     1     -38.956  26.409   1.396  0.00  0.00    +0.250 C 
ATOM     14  C   UNL     1     -39.996  24.854   3.138  0.00  0.00    +0.037 C 
ATOM     15  H   UNL     1     -37.890  27.640   0.188  0.00  0.00    +0.159 HD
ENDBRANCH   5   8
BRANCH   2  16
ATOM     16  O   UNL     1     -33.450  26.408   6.023  0.00  0.00    -0.382 OA
ATOM     17  H   UNL     1     -32.644  26.193   5.526  0.00  0.00    +0.210 HD
ENDBRANCH   2  16
BRANCH   3  18
ATOM     18  C   UNL     1     -34.745  23.321   4.379  0.00  0.00    +0.187 C 
BRANCH  18  19
ATOM     19  O   UNL     1     -34.973  22.992   3.019  0.00  0.00    -0.261 OA
BRANCH  19  20
ATOM     20  P   UNL     1     -36.060  21.858   2.629  0.00  0.00    +0.531 P 
ATOM     21  O   UNL     1     -37.492  22.310   2.666  0.00  0.00    -0.215 OA
BRANCH  20  22
ATOM     22  O   UNL     1     -35.740  20.645   3.653  0.00  0.00    -0.293 OA
ATOM     23  H   UNL     1     -35.183  19.985   3.209  0.00  0.00    +0.223 HD
ENDBRANCH  20  22
BRANCH  20  24
ATOM     24  O   UNL     1     -35.572  21.263   1.208  0.00  0.00    -0.403 OA
BRANCH  24  25
ATOM     25  C   UNL     1     -34.377  20.629   0.992  0.00  0.00    +0.149 C 
ATOM     26  C   UNL     1     -33.346  21.248   0.270  0.00  0.00    +0.035 C 
ATOM     27  C   UNL     1     -32.130  20.552   0.072  0.00  0.00    +0.003 C 
ATOM     28  C   UNL     1     -34.218  19.346   1.511  0.00  0.00    +0.037 C 
ATOM     29  C   UNL     1     -33.492  22.540  -0.260  0.00  0.00    +0.003 C 
ATOM     30  C   UNL     1     -31.983  19.259   0.603  0.00  0.00    +0.000 C 
ATOM     31  C   UNL     1     -33.023  18.661   1.318  0.00  0.00    +0.003 C 
ATOM     32  C   UNL     1     -31.095  21.168  -0.650  0.00  0.00    +0.000 C 
ATOM     33  C   UNL     1     -32.453  23.138  -0.975  0.00  0.00    +0.000 C 
ATOM     34  C   UNL     1     -31.257  22.453  -1.169  0.00  0.00    +0.000 C 
ENDBRANCH  24  25
ENDBRANCH  20  24
ENDBRANCH  19  20
ENDBRANCH  18  19
ENDBRANCH   3  18
TORSDOF 8
ENDMDL
MODEL 9
REMARK VINA RESULT:      -7.1      1.004      2.051
REMARK  Name = 194098
REMARK  8 active torsions:
REMARK  status: ('A' for Active; 'I' for Inactive)
REMARK    1  A    between atoms: C_2  and  O_16
REMARK    2  A    between atoms: C_3  and  C_18
REMARK    3  A    between atoms: C_5  and  N_8
REMARK    4  A    between atoms: C_18  and  O_19
REMARK    5  A    between atoms: O_19  and  P_20
REMARK    6  A    between atoms: P_20  and  O_22
REMARK    7  A    between atoms: P_20  and  O_24
REMARK    8  A    between atoms: O_24  and  C_25
REMARK                            x       y       z     vdW  Elec       q    Type
REMARK                         _______ _______ _______ _____ _____    ______ ____
ROOT
ATOM      1  O   UNL     1     -34.439  23.971   3.516  0.00  0.00    -0.335 OA
ATOM      2  C   UNL     1     -36.557  23.120   4.152  0.00  0.00    +0.144 C 
ATOM      3  C   UNL     1     -35.389  22.939   3.192  0.00  0.00    +0.174 C 
ATOM      4  C   UNL     1     -36.542  24.604   4.434  0.00  0.00    +0.083 C 
ATOM      5  C   UNL     1     -35.059  24.933   4.380  0.00  0.00    +0.202 C 
ENDROOT
BRANCH   5   8
ATOM      6  O   UNL     1     -32.980  26.654   5.290  0.00  0.00    -0.252 OA
ATOM      7  O   UNL     1     -34.215  29.974   2.357  0.00  0.00    -0.270 OA
ATOM      8  N   UNL     1     -34.800  26.254   3.884  0.00  0.00    -0.219 N 
ATOM      9  N   UNL     1     -33.607  28.302   3.823  0.00  0.00    -0.236 N 
ATOM     10  C   UNL     1     -35.617  26.755   2.879  0.00  0.00    +0.071 C 
ATOM     11  C   UNL     1     -33.743  27.034   4.400  0.00  0.00    +0.315 C 
ATOM     12  C   UNL     1     -35.484  27.968   2.329  0.00  0.00    +0.047 C 
ATOM     13  C   UNL     1     -34.391  28.850   2.819  0.00  0.00    +0.250 C 
ATOM     14  C   UNL     1     -36.375  28.488   1.247  0.00  0.00    +0.037 C 
ATOM     15  H   UNL     1     -32.876  28.864   4.166  0.00  0.00    +0.159 HD
ENDBRANCH   5   8
BRANCH   2  16
ATOM     16  O   UNL     1     -36.310  22.399   5.358  0.00  0.00    -0.382 OA
ATOM     17  H   UNL     1     -35.528  21.835   5.243  0.00  0.00    +0.210 HD
ENDBRANCH   2  16
BRANCH   3  18
ATOM     18  C   UNL     1     -35.790  23.111   1.733  0.00  0.00    +0.187 C 
BRANCH  18  19
ATOM     19  O   UNL     1     -36.623  22.027   1.355  0.00  0.00    -0.261 OA
BRANCH  19  20
ATOM     20  P   UNL     1     -36.004  20.538   1.215  0.00  0.00    +0.531 P 
ATOM     21  O   UNL     1     -36.216  19.885  -0.121  0.00  0.00    -0.215 OA
BRANCH  20  22
ATOM     22  O   UNL     1     -36.672  19.722   2.445  0.00  0.00    -0.293 OA
ATOM     23  H   UNL     1     -36.169  18.907   2.604  0.00  0.00    +0.223 HD
ENDBRANCH  20  22
BRANCH  20  24
ATOM     24  O   UNL     1     -34.460  20.668   1.671  0.00  0.00    -0.403 OA
BRANCH  24  25
ATOM     25  C   UNL     1     -33.421  19.954   1.136  0.00  0.00    +0.149 C 
ATOM     26  C   UNL     1     -32.513  20.547   0.247  0.00  0.00    +0.035 C 
ATOM     27  C   UNL     1     -31.455  19.768  -0.280  0.00  0.00    +0.003 C 
ATOM     28  C   UNL     1     -33.294  18.616   1.503  0.00  0.00    +0.037 C 
ATOM     29  C   UNL     1     -32.628  21.894  -0.134  0.00  0.00    +0.003 C 
ATOM     30  C   UNL     1     -31.339  18.420   0.099  0.00  0.00    +0.000 C 
ATOM     31  C   UNL     1     -32.254  17.849   0.985  0.00  0.00    +0.003 C 
ATOM     32  C   UNL     1     -30.545  20.358  -1.172  0.00  0.00    +0.000 C 
ATOM     33  C   UNL     1     -31.714  22.465  -1.020  0.00  0.00    +0.000 C 
ATOM     34  C   UNL     1     -30.675  21.698  -1.538  0.00  0.00    +0.000 C 
ENDBRANCH  24  25
ENDBRANCH  20  24
ENDBRANCH  19  20
ENDBRANCH  18  19
ENDBRANCH   3  18
TORSDOF 8
ENDMDL
