MODEL 1
REMARK VINA RESULT:      -7.3      0.000      0.000
REMARK  Name = 192543
REMARK  6 active torsions:
REMARK  status: ('A' for Active; 'I' for Inactive)
REMARK    1  A    between atoms: C_6  and  O_22
REMARK    2  A    between atoms: O_22  and  C_24
REMARK    3  A    between atoms: C_24  and  C_25
REMARK    4  A    between atoms: C_25  and  C_26
REMARK    5  A    between atoms: C_26  and  C_27
REMARK    6  A    between atoms: C_27  and  N_29
REMARK                            x       y       z     vdW  Elec       q    Type
REMARK                         _______ _______ _______ _____ _____    ______ ____
ROOT
ATOM      1 CL   UNL     1     -35.433  21.887   6.358  0.00  0.00    -0.047 Cl
ATOM      2  O   UNL     1     -31.472  27.317   6.406  0.00  0.00    -0.269 OA
ATOM      3  N   UNL     1     -32.568  28.300   4.545  0.00  0.00    -0.192 N 
ATOM      4  N   UNL     1     -33.586  26.223   5.043  0.00  0.00    -0.328 NA
ATOM      5  N   UNL     1     -34.552  24.190   5.559  0.00  0.00    -0.332 NA
ATOM      6  C   UNL     1     -32.407  29.550   3.794  0.00  0.00    +0.279 C 
ATOM      7  C   UNL     1     -31.193  30.157   4.413  0.00  0.00    +0.042 C 
ATOM      8  C   UNL     1     -30.747  29.372   5.470  0.00  0.00    +0.055 C 
ATOM      9  C   UNL     1     -31.615  28.195   5.575  0.00  0.00    +0.257 C 
ATOM     10  C   UNL     1     -33.539  27.341   4.273  0.00  0.00    +0.204 C 
ATOM     11  C   UNL     1     -30.531  31.327   4.086  0.00  0.00    +0.001 C 
ATOM     12  C   UNL     1     -29.645  29.706   6.234  0.00  0.00    +0.004 C 
ATOM     13  C   UNL     1     -29.413  31.691   4.843  0.00  0.00    -0.000 C 
ATOM     14  C   UNL     1     -28.974  30.887   5.910  0.00  0.00    +0.000 C 
ATOM     15  C   UNL     1     -34.408  27.582   3.228  0.00  0.00    +0.046 C 
ATOM     16  C   UNL     1     -35.371  26.623   2.965  0.00  0.00    -0.001 C 
ATOM     17  C   UNL     1     -34.514  25.290   4.796  0.00  0.00    +0.123 C 
ATOM     18  C   UNL     1     -35.436  25.462   3.748  0.00  0.00    +0.153 C 
ATOM     19  C   UNL     1     -36.396  24.467   3.513  0.00  0.00    -0.002 C 
ATOM     20  C   UNL     1     -36.428  23.334   4.306  0.00  0.00    +0.042 C 
ATOM     21  C   UNL     1     -35.488  23.245   5.310  0.00  0.00    +0.201 C 
ENDROOT
BRANCH   6  22
ATOM     22  O   UNL     1     -33.537  30.405   3.998  0.00  0.00    -0.428 OA
BRANCH  22  24
ATOM     23  O   UNL     1     -33.246  31.601   2.047  0.00  0.00    -0.250 OA
ATOM     24  C   UNL     1     -33.964  31.088   2.894  0.00  0.00    +0.319 C 
BRANCH  24  25
ATOM     25  C   UNL     1     -35.475  31.140   2.903  0.00  0.00    +0.111 C 
BRANCH  25  26
ATOM     26  C   UNL     1     -36.111  30.411   1.717  0.00  0.00    +0.033 C 
BRANCH  26  27
ATOM     27  C   UNL     1     -36.698  31.347   0.661  0.00  0.00    +0.090 C 
BRANCH  27  29
ATOM     28  O   UNL     1     -39.407  32.096   1.390  0.00  0.00    -0.275 OA
ATOM     29  N   UNL     1     -37.139  32.597   1.215  0.00  0.00    -0.304 N 
ATOM     30  C   UNL     1     -38.464  32.869   1.535  0.00  0.00    +0.223 C 
ATOM     31  C   UNL     1     -38.644  34.243   2.122  0.00  0.00    +0.095 C 
ATOM     32  H   UNL     1     -36.468  33.299   1.376  0.00  0.00    +0.149 HD
ENDBRANCH  27  29
ENDBRANCH  26  27
ENDBRANCH  25  26
ENDBRANCH  24  25
ENDBRANCH  22  24
ENDBRANCH   6  22
TORSDOF 6
ENDMDL
MODEL 2
REMARK VINA RESULT:      -7.0      5.288      9.034
REMARK  Name = 192543
REMARK  6 active torsions:
REMARK  status: ('A' for Active; 'I' for Inactive)
REMARK    1  A    between atoms: C_6  and  O_22
REMARK    2  A    between atoms: O_22  and  C_24
REMARK    3  A    between atoms: C_24  and  C_25
REMARK    4  A    between atoms: C_25  and  C_26
REMARK    5  A    between atoms: C_26  and  C_27
REMARK    6  A    between atoms: C_27  and  N_29
REMARK                            x       y       z     vdW  Elec       q    Type
REMARK                         _______ _______ _______ _____ _____    ______ ____
ROOT
ATOM      1 CL   UNL     1     -44.279  25.207   0.355  0.00  0.00    -0.047 Cl
ATOM      2  O   UNL     1     -38.927  21.142   0.426  0.00  0.00    -0.269 OA
ATOM      3  N   UNL     1     -37.773  22.466   2.022  0.00  0.00    -0.192 N 
ATOM      4  N   UNL     1     -39.873  23.453   1.561  0.00  0.00    -0.328 NA
ATOM      5  N   UNL     1     -41.930  24.387   1.082  0.00  0.00    -0.332 NA
ATOM      6  C   UNL     1     -36.472  22.373   2.693  0.00  0.00    +0.279 C 
ATOM      7  C   UNL     1     -35.843  21.188   2.041  0.00  0.00    +0.042 C 
ATOM      8  C   UNL     1     -36.729  20.607   1.141  0.00  0.00    +0.055 C 
ATOM      9  C   UNL     1     -37.963  21.400   1.124  0.00  0.00    +0.257 C 
ATOM     10  C   UNL     1     -38.700  23.479   2.245  0.00  0.00    +0.204 C 
ATOM     11  C   UNL     1     -34.587  20.642   2.233  0.00  0.00    +0.001 C 
ATOM     12  C   UNL     1     -36.413  19.481   0.404  0.00  0.00    +0.004 C 
ATOM     13  C   UNL     1     -34.240  19.501   1.503  0.00  0.00    -0.000 C 
ATOM     14  C   UNL     1     -35.147  18.925   0.596  0.00  0.00    +0.000 C 
ATOM     15  C   UNL     1     -38.374  24.462   3.159  0.00  0.00    +0.046 C 
ATOM     16  C   UNL     1     -39.303  25.466   3.374  0.00  0.00    -0.001 C 
ATOM     17  C   UNL     1     -40.777  24.420   1.763  0.00  0.00    +0.123 C 
ATOM     18  C   UNL     1     -40.519  25.457   2.677  0.00  0.00    +0.153 C 
ATOM     19  C   UNL     1     -41.485  26.456   2.867  0.00  0.00    -0.002 C 
ATOM     20  C   UNL     1     -42.673  26.414   2.160  0.00  0.00    +0.042 C 
ATOM     21  C   UNL     1     -42.845  25.364   1.285  0.00  0.00    +0.201 C 
ENDROOT
BRANCH   6  22
ATOM     22  O   UNL     1     -36.647  22.124   4.092  0.00  0.00    -0.428 OA
BRANCH  22  24
ATOM     23  O   UNL     1     -35.088  21.648   5.725  0.00  0.00    -0.250 OA
ATOM     24  C   UNL     1     -35.561  22.392   4.877  0.00  0.00    +0.319 C 
BRANCH  24  25
ATOM     25  C   UNL     1     -35.052  23.780   4.555  0.00  0.00    +0.111 C 
BRANCH  25  26
ATOM     26  C   UNL     1     -35.528  24.843   5.548  0.00  0.00    +0.033 C 
BRANCH  26  27
ATOM     27  C   UNL     1     -35.030  26.252   5.228  0.00  0.00    +0.090 C 
BRANCH  27  29
ATOM     28  O   UNL     1     -34.158  26.648   2.487  0.00  0.00    -0.275 OA
ATOM     29  N   UNL     1     -35.766  26.868   4.158  0.00  0.00    -0.304 N 
ATOM     30  C   UNL     1     -35.265  27.015   2.871  0.00  0.00    +0.223 C 
ATOM     31  C   UNL     1     -36.252  27.671   1.941  0.00  0.00    +0.095 C 
ATOM     32  H   UNL     1     -36.671  27.203   4.348  0.00  0.00    +0.149 HD
ENDBRANCH  27  29
ENDBRANCH  26  27
ENDBRANCH  25  26
ENDBRANCH  24  25
ENDBRANCH  22  24
ENDBRANCH   6  22
TORSDOF 6
ENDMDL
MODEL 3
REMARK VINA RESULT:      -6.9      4.930      8.791
REMARK  Name = 192543
REMARK  6 active torsions:
REMARK  status: ('A' for Active; 'I' for Inactive)
REMARK    1  A    between atoms: C_6  and  O_22
REMARK    2  A    between atoms: O_22  and  C_24
REMARK    3  A    between atoms: C_24  and  C_25
REMARK    4  A    between atoms: C_25  and  C_26
REMARK    5  A    between atoms: C_26  and  C_27
REMARK    6  A    between atoms: C_27  and  N_29
REMARK                            x       y       z     vdW  Elec       q    Type
REMARK                         _______ _______ _______ _____ _____    ______ ____
ROOT
ATOM      1 CL   UNL     1     -33.867  17.967  -2.621  0.00  0.00    -0.047 Cl
ATOM      2  O   UNL     1     -38.019  22.801  -0.486  0.00  0.00    -0.269 OA
ATOM      3  N   UNL     1     -37.239  22.671   1.751  0.00  0.00    -0.192 N 
ATOM      4  N   UNL     1     -36.070  21.100   0.424  0.00  0.00    -0.328 NA
ATOM      5  N   UNL     1     -34.952  19.576  -0.904  0.00  0.00    -0.332 NA
ATOM      6  C   UNL     1     -37.559  23.374   2.999  0.00  0.00    +0.279 C 
ATOM      7  C   UNL     1     -38.701  24.250   2.605  0.00  0.00    +0.042 C 
ATOM      8  C   UNL     1     -38.959  24.123   1.245  0.00  0.00    +0.055 C 
ATOM      9  C   UNL     1     -38.033  23.133   0.686  0.00  0.00    +0.257 C 
ATOM     10  C   UNL     1     -36.275  21.675   1.637  0.00  0.00    +0.204 C 
ATOM     11  C   UNL     1     -39.453  25.114   3.380  0.00  0.00    +0.001 C 
ATOM     12  C   UNL     1     -39.957  24.834   0.606  0.00  0.00    +0.004 C 
ATOM     13  C   UNL     1     -40.470  25.847   2.760  0.00  0.00    -0.000 C 
ATOM     14  C   UNL     1     -40.719  25.708   1.383  0.00  0.00    +0.000 C 
ATOM     15  C   UNL     1     -35.571  21.325   2.773  0.00  0.00    +0.046 C 
ATOM     16  C   UNL     1     -34.613  20.334   2.650  0.00  0.00    -0.001 C 
ATOM     17  C   UNL     1     -35.145  20.139   0.296  0.00  0.00    +0.123 C 
ATOM     18  C   UNL     1     -34.388  19.727   1.407  0.00  0.00    +0.153 C 
ATOM     19  C   UNL     1     -33.427  18.719   1.242  0.00  0.00    -0.002 C 
ATOM     20  C   UNL     1     -33.234  18.143  -0.001  0.00  0.00    +0.042 C 
ATOM     21  C   UNL     1     -34.019  18.606  -1.035  0.00  0.00    +0.201 C 
ENDROOT
BRANCH   6  22
ATOM     22  O   UNL     1     -36.451  24.176   3.419  0.00  0.00    -0.428 OA
BRANCH  22  24
ATOM     23  O   UNL     1     -36.219  23.226   5.508  0.00  0.00    -0.250 OA
ATOM     24  C   UNL     1     -36.218  24.198   4.766  0.00  0.00    +0.319 C 
BRANCH  24  25
ATOM     25  C   UNL     1     -35.990  25.628   5.202  0.00  0.00    +0.111 C 
BRANCH  25  26
ATOM     26  C   UNL     1     -34.552  25.901   5.649  0.00  0.00    +0.033 C 
BRANCH  26  27
ATOM     27  C   UNL     1     -33.674  26.513   4.557  0.00  0.00    +0.090 C 
BRANCH  27  29
ATOM     28  O   UNL     1     -31.555  27.284   6.386  0.00  0.00    -0.275 OA
ATOM     29  N   UNL     1     -33.241  27.844   4.879  0.00  0.00    -0.304 N 
ATOM     30  C   UNL     1     -32.212  28.120   5.772  0.00  0.00    +0.223 C 
ATOM     31  C   UNL     1     -31.946  29.596   5.906  0.00  0.00    +0.095 C 
ATOM     32  H   UNL     1     -33.697  28.601   4.446  0.00  0.00    +0.149 HD
ENDBRANCH  27  29
ENDBRANCH  26  27
ENDBRANCH  25  26
ENDBRANCH  24  25
ENDBRANCH  22  24
ENDBRANCH   6  22
TORSDOF 6
ENDMDL
MODEL 4
REMARK VINA RESULT:      -6.9      5.081      8.529
REMARK  Name = 192543
REMARK  6 active torsions:
REMARK  status: ('A' for Active; 'I' for Inactive)
REMARK    1  A    between atoms: C_6  and  O_22
REMARK    2  A    between atoms: O_22  and  C_24
REMARK    3  A    between atoms: C_24  and  C_25
REMARK    4  A    between atoms: C_25  and  C_26
REMARK    5  A    between atoms: C_26  and  C_27
REMARK    6  A    between atoms: C_27  and  N_29
REMARK                            x       y       z     vdW  Elec       q    Type
REMARK                         _______ _______ _______ _____ _____    ______ ____
ROOT
ATOM      1 CL   UNL     1     -33.637  18.123  -2.788  0.00  0.00    -0.047 Cl
ATOM      2  O   UNL     1     -37.805  22.899  -0.555  0.00  0.00    -0.269 OA
ATOM      3  N   UNL     1     -37.128  22.624   1.703  0.00  0.00    -0.192 N 
ATOM      4  N   UNL     1     -35.925  21.112   0.337  0.00  0.00    -0.328 NA
ATOM      5  N   UNL     1     -34.773  19.649  -1.028  0.00  0.00    -0.332 NA
ATOM      6  C   UNL     1     -37.492  23.259   2.975  0.00  0.00    +0.279 C 
ATOM      7  C   UNL     1     -38.601  24.177   2.583  0.00  0.00    +0.042 C 
ATOM      8  C   UNL     1     -38.800  24.134   1.208  0.00  0.00    +0.055 C 
ATOM      9  C   UNL     1     -37.866  23.162   0.633  0.00  0.00    +0.257 C 
ATOM     10  C   UNL     1     -36.175  21.619   1.572  0.00  0.00    +0.204 C 
ATOM     11  C   UNL     1     -39.374  25.008   3.375  0.00  0.00    +0.001 C 
ATOM     12  C   UNL     1     -39.758  24.899   0.570  0.00  0.00    +0.004 C 
ATOM     13  C   UNL     1     -40.350  25.795   2.755  0.00  0.00    -0.000 C 
ATOM     14  C   UNL     1     -40.540  25.741   1.362  0.00  0.00    +0.000 C 
ATOM     15  C   UNL     1     -35.528  21.191   2.715  0.00  0.00    +0.046 C 
ATOM     16  C   UNL     1     -34.581  20.192   2.576  0.00  0.00    -0.001 C 
ATOM     17  C   UNL     1     -35.011  20.144   0.193  0.00  0.00    +0.123 C 
ATOM     18  C   UNL     1     -34.310  19.655   1.310  0.00  0.00    +0.153 C 
ATOM     19  C   UNL     1     -33.359  18.641   1.128  0.00  0.00    -0.002 C 
ATOM     20  C   UNL     1     -33.119  18.134  -0.138  0.00  0.00    +0.042 C 
ATOM     21  C   UNL     1     -33.850  18.671  -1.176  0.00  0.00    +0.201 C 
ENDROOT
BRANCH   6  22
ATOM     22  O   UNL     1     -36.391  24.016   3.489  0.00  0.00    -0.428 OA
BRANCH  22  24
ATOM     23  O   UNL     1     -36.217  22.988   5.547  0.00  0.00    -0.250 OA
ATOM     24  C   UNL     1     -36.245  23.991   4.848  0.00  0.00    +0.319 C 
BRANCH  24  25
ATOM     25  C   UNL     1     -36.157  25.412   5.358  0.00  0.00    +0.111 C 
BRANCH  25  26
ATOM     26  C   UNL     1     -34.731  25.966   5.357  0.00  0.00    +0.033 C 
BRANCH  26  27
ATOM     27  C   UNL     1     -34.398  26.809   4.127  0.00  0.00    +0.090 C 
BRANCH  27  29
ATOM     28  O   UNL     1     -34.811  26.437   1.277  0.00  0.00    -0.275 OA
ATOM     29  N   UNL     1     -35.564  27.153   3.361  0.00  0.00    -0.304 N 
ATOM     30  C   UNL     1     -35.673  26.937   1.993  0.00  0.00    +0.223 C 
ATOM     31  C   UNL     1     -37.009  27.366   1.447  0.00  0.00    +0.095 C 
ATOM     32  H   UNL     1     -36.326  27.563   3.830  0.00  0.00    +0.149 HD
ENDBRANCH  27  29
ENDBRANCH  26  27
ENDBRANCH  25  26
ENDBRANCH  24  25
ENDBRANCH  22  24
ENDBRANCH   6  22
TORSDOF 6
ENDMDL
MODEL 5
REMARK VINA RESULT:      -6.9      8.323     11.664
REMARK  Name = 192543
REMARK  6 active torsions:
REMARK  status: ('A' for Active; 'I' for Inactive)
REMARK    1  A    between atoms: C_6  and  O_22
REMARK    2  A    between atoms: O_22  and  C_24
REMARK    3  A    between atoms: C_24  and  C_25
REMARK    4  A    between atoms: C_25  and  C_26
REMARK    5  A    between atoms: C_26  and  C_27
REMARK    6  A    between atoms: C_27  and  N_29
REMARK                            x       y       z     vdW  Elec       q    Type
REMARK                         _______ _______ _______ _____ _____    ______ ____
ROOT
ATOM      1 CL   UNL     1     -40.168  12.136  -1.119  0.00  0.00    -0.047 Cl
ATOM      2  O   UNL     1     -34.544  15.614   0.086  0.00  0.00    -0.269 OA
ATOM      3  N   UNL     1     -35.601  17.708  -0.274  0.00  0.00    -0.192 N 
ATOM      4  N   UNL     1     -37.182  15.974  -0.574  0.00  0.00    -0.328 NA
ATOM      5  N   UNL     1     -38.696  14.254  -0.860  0.00  0.00    -0.332 NA
ATOM      6  C   UNL     1     -35.162  19.108  -0.227  0.00  0.00    +0.279 C 
ATOM      7  C   UNL     1     -33.696  18.989   0.021  0.00  0.00    +0.042 C 
ATOM      8  C   UNL     1     -33.340  17.655   0.182  0.00  0.00    +0.055 C 
ATOM      9  C   UNL     1     -34.539  16.830   0.009  0.00  0.00    +0.257 C 
ATOM     10  C   UNL     1     -36.900  17.303  -0.562  0.00  0.00    +0.204 C 
ATOM     11  C   UNL     1     -32.738  19.983   0.118  0.00  0.00    +0.001 C 
ATOM     12  C   UNL     1     -32.043  17.255   0.440  0.00  0.00    +0.004 C 
ATOM     13  C   UNL     1     -31.416  19.607   0.379  0.00  0.00    -0.000 C 
ATOM     14  C   UNL     1     -31.072  18.254   0.540  0.00  0.00    +0.000 C 
ATOM     15  C   UNL     1     -37.839  18.282  -0.820  0.00  0.00    +0.046 C 
ATOM     16  C   UNL     1     -39.129  17.869  -1.105  0.00  0.00    -0.001 C 
ATOM     17  C   UNL     1     -38.428  15.566  -0.849  0.00  0.00    +0.123 C 
ATOM     18  C   UNL     1     -39.440  16.503  -1.122  0.00  0.00    +0.153 C 
ATOM     19  C   UNL     1     -40.735  16.045  -1.407  0.00  0.00    -0.002 C 
ATOM     20  C   UNL     1     -41.003  14.687  -1.417  0.00  0.00    +0.042 C 
ATOM     21  C   UNL     1     -39.954  13.839  -1.138  0.00  0.00    +0.201 C 
ENDROOT
BRANCH   6  22
ATOM     22  O   UNL     1     -35.788  19.792   0.863  0.00  0.00    -0.428 OA
BRANCH  22  24
ATOM     23  O   UNL     1     -36.555  21.617  -0.320  0.00  0.00    -0.250 OA
ATOM     24  C   UNL     1     -36.024  21.123   0.665  0.00  0.00    +0.319 C 
BRANCH  24  25
ATOM     25  C   UNL     1     -35.488  21.899   1.847  0.00  0.00    +0.111 C 
BRANCH  25  26
ATOM     26  C   UNL     1     -36.156  23.264   2.026  0.00  0.00    +0.033 C 
BRANCH  26  27
ATOM     27  C   UNL     1     -36.958  23.393   3.321  0.00  0.00    +0.090 C 
BRANCH  27  29
ATOM     28  O   UNL     1     -35.329  24.254   5.565  0.00  0.00    -0.275 OA
ATOM     29  N   UNL     1     -36.430  22.578   4.380  0.00  0.00    -0.304 N 
ATOM     30  C   UNL     1     -35.656  23.079   5.419  0.00  0.00    +0.223 C 
ATOM     31  C   UNL     1     -35.256  22.014   6.405  0.00  0.00    +0.095 C 
ATOM     32  H   UNL     1     -36.628  21.614   4.369  0.00  0.00    +0.149 HD
ENDBRANCH  27  29
ENDBRANCH  26  27
ENDBRANCH  25  26
ENDBRANCH  24  25
ENDBRANCH  22  24
ENDBRANCH   6  22
TORSDOF 6
ENDMDL
MODEL 6
REMARK VINA RESULT:      -6.8      3.431      5.849
REMARK  Name = 192543
REMARK  6 active torsions:
REMARK  status: ('A' for Active; 'I' for Inactive)
REMARK    1  A    between atoms: C_6  and  O_22
REMARK    2  A    between atoms: O_22  and  C_24
REMARK    3  A    between atoms: C_24  and  C_25
REMARK    4  A    between atoms: C_25  and  C_26
REMARK    5  A    between atoms: C_26  and  C_27
REMARK    6  A    between atoms: C_27  and  N_29
REMARK                            x       y       z     vdW  Elec       q    Type
REMARK                         _______ _______ _______ _____ _____    ______ ____
ROOT
ATOM      1 CL   UNL     1     -36.011  21.004   2.766  0.00  0.00    -0.047 Cl
ATOM      2  O   UNL     1     -33.290  26.894   1.015  0.00  0.00    -0.269 OA
ATOM      3  N   UNL     1     -33.119  27.638   3.263  0.00  0.00    -0.192 N 
ATOM      4  N   UNL     1     -34.069  25.471   3.227  0.00  0.00    -0.328 NA
ATOM      5  N   UNL     1     -34.996  23.357   3.150  0.00  0.00    -0.332 NA
ATOM      6  C   UNL     1     -32.619  28.854   3.913  0.00  0.00    +0.279 C 
ATOM      7  C   UNL     1     -32.274  29.732   2.757  0.00  0.00    +0.042 C 
ATOM      8  C   UNL     1     -32.479  29.056   1.560  0.00  0.00    +0.055 C 
ATOM      9  C   UNL     1     -33.005  27.722   1.863  0.00  0.00    +0.257 C 
ATOM     10  C   UNL     1     -33.639  26.542   3.944  0.00  0.00    +0.204 C 
ATOM     11  C   UNL     1     -31.796  31.031   2.752  0.00  0.00    +0.001 C 
ATOM     12  C   UNL     1     -32.225  29.628   0.328  0.00  0.00    +0.004 C 
ATOM     13  C   UNL     1     -31.529  31.634   1.519  0.00  0.00    -0.000 C 
ATOM     14  C   UNL     1     -31.741  30.937   0.316  0.00  0.00    +0.000 C 
ATOM     15  C   UNL     1     -33.688  26.603   5.323  0.00  0.00    +0.046 C 
ATOM     16  C   UNL     1     -34.206  25.507   5.992  0.00  0.00    -0.001 C 
ATOM     17  C   UNL     1     -34.573  24.408   3.866  0.00  0.00    +0.123 C 
ATOM     18  C   UNL     1     -34.656  24.394   5.269  0.00  0.00    +0.153 C 
ATOM     19  C   UNL     1     -35.188  23.266   5.911  0.00  0.00    -0.002 C 
ATOM     20  C   UNL     1     -35.624  22.185   5.164  0.00  0.00    +0.042 C 
ATOM     21  C   UNL     1     -35.506  22.282   3.794  0.00  0.00    +0.201 C 
ENDROOT
BRANCH   6  22
ATOM     22  O   UNL     1     -31.442  28.567   4.675  0.00  0.00    -0.428 OA
BRANCH  22  24
ATOM     23  O   UNL     1     -32.187  29.786   6.486  0.00  0.00    -0.250 OA
ATOM     24  C   UNL     1     -31.285  29.303   5.815  0.00  0.00    +0.319 C 
BRANCH  24  25
ATOM     25  C   UNL     1     -29.808  29.458   6.101  0.00  0.00    +0.111 C 
BRANCH  25  26
ATOM     26  C   UNL     1     -29.106  28.128   6.384  0.00  0.00    +0.033 C 
BRANCH  26  27
ATOM     27  C   UNL     1     -28.058  27.750   5.338  0.00  0.00    +0.090 C 
BRANCH  27  29
ATOM     28  O   UNL     1     -28.438  25.647   3.374  0.00  0.00    -0.275 OA
ATOM     29  N   UNL     1     -28.545  27.889   3.994  0.00  0.00    -0.304 N 
ATOM     30  C   UNL     1     -28.695  26.820   3.119  0.00  0.00    +0.223 C 
ATOM     31  C   UNL     1     -29.247  27.242   1.783  0.00  0.00    +0.095 C 
ATOM     32  H   UNL     1     -28.785  28.789   3.675  0.00  0.00    +0.149 HD
ENDBRANCH  27  29
ENDBRANCH  26  27
ENDBRANCH  25  26
ENDBRANCH  24  25
ENDBRANCH  22  24
ENDBRANCH   6  22
TORSDOF 6
ENDMDL
MODEL 7
REMARK VINA RESULT:      -6.7      5.048      7.810
REMARK  Name = 192543
REMARK  6 active torsions:
REMARK  status: ('A' for Active; 'I' for Inactive)
REMARK    1  A    between atoms: C_6  and  O_22
REMARK    2  A    between atoms: O_22  and  C_24
REMARK    3  A    between atoms: C_24  and  C_25
REMARK    4  A    between atoms: C_25  and  C_26
REMARK    5  A    between atoms: C_26  and  C_27
REMARK    6  A    between atoms: C_27  and  N_29
REMARK                            x       y       z     vdW  Elec       q    Type
REMARK                         _______ _______ _______ _____ _____    ______ ____
ROOT
ATOM      1 CL   UNL     1     -30.358  18.184  -1.978  0.00  0.00    -0.047 Cl
ATOM      2  O   UNL     1     -33.075  24.186  -0.648  0.00  0.00    -0.269 OA
ATOM      3  N   UNL     1     -34.543  23.308   0.998  0.00  0.00    -0.192 N 
ATOM      4  N   UNL     1     -33.232  21.552   0.104  0.00  0.00    -0.328 NA
ATOM      5  N   UNL     1     -31.936  19.866  -0.795  0.00  0.00    -0.332 NA
ATOM      6  C   UNL     1     -35.561  23.881   1.885  0.00  0.00    +0.279 C 
ATOM      7  C   UNL     1     -35.613  25.309   1.454  0.00  0.00    +0.042 C 
ATOM      8  C   UNL     1     -34.660  25.551   0.472  0.00  0.00    +0.055 C 
ATOM      9  C   UNL     1     -33.965  24.294   0.178  0.00  0.00    +0.257 C 
ATOM     10  C   UNL     1     -34.194  21.961   0.971  0.00  0.00    +0.204 C 
ATOM     11  C   UNL     1     -36.427  26.333   1.903  0.00  0.00    +0.001 C 
ATOM     12  C   UNL     1     -34.477  26.796  -0.099  0.00  0.00    +0.004 C 
ATOM     13  C   UNL     1     -36.263  27.605   1.345  0.00  0.00    -0.000 C 
ATOM     14  C   UNL     1     -35.294  27.834   0.351  0.00  0.00    +0.000 C 
ATOM     15  C   UNL     1     -34.850  21.108   1.837  0.00  0.00    +0.046 C 
ATOM     16  C   UNL     1     -34.496  19.770   1.805  0.00  0.00    -0.001 C 
ATOM     17  C   UNL     1     -32.884  20.260   0.065  0.00  0.00    +0.123 C 
ATOM     18  C   UNL     1     -33.506  19.329   0.916  0.00  0.00    +0.153 C 
ATOM     19  C   UNL     1     -33.121  17.982   0.851  0.00  0.00    -0.002 C 
ATOM     20  C   UNL     1     -32.140  17.583  -0.040  0.00  0.00    +0.042 C 
ATOM     21  C   UNL     1     -31.583  18.560  -0.836  0.00  0.00    +0.201 C 
ENDROOT
BRANCH   6  22
ATOM     22  O   UNL     1     -35.139  23.799   3.250  0.00  0.00    -0.428 OA
BRANCH  22  24
ATOM     23  O   UNL     1     -37.262  23.226   3.948  0.00  0.00    -0.250 OA
ATOM     24  C   UNL     1     -36.143  23.666   4.169  0.00  0.00    +0.319 C 
BRANCH  24  25
ATOM     25  C   UNL     1     -35.658  24.185   5.504  0.00  0.00    +0.111 C 
BRANCH  25  26
ATOM     26  C   UNL     1     -35.540  25.710   5.552  0.00  0.00    +0.033 C 
BRANCH  26  27
ATOM     27  C   UNL     1     -34.122  26.210   5.823  0.00  0.00    +0.090 C 
BRANCH  27  29
ATOM     28  O   UNL     1     -32.646  25.877   3.344  0.00  0.00    -0.275 OA
ATOM     29  N   UNL     1     -33.714  27.237   4.905  0.00  0.00    -0.304 N 
ATOM     30  C   UNL     1     -33.007  26.984   3.736  0.00  0.00    +0.223 C 
ATOM     31  C   UNL     1     -32.731  28.235   2.947  0.00  0.00    +0.095 C 
ATOM     32  H   UNL     1     -33.948  28.170   5.115  0.00  0.00    +0.149 HD
ENDBRANCH  27  29
ENDBRANCH  26  27
ENDBRANCH  25  26
ENDBRANCH  24  25
ENDBRANCH  22  24
ENDBRANCH   6  22
TORSDOF 6
ENDMDL
MODEL 8
REMARK VINA RESULT:      -6.5      2.435      3.018
REMARK  Name = 192543
REMARK  6 active torsions:
REMARK  status: ('A' for Active; 'I' for Inactive)
REMARK    1  A    between atoms: C_6  and  O_22
REMARK    2  A    between atoms: O_22  and  C_24
REMARK    3  A    between atoms: C_24  and  C_25
REMARK    4  A    between atoms: C_25  and  C_26
REMARK    5  A    between atoms: C_26  and  C_27
REMARK    6  A    between atoms: C_27  and  N_29
REMARK                            x       y       z     vdW  Elec       q    Type
REMARK                         _______ _______ _______ _____ _____    ______ ____
ROOT
ATOM      1 CL   UNL     1     -35.563  21.734   6.590  0.00  0.00    -0.047 Cl
ATOM      2  O   UNL     1     -32.599  27.743   6.061  0.00  0.00    -0.269 OA
ATOM      3  N   UNL     1     -32.760  27.765   3.694  0.00  0.00    -0.192 N 
ATOM      4  N   UNL     1     -33.704  25.760   4.522  0.00  0.00    -0.328 NA
ATOM      5  N   UNL     1     -34.615  23.814   5.368  0.00  0.00    -0.332 NA
ATOM      6  C   UNL     1     -32.372  28.711   2.641  0.00  0.00    +0.279 C 
ATOM      7  C   UNL     1     -31.657  29.779   3.399  0.00  0.00    +0.042 C 
ATOM      8  C   UNL     1     -31.701  29.514   4.763  0.00  0.00    +0.055 C 
ATOM      9  C   UNL     1     -32.406  28.245   4.968  0.00  0.00    +0.257 C 
ATOM     10  C   UNL     1     -33.395  26.549   3.461  0.00  0.00    +0.204 C 
ATOM     11  C   UNL     1     -31.026  30.917   2.930  0.00  0.00    +0.001 C 
ATOM     12  C   UNL     1     -31.129  30.349   5.704  0.00  0.00    +0.004 C 
ATOM     13  C   UNL     1     -30.439  31.782   3.860  0.00  0.00    -0.000 C 
ATOM     14  C   UNL     1     -30.492  31.500   5.236  0.00  0.00    +0.000 C 
ATOM     15  C   UNL     1     -33.680  26.211   2.152  0.00  0.00    +0.046 C 
ATOM     16  C   UNL     1     -34.313  25.000   1.930  0.00  0.00    -0.001 C 
ATOM     17  C   UNL     1     -34.316  24.587   4.316  0.00  0.00    +0.123 C 
ATOM     18  C   UNL     1     -34.639  24.171   3.012  0.00  0.00    +0.153 C 
ATOM     19  C   UNL     1     -35.280  22.937   2.828  0.00  0.00    -0.002 C 
ATOM     20  C   UNL     1     -35.585  22.145   3.921  0.00  0.00    +0.042 C 
ATOM     21  C   UNL     1     -35.233  22.628   5.163  0.00  0.00    +0.201 C 
ENDROOT
BRANCH   6  22
ATOM     22  O   UNL     1     -33.533  29.257   2.007  0.00  0.00    -0.428 OA
BRANCH  22  24
ATOM     23  O   UNL     1     -32.529  29.089  -0.063  0.00  0.00    -0.250 OA
ATOM     24  C   UNL     1     -33.517  29.247   0.640  0.00  0.00    +0.319 C 
BRANCH  24  25
ATOM     25  C   UNL     1     -34.918  29.500   0.130  0.00  0.00    +0.111 C 
BRANCH  25  26
ATOM     26  C   UNL     1     -35.995  29.290   1.196  0.00  0.00    +0.033 C 
BRANCH  26  27
ATOM     27  C   UNL     1     -36.857  28.049   0.965  0.00  0.00    +0.090 C 
BRANCH  27  29
ATOM     28  O   UNL     1     -38.611  25.767   1.343  0.00  0.00    -0.275 OA
ATOM     29  N   UNL     1     -37.018  27.260   2.155  0.00  0.00    -0.304 N 
ATOM     30  C   UNL     1     -37.886  26.179   2.245  0.00  0.00    +0.223 C 
ATOM     31  C   UNL     1     -37.840  25.513   3.595  0.00  0.00    +0.095 C 
ATOM     32  H   UNL     1     -36.485  27.496   2.948  0.00  0.00    +0.149 HD
ENDBRANCH  27  29
ENDBRANCH  26  27
ENDBRANCH  25  26
ENDBRANCH  24  25
ENDBRANCH  22  24
ENDBRANCH   6  22
TORSDOF 6
ENDMDL
MODEL 9
REMARK VINA RESULT:      -6.5      6.254      9.916
REMARK  Name = 192543
REMARK  6 active torsions:
REMARK  status: ('A' for Active; 'I' for Inactive)
REMARK    1  A    between atoms: C_6  and  O_22
REMARK    2  A    between atoms: O_22  and  C_24
REMARK    3  A    between atoms: C_24  and  C_25
REMARK    4  A    between atoms: C_25  and  C_26
REMARK    5  A    between atoms: C_26  and  C_27
REMARK    6  A    between atoms: C_27  and  N_29
REMARK                            x       y       z     vdW  Elec       q    Type
REMARK                         _______ _______ _______ _____ _____    ______ ____
ROOT
ATOM      1 CL   UNL     1     -43.787  24.410  -1.097  0.00  0.00    -0.047 Cl
ATOM      2  O   UNL     1     -38.581  25.570   2.991  0.00  0.00    -0.269 OA
ATOM      3  N   UNL     1     -37.718  23.374   2.737  0.00  0.00    -0.192 N 
ATOM      4  N   UNL     1     -39.687  23.593   1.444  0.00  0.00    -0.328 NA
ATOM      5  N   UNL     1     -41.614  23.846   0.197  0.00  0.00    -0.332 NA
ATOM      6  C   UNL     1     -36.550  22.656   3.262  0.00  0.00    +0.279 C 
ATOM      7  C   UNL     1     -35.951  23.642   4.209  0.00  0.00    +0.042 C 
ATOM      8  C   UNL     1     -36.658  24.838   4.171  0.00  0.00    +0.055 C 
ATOM      9  C   UNL     1     -37.776  24.689   3.234  0.00  0.00    +0.257 C 
ATOM     10  C   UNL     1     -38.648  22.824   1.861  0.00  0.00    +0.204 C 
ATOM     11  C   UNL     1     -34.851  23.508   5.036  0.00  0.00    +0.001 C 
ATOM     12  C   UNL     1     -36.311  25.934   4.939  0.00  0.00    +0.004 C 
ATOM     13  C   UNL     1     -34.476  24.601   5.824  0.00  0.00    -0.000 C 
ATOM     14  C   UNL     1     -35.200  25.805   5.774  0.00  0.00    +0.000 C 
ATOM     15  C   UNL     1     -38.460  21.517   1.458  0.00  0.00    +0.046 C 
ATOM     16  C   UNL     1     -39.389  20.978   0.585  0.00  0.00    -0.001 C 
ATOM     17  C   UNL     1     -40.592  23.080   0.601  0.00  0.00    +0.123 C 
ATOM     18  C   UNL     1     -40.469  21.756   0.145  0.00  0.00    +0.153 C 
ATOM     19  C   UNL     1     -41.433  21.246  -0.738  0.00  0.00    -0.002 C 
ATOM     20  C   UNL     1     -42.486  22.044  -1.150  0.00  0.00    +0.042 C 
ATOM     21  C   UNL     1     -42.529  23.329  -0.655  0.00  0.00    +0.201 C 
ENDROOT
BRANCH   6  22
ATOM     22  O   UNL     1     -35.625  22.368   2.209  0.00  0.00    -0.428 OA
BRANCH  22  24
ATOM     23  O   UNL     1     -35.374  20.214   2.995  0.00  0.00    -0.250 OA
ATOM     24  C   UNL     1     -35.196  21.072   2.142  0.00  0.00    +0.319 C 
BRANCH  24  25
ATOM     25  C   UNL     1     -34.431  20.874   0.853  0.00  0.00    +0.111 C 
BRANCH  25  26
ATOM     26  C   UNL     1     -33.374  19.771   0.942  0.00  0.00    +0.033 C 
BRANCH  26  27
ATOM     27  C   UNL     1     -33.766  18.482   0.222  0.00  0.00    +0.090 C 
BRANCH  27  29
ATOM     28  O   UNL     1     -35.831  18.277  -1.809  0.00  0.00    -0.275 OA
ATOM     29  N   UNL     1     -35.148  18.140   0.414  0.00  0.00    -0.304 N 
ATOM     30  C   UNL     1     -36.070  18.066  -0.623  0.00  0.00    +0.223 C 
ATOM     31  C   UNL     1     -37.441  17.664  -0.147  0.00  0.00    +0.095 C 
ATOM     32  H   UNL     1     -35.459  17.949   1.328  0.00  0.00    +0.149 HD
ENDBRANCH  27  29
ENDBRANCH  26  27
ENDBRANCH  25  26
ENDBRANCH  24  25
ENDBRANCH  22  24
ENDBRANCH   6  22
TORSDOF 6
ENDMDL
