MODEL 1
REMARK VINA RESULT:      -5.8      0.000      0.000
REMARK  Name = 5312153
REMARK  14 active torsions:
REMARK  status: ('A' for Active; 'I' for Inactive)
REMARK    1  A    between atoms: C_2  and  C_9
REMARK    2  A    between atoms: C_3  and  C_22
REMARK    3  A    between atoms: C_4  and  O_7
REMARK    4  A    between atoms: C_10  and  C_11
REMARK    5  A    between atoms: C_11  and  O_12
REMARK    6  A    between atoms: C_11  and  C_14
REMARK    7  A    between atoms: C_14  and  O_15
REMARK    8  A    between atoms: O_15  and  C_16
REMARK    9  A    between atoms: C_22  and  C_23
REMARK   10  A    between atoms: C_24  and  C_25
REMARK   11  A    between atoms: C_25  and  C_26
REMARK   12  A    between atoms: C_26  and  C_27
REMARK   13  A    between atoms: C_27  and  C_30
REMARK   14  A    between atoms: N_29  and  S_32
REMARK                            x       y       z     vdW  Elec       q    Type
REMARK                         _______ _______ _______ _____ _____    ______ ____
ROOT
ATOM      1  O   UNL     1     -33.685  26.733   5.616  0.00  0.00    -0.296 OA
ATOM      2  C   UNL     1     -35.579  24.593   3.535  0.00  0.00    +0.056 C 
ATOM      3  C   UNL     1     -34.173  24.950   4.042  0.00  0.00    +0.068 C 
ATOM      4  C   UNL     1     -36.454  24.672   4.793  0.00  0.00    +0.122 C 
ATOM      5  C   UNL     1     -35.946  25.905   5.536  0.00  0.00    +0.094 C 
ATOM      6  C   UNL     1     -34.499  25.962   5.122  0.00  0.00    +0.153 C 
ENDROOT
BRANCH   4   7
ATOM      7  O   UNL     1     -37.816  24.835   4.431  0.00  0.00    -0.384 OA
ATOM      8  H   UNL     1     -38.342  24.122   4.825  0.00  0.00    +0.210 HD
ENDBRANCH   4   7
BRANCH   2   9
ATOM      9  C   UNL     1     -35.629  23.254   2.873  0.00  0.00    -0.026 C 
ATOM     10  C   UNL     1     -35.734  22.095   3.539  0.00  0.00    +0.002 C 
BRANCH  10  11
ATOM     11  C   UNL     1     -35.782  20.749   2.871  0.00  0.00    +0.176 C 
BRANCH  11  12
ATOM     12  O   UNL     1     -37.103  20.567   2.366  0.00  0.00    -0.376 OA
ATOM     13  H   UNL     1     -37.066  20.436   1.405  0.00  0.00    +0.211 HD
ENDBRANCH  11  12
BRANCH  11  14
ATOM     14  C   UNL     1     -34.789  20.660   1.716  0.00  0.00    +0.239 C 
BRANCH  14  15
ATOM     15  O   UNL     1     -34.242  19.350   1.648  0.00  0.00    -0.472 OA
BRANCH  15  16
ATOM     16  C   UNL     1     -32.989  19.231   1.105  0.00  0.00    +0.139 C 
ATOM     17  C   UNL     1     -32.463  20.264   0.329  0.00  0.00    +0.037 C 
ATOM     18  C   UNL     1     -32.240  18.074   1.329  0.00  0.00    +0.037 C 
ATOM     19  C   UNL     1     -31.188  20.140  -0.225  0.00  0.00    +0.003 C 
ATOM     20  C   UNL     1     -30.966  17.952   0.775  0.00  0.00    +0.003 C 
ATOM     21  C   UNL     1     -30.440  18.985  -0.002  0.00  0.00    +0.000 C 
ENDBRANCH  15  16
ENDBRANCH  14  15
ENDBRANCH  11  14
ENDBRANCH  10  11
ENDBRANCH   2   9
BRANCH   3  22
ATOM     22  C   UNL     1     -33.270  25.522   2.963  0.00  0.00    +0.033 C 
BRANCH  22  23
ATOM     23  C   UNL     1     -34.020  26.468   2.075  0.00  0.00    -0.030 C 
ATOM     24  C   UNL     1     -34.164  26.297   0.753  0.00  0.00    -0.031 C 
BRANCH  24  25
ATOM     25  C   UNL     1     -33.590  25.135  -0.004  0.00  0.00    +0.026 C 
BRANCH  25  26
ATOM     26  C   UNL     1     -34.575  23.970  -0.156  0.00  0.00    +0.014 C 
BRANCH  26  27
ATOM     27  C   UNL     1     -35.927  24.347  -0.762  0.00  0.00    +0.087 C 
BRANCH  27  30
ATOM     28  O   UNL     1     -37.078  22.290  -0.303  0.00  0.00    -0.274 OA
ATOM     29  N   UNL     1     -38.042  24.269   0.512  0.00  0.00    -0.189 N 
ATOM     30  C   UNL     1     -37.050  23.511  -0.189  0.00  0.00    +0.241 C 
ATOM     31  H   UNL     1     -37.915  25.243   0.562  0.00  0.00    +0.176 HD
BRANCH  29  32
ATOM     32  S   UNL     1     -39.428  23.617   1.267  0.00  0.00    +0.058 S 
ATOM     33  O   UNL     1     -40.273  23.020   0.251  0.00  0.00    -0.154 OA
ATOM     34  O   UNL     1     -39.047  22.873   2.451  0.00  0.00    -0.154 OA
ATOM     35  C   UNL     1     -40.212  25.121   1.795  0.00  0.00    +0.200 C 
ENDBRANCH  29  32
ENDBRANCH  27  30
ENDBRANCH  26  27
ENDBRANCH  25  26
ENDBRANCH  24  25
ENDBRANCH  22  23
ENDBRANCH   3  22
TORSDOF 14
ENDMDL
MODEL 2
REMARK VINA RESULT:      -5.8      4.040      6.370
REMARK  Name = 5312153
REMARK  14 active torsions:
REMARK  status: ('A' for Active; 'I' for Inactive)
REMARK    1  A    between atoms: C_2  and  C_9
REMARK    2  A    between atoms: C_3  and  C_22
REMARK    3  A    between atoms: C_4  and  O_7
REMARK    4  A    between atoms: C_10  and  C_11
REMARK    5  A    between atoms: C_11  and  O_12
REMARK    6  A    between atoms: C_11  and  C_14
REMARK    7  A    between atoms: C_14  and  O_15
REMARK    8  A    between atoms: O_15  and  C_16
REMARK    9  A    between atoms: C_22  and  C_23
REMARK   10  A    between atoms: C_24  and  C_25
REMARK   11  A    between atoms: C_25  and  C_26
REMARK   12  A    between atoms: C_26  and  C_27
REMARK   13  A    between atoms: C_27  and  C_30
REMARK   14  A    between atoms: N_29  and  S_32
REMARK                            x       y       z     vdW  Elec       q    Type
REMARK                         _______ _______ _______ _____ _____    ______ ____
ROOT
ATOM      1  O   UNL     1     -33.763  26.743   5.959  0.00  0.00    -0.296 OA
ATOM      2  C   UNL     1     -35.366  24.654   3.600  0.00  0.00    +0.056 C 
ATOM      3  C   UNL     1     -34.021  25.077   4.212  0.00  0.00    +0.068 C 
ATOM      4  C   UNL     1     -36.303  24.548   4.810  0.00  0.00    +0.122 C 
ATOM      5  C   UNL     1     -35.939  25.746   5.684  0.00  0.00    +0.094 C 
ATOM      6  C   UNL     1     -34.484  25.957   5.356  0.00  0.00    +0.153 C 
ENDROOT
BRANCH   4   7
ATOM      7  O   UNL     1     -37.655  24.632   4.390  0.00  0.00    -0.384 OA
ATOM      8  H   UNL     1     -37.693  24.637   3.421  0.00  0.00    +0.210 HD
ENDBRANCH   4   7
BRANCH   2   9
ATOM      9  C   UNL     1     -35.270  23.381   2.823  0.00  0.00    -0.026 C 
ATOM     10  C   UNL     1     -35.610  22.180   3.313  0.00  0.00    +0.002 C 
BRANCH  10  11
ATOM     11  C   UNL     1     -35.510  20.900   2.529  0.00  0.00    +0.176 C 
BRANCH  11  12
ATOM     12  O   UNL     1     -36.597  20.067   2.926  0.00  0.00    -0.376 OA
ATOM     13  H   UNL     1     -36.277  19.162   3.065  0.00  0.00    +0.211 HD
ENDBRANCH  11  12
BRANCH  11  14
ATOM     14  C   UNL     1     -35.598  21.153   1.027  0.00  0.00    +0.239 C 
BRANCH  14  15
ATOM     15  O   UNL     1     -35.202  19.989   0.316  0.00  0.00    -0.472 OA
BRANCH  15  16
ATOM     16  C   UNL     1     -33.887  19.615   0.426  0.00  0.00    +0.139 C 
ATOM     17  C   UNL     1     -33.553  18.410   1.044  0.00  0.00    +0.037 C 
ATOM     18  C   UNL     1     -32.883  20.443  -0.079  0.00  0.00    +0.037 C 
ATOM     19  C   UNL     1     -32.214  18.031   1.157  0.00  0.00    +0.003 C 
ATOM     20  C   UNL     1     -31.545  20.063   0.034  0.00  0.00    +0.003 C 
ATOM     21  C   UNL     1     -31.211  18.858   0.652  0.00  0.00    +0.000 C 
ENDBRANCH  15  16
ENDBRANCH  14  15
ENDBRANCH  11  14
ENDBRANCH  10  11
ENDBRANCH   2   9
BRANCH   3  22
ATOM     22  C   UNL     1     -33.120  25.815   3.238  0.00  0.00    +0.033 C 
BRANCH  22  23
ATOM     23  C   UNL     1     -33.882  26.864   2.486  0.00  0.00    -0.030 C 
ATOM     24  C   UNL     1     -33.591  28.173   2.526  0.00  0.00    -0.031 C 
BRANCH  24  25
ATOM     25  C   UNL     1     -32.463  28.750   3.331  0.00  0.00    +0.026 C 
BRANCH  25  26
ATOM     26  C   UNL     1     -32.853  30.031   4.079  0.00  0.00    +0.014 C 
BRANCH  26  27
ATOM     27  C   UNL     1     -31.704  30.718   4.819  0.00  0.00    +0.087 C 
BRANCH  27  30
ATOM     28  O   UNL     1     -31.577  29.241   6.708  0.00  0.00    -0.274 OA
ATOM     29  N   UNL     1     -29.627  29.533   5.435  0.00  0.00    -0.189 N 
ATOM     30  C   UNL     1     -31.000  29.770   5.764  0.00  0.00    +0.241 C 
ATOM     31  H   UNL     1     -29.265  29.992   4.644  0.00  0.00    +0.176 HD
BRANCH  29  32
ATOM     32  S   UNL     1     -28.567  28.516   6.307  0.00  0.00    +0.058 S 
ATOM     33  O   UNL     1     -29.259  27.279   6.615  0.00  0.00    -0.154 OA
ATOM     34  O   UNL     1     -27.261  28.503   5.680  0.00  0.00    -0.154 OA
ATOM     35  C   UNL     1     -28.440  29.445   7.816  0.00  0.00    +0.200 C 
ENDBRANCH  29  32
ENDBRANCH  27  30
ENDBRANCH  26  27
ENDBRANCH  25  26
ENDBRANCH  24  25
ENDBRANCH  22  23
ENDBRANCH   3  22
TORSDOF 14
ENDMDL
MODEL 3
REMARK VINA RESULT:      -5.8      3.303      8.504
REMARK  Name = 5312153
REMARK  14 active torsions:
REMARK  status: ('A' for Active; 'I' for Inactive)
REMARK    1  A    between atoms: C_2  and  C_9
REMARK    2  A    between atoms: C_3  and  C_22
REMARK    3  A    between atoms: C_4  and  O_7
REMARK    4  A    between atoms: C_10  and  C_11
REMARK    5  A    between atoms: C_11  and  O_12
REMARK    6  A    between atoms: C_11  and  C_14
REMARK    7  A    between atoms: C_14  and  O_15
REMARK    8  A    between atoms: O_15  and  C_16
REMARK    9  A    between atoms: C_22  and  C_23
REMARK   10  A    between atoms: C_24  and  C_25
REMARK   11  A    between atoms: C_25  and  C_26
REMARK   12  A    between atoms: C_26  and  C_27
REMARK   13  A    between atoms: C_27  and  C_30
REMARK   14  A    between atoms: N_29  and  S_32
REMARK                            x       y       z     vdW  Elec       q    Type
REMARK                         _______ _______ _______ _____ _____    ______ ____
ROOT
ATOM      1  O   UNL     1     -35.657  20.497   0.323  0.00  0.00    -0.296 OA
ATOM      2  C   UNL     1     -37.867  22.308   2.404  0.00  0.00    +0.056 C 
ATOM      3  C   UNL     1     -36.517  22.324   1.670  0.00  0.00    +0.068 C 
ATOM      4  C   UNL     1     -38.829  21.676   1.390  0.00  0.00    +0.122 C 
ATOM      5  C   UNL     1     -38.026  20.542   0.755  0.00  0.00    +0.094 C 
ATOM      6  C   UNL     1     -36.612  21.050   0.854  0.00  0.00    +0.153 C 
ENDROOT
BRANCH   4   7
ATOM      7  O   UNL     1     -39.972  21.163   2.055  0.00  0.00    -0.384 OA
ATOM      8  H   UNL     1     -40.749  21.692   1.815  0.00  0.00    +0.210 HD
ENDBRANCH   4   7
BRANCH   2   9
ATOM      9  C   UNL     1     -38.298  23.669   2.846  0.00  0.00    -0.026 C 
ATOM     10  C   UNL     1     -39.480  24.218   2.531  0.00  0.00    +0.002 C 
BRANCH  10  11
ATOM     11  C   UNL     1     -39.910  25.588   2.975  0.00  0.00    +0.176 C 
BRANCH  11  12
ATOM     12  O   UNL     1     -38.731  26.356   3.203  0.00  0.00    -0.376 OA
ATOM     13  H   UNL     1     -38.977  27.267   3.427  0.00  0.00    +0.211 HD
ENDBRANCH  11  12
BRANCH  11  14
ATOM     14  C   UNL     1     -40.760  26.281   1.915  0.00  0.00    +0.239 C 
BRANCH  14  15
ATOM     15  O   UNL     1     -41.660  27.190   2.534  0.00  0.00    -0.472 OA
BRANCH  15  16
ATOM     16  C   UNL     1     -42.918  26.723   2.811  0.00  0.00    +0.139 C 
ATOM     17  C   UNL     1     -43.566  25.881   1.906  0.00  0.00    +0.037 C 
ATOM     18  C   UNL     1     -43.552  27.091   3.999  0.00  0.00    +0.037 C 
ATOM     19  C   UNL     1     -44.848  25.407   2.188  0.00  0.00    +0.003 C 
ATOM     20  C   UNL     1     -44.834  26.616   4.280  0.00  0.00    +0.003 C 
ATOM     21  C   UNL     1     -45.481  25.775   3.375  0.00  0.00    +0.000 C 
ENDBRANCH  15  16
ENDBRANCH  14  15
ENDBRANCH  11  14
ENDBRANCH  10  11
ENDBRANCH   2   9
BRANCH   3  22
ATOM     22  C   UNL     1     -35.321  22.328   2.606  0.00  0.00    +0.033 C 
BRANCH  22  23
ATOM     23  C   UNL     1     -35.620  21.574   3.867  0.00  0.00    -0.030 C 
ATOM     24  C   UNL     1     -35.389  22.056   5.097  0.00  0.00    -0.031 C 
BRANCH  24  25
ATOM     25  C   UNL     1     -34.802  23.411   5.365  0.00  0.00    +0.026 C 
BRANCH  25  26
ATOM     26  C   UNL     1     -35.862  24.512   5.491  0.00  0.00    +0.014 C 
BRANCH  26  27
ATOM     27  C   UNL     1     -35.303  25.926   5.653  0.00  0.00    +0.087 C 
BRANCH  27  30
ATOM     28  O   UNL     1     -33.673  26.431   3.964  0.00  0.00    -0.274 OA
ATOM     29  N   UNL     1     -35.887  27.094   3.556  0.00  0.00    -0.189 N 
ATOM     30  C   UNL     1     -34.841  26.500   4.332  0.00  0.00    +0.241 C 
ATOM     31  H   UNL     1     -36.795  27.080   3.935  0.00  0.00    +0.176 HD
BRANCH  29  32
ATOM     32  S   UNL     1     -35.685  27.825   2.026  0.00  0.00    +0.058 S 
ATOM     33  O   UNL     1     -34.762  27.022   1.246  0.00  0.00    -0.154 OA
ATOM     34  O   UNL     1     -36.971  28.217   1.487  0.00  0.00    -0.154 OA
ATOM     35  C   UNL     1     -34.825  29.300   2.515  0.00  0.00    +0.200 C 
ENDBRANCH  29  32
ENDBRANCH  27  30
ENDBRANCH  26  27
ENDBRANCH  25  26
ENDBRANCH  24  25
ENDBRANCH  22  23
ENDBRANCH   3  22
TORSDOF 14
ENDMDL
MODEL 4
REMARK VINA RESULT:      -5.7      3.476      7.410
REMARK  Name = 5312153
REMARK  14 active torsions:
REMARK  status: ('A' for Active; 'I' for Inactive)
REMARK    1  A    between atoms: C_2  and  C_9
REMARK    2  A    between atoms: C_3  and  C_22
REMARK    3  A    between atoms: C_4  and  O_7
REMARK    4  A    between atoms: C_10  and  C_11
REMARK    5  A    between atoms: C_11  and  O_12
REMARK    6  A    between atoms: C_11  and  C_14
REMARK    7  A    between atoms: C_14  and  O_15
REMARK    8  A    between atoms: O_15  and  C_16
REMARK    9  A    between atoms: C_22  and  C_23
REMARK   10  A    between atoms: C_24  and  C_25
REMARK   11  A    between atoms: C_25  and  C_26
REMARK   12  A    between atoms: C_26  and  C_27
REMARK   13  A    between atoms: C_27  and  C_30
REMARK   14  A    between atoms: N_29  and  S_32
REMARK                            x       y       z     vdW  Elec       q    Type
REMARK                         _______ _______ _______ _____ _____    ______ ____
ROOT
ATOM      1  O   UNL     1     -34.569  20.435   1.936  0.00  0.00    -0.296 OA
ATOM      2  C   UNL     1     -37.444  22.450   2.350  0.00  0.00    +0.056 C 
ATOM      3  C   UNL     1     -35.951  22.430   1.985  0.00  0.00    +0.068 C 
ATOM      4  C   UNL     1     -38.015  21.224   1.627  0.00  0.00    +0.122 C 
ATOM      5  C   UNL     1     -36.957  20.139   1.817  0.00  0.00    +0.094 C 
ATOM      6  C   UNL     1     -35.685  20.940   1.920  0.00  0.00    +0.153 C 
ENDROOT
BRANCH   4   7
ATOM      7  O   UNL     1     -39.241  20.832   2.222  0.00  0.00    -0.384 OA
ATOM      8  H   UNL     1     -39.955  21.402   1.896  0.00  0.00    +0.210 HD
ENDBRANCH   4   7
BRANCH   2   9
ATOM      9  C   UNL     1     -38.116  23.725   1.954  0.00  0.00    -0.026 C 
ATOM     10  C   UNL     1     -38.784  24.514   2.808  0.00  0.00    +0.002 C 
BRANCH  10  11
ATOM     11  C   UNL     1     -39.460  25.796   2.407  0.00  0.00    +0.176 C 
BRANCH  11  12
ATOM     12  O   UNL     1     -39.414  26.676   3.528  0.00  0.00    -0.376 OA
ATOM     13  H   UNL     1     -38.809  27.410   3.338  0.00  0.00    +0.211 HD
ENDBRANCH  11  12
BRANCH  11  14
ATOM     14  C   UNL     1     -38.756  26.456   1.225  0.00  0.00    +0.239 C 
BRANCH  14  15
ATOM     15  O   UNL     1     -37.790  27.386   1.695  0.00  0.00    -0.472 OA
BRANCH  15  16
ATOM     16  C   UNL     1     -36.473  27.059   1.505  0.00  0.00    +0.139 C 
ATOM     17  C   UNL     1     -35.483  27.675   2.271  0.00  0.00    +0.037 C 
ATOM     18  C   UNL     1     -36.122  26.111   0.542  0.00  0.00    +0.037 C 
ATOM     19  C   UNL     1     -34.142  27.342   2.075  0.00  0.00    +0.003 C 
ATOM     20  C   UNL     1     -34.781  25.779   0.348  0.00  0.00    +0.003 C 
ATOM     21  C   UNL     1     -33.791  26.395   1.114  0.00  0.00    +0.000 C 
ENDBRANCH  15  16
ENDBRANCH  14  15
ENDBRANCH  11  14
ENDBRANCH  10  11
ENDBRANCH   2   9
BRANCH   3  22
ATOM     22  C   UNL     1     -35.071  23.134   3.004  0.00  0.00    +0.033 C 
BRANCH  22  23
ATOM     23  C   UNL     1     -35.502  22.812   4.403  0.00  0.00    -0.030 C 
ATOM     24  C   UNL     1     -35.665  23.731   5.366  0.00  0.00    -0.031 C 
BRANCH  24  25
ATOM     25  C   UNL     1     -35.436  25.201   5.161  0.00  0.00    +0.026 C 
BRANCH  25  26
ATOM     26  C   UNL     1     -33.956  25.594   5.229  0.00  0.00    +0.014 C 
BRANCH  26  27
ATOM     27  C   UNL     1     -33.596  26.545   6.371  0.00  0.00    +0.087 C 
BRANCH  27  30
ATOM     28  O   UNL     1     -31.352  27.401   6.390  0.00  0.00    -0.274 OA
ATOM     29  N   UNL     1     -32.922  28.523   5.054  0.00  0.00    -0.189 N 
ATOM     30  C   UNL     1     -32.500  27.509   5.973  0.00  0.00    +0.241 C 
ATOM     31  H   UNL     1     -33.863  28.509   4.765  0.00  0.00    +0.176 HD
BRANCH  29  32
ATOM     32  S   UNL     1     -31.924  29.754   4.419  0.00  0.00    +0.058 S 
ATOM     33  O   UNL     1     -31.308  30.467   5.522  0.00  0.00    -0.154 OA
ATOM     34  O   UNL     1     -31.124  29.235   3.328  0.00  0.00    -0.154 OA
ATOM     35  C   UNL     1     -33.168  30.816   3.727  0.00  0.00    +0.200 C 
ENDBRANCH  29  32
ENDBRANCH  27  30
ENDBRANCH  26  27
ENDBRANCH  25  26
ENDBRANCH  24  25
ENDBRANCH  22  23
ENDBRANCH   3  22
TORSDOF 14
ENDMDL
MODEL 5
REMARK VINA RESULT:      -5.6      2.700      3.751
REMARK  Name = 5312153
REMARK  14 active torsions:
REMARK  status: ('A' for Active; 'I' for Inactive)
REMARK    1  A    between atoms: C_2  and  C_9
REMARK    2  A    between atoms: C_3  and  C_22
REMARK    3  A    between atoms: C_4  and  O_7
REMARK    4  A    between atoms: C_10  and  C_11
REMARK    5  A    between atoms: C_11  and  O_12
REMARK    6  A    between atoms: C_11  and  C_14
REMARK    7  A    between atoms: C_14  and  O_15
REMARK    8  A    between atoms: O_15  and  C_16
REMARK    9  A    between atoms: C_22  and  C_23
REMARK   10  A    between atoms: C_24  and  C_25
REMARK   11  A    between atoms: C_25  and  C_26
REMARK   12  A    between atoms: C_26  and  C_27
REMARK   13  A    between atoms: C_27  and  C_30
REMARK   14  A    between atoms: N_29  and  S_32
REMARK                            x       y       z     vdW  Elec       q    Type
REMARK                         _______ _______ _______ _____ _____    ______ ____
ROOT
ATOM      1  O   UNL     1     -33.287  25.473   4.476  0.00  0.00    -0.296 OA
ATOM      2  C   UNL     1     -35.990  23.286   3.841  0.00  0.00    +0.056 C 
ATOM      3  C   UNL     1     -34.879  24.144   3.216  0.00  0.00    +0.068 C 
ATOM      4  C   UNL     1     -35.303  22.607   5.033  0.00  0.00    +0.122 C 
ATOM      5  C   UNL     1     -34.425  23.698   5.641  0.00  0.00    +0.094 C 
ATOM      6  C   UNL     1     -34.099  24.557   4.447  0.00  0.00    +0.153 C 
ENDROOT
BRANCH   4   7
ATOM      7  O   UNL     1     -36.273  22.169   5.971  0.00  0.00    -0.384 OA
ATOM      8  H   UNL     1     -36.037  21.283   6.288  0.00  0.00    +0.210 HD
ENDBRANCH   4   7
BRANCH   2   9
ATOM      9  C   UNL     1     -36.578  22.310   2.873  0.00  0.00    -0.026 C 
ATOM     10  C   UNL     1     -35.877  21.707   1.902  0.00  0.00    +0.002 C 
BRANCH  10  11
ATOM     11  C   UNL     1     -36.470  20.727   0.929  0.00  0.00    +0.176 C 
BRANCH  11  12
ATOM     12  O   UNL     1     -36.637  21.403  -0.315  0.00  0.00    -0.376 OA
ATOM     13  H   UNL     1     -35.972  21.087  -0.947  0.00  0.00    +0.211 HD
ENDBRANCH  11  12
BRANCH  11  14
ATOM     14  C   UNL     1     -35.560  19.520   0.722  0.00  0.00    +0.239 C 
BRANCH  14  15
ATOM     15  O   UNL     1     -34.485  19.560   1.649  0.00  0.00    -0.472 OA
BRANCH  15  16
ATOM     16  C   UNL     1     -33.227  19.347   1.147  0.00  0.00    +0.139 C 
ATOM     17  C   UNL     1     -32.553  18.159   1.432  0.00  0.00    +0.037 C 
ATOM     18  C   UNL     1     -32.620  20.320   0.351  0.00  0.00    +0.037 C 
ATOM     19  C   UNL     1     -31.273  17.944   0.922  0.00  0.00    +0.003 C 
ATOM     20  C   UNL     1     -31.340  20.103  -0.159  0.00  0.00    +0.003 C 
ATOM     21  C   UNL     1     -30.666  18.916   0.127  0.00  0.00    +0.000 C 
ENDBRANCH  15  16
ENDBRANCH  14  15
ENDBRANCH  11  14
ENDBRANCH  10  11
ENDBRANCH   2   9
BRANCH   3  22
ATOM     22  C   UNL     1     -35.404  25.335   2.433  0.00  0.00    +0.033 C 
BRANCH  22  23
ATOM     23  C   UNL     1     -36.563  25.975   3.136  0.00  0.00    -0.030 C 
ATOM     24  C   UNL     1     -37.780  26.121   2.592  0.00  0.00    -0.031 C 
BRANCH  24  25
ATOM     25  C   UNL     1     -38.133  25.661   1.208  0.00  0.00    +0.026 C 
BRANCH  25  26
ATOM     26  C   UNL     1     -39.594  25.212   1.077  0.00  0.00    +0.014 C 
BRANCH  26  27
ATOM     27  C   UNL     1     -40.311  24.964   2.404  0.00  0.00    +0.087 C 
BRANCH  27  30
ATOM     28  O   UNL     1     -42.542  25.677   1.876  0.00  0.00    -0.274 OA
ATOM     29  N   UNL     1     -41.410  26.845   3.568  0.00  0.00    -0.189 N 
ATOM     30  C   UNL     1     -41.533  25.842   2.554  0.00  0.00    +0.241 C 
ATOM     31  H   UNL     1     -40.564  26.880   4.070  0.00  0.00    +0.176 HD
BRANCH  29  32
ATOM     32  S   UNL     1     -42.612  27.987   3.975  0.00  0.00    +0.058 S 
ATOM     33  O   UNL     1     -43.833  27.277   4.307  0.00  0.00    -0.154 OA
ATOM     34  O   UNL     1     -42.067  28.989   4.868  0.00  0.00    -0.154 OA
ATOM     35  C   UNL     1     -42.852  28.744   2.386  0.00  0.00    +0.200 C 
ENDBRANCH  29  32
ENDBRANCH  27  30
ENDBRANCH  26  27
ENDBRANCH  25  26
ENDBRANCH  24  25
ENDBRANCH  22  23
ENDBRANCH   3  22
TORSDOF 14
ENDMDL
MODEL 6
REMARK VINA RESULT:      -5.6      3.292      7.473
REMARK  Name = 5312153
REMARK  14 active torsions:
REMARK  status: ('A' for Active; 'I' for Inactive)
REMARK    1  A    between atoms: C_2  and  C_9
REMARK    2  A    between atoms: C_3  and  C_22
REMARK    3  A    between atoms: C_4  and  O_7
REMARK    4  A    between atoms: C_10  and  C_11
REMARK    5  A    between atoms: C_11  and  O_12
REMARK    6  A    between atoms: C_11  and  C_14
REMARK    7  A    between atoms: C_14  and  O_15
REMARK    8  A    between atoms: O_15  and  C_16
REMARK    9  A    between atoms: C_22  and  C_23
REMARK   10  A    between atoms: C_24  and  C_25
REMARK   11  A    between atoms: C_25  and  C_26
REMARK   12  A    between atoms: C_26  and  C_27
REMARK   13  A    between atoms: C_27  and  C_30
REMARK   14  A    between atoms: N_29  and  S_32
REMARK                            x       y       z     vdW  Elec       q    Type
REMARK                         _______ _______ _______ _____ _____    ______ ____
ROOT
ATOM      1  O   UNL     1     -33.269  20.714   0.601  0.00  0.00    -0.296 OA
ATOM      2  C   UNL     1     -36.699  20.195   1.284  0.00  0.00    +0.056 C 
ATOM      3  C   UNL     1     -35.602  21.238   1.019  0.00  0.00    +0.068 C 
ATOM      4  C   UNL     1     -36.405  19.087   0.264  0.00  0.00    +0.122 C 
ATOM      5  C   UNL     1     -34.883  18.957   0.267  0.00  0.00    +0.094 C 
ATOM      6  C   UNL     1     -34.438  20.349   0.631  0.00  0.00    +0.153 C 
ENDROOT
BRANCH   4   7
ATOM      7  O   UNL     1     -37.009  17.871   0.675  0.00  0.00    -0.384 OA
ATOM      8  H   UNL     1     -37.360  17.407  -0.100  0.00  0.00    +0.210 HD
ENDBRANCH   4   7
BRANCH   2   9
ATOM      9  C   UNL     1     -38.076  20.760   1.150  0.00  0.00    -0.026 C 
ATOM     10  C   UNL     1     -38.757  20.804  -0.005  0.00  0.00    +0.002 C 
BRANCH  10  11
ATOM     11  C   UNL     1     -40.141  21.374  -0.137  0.00  0.00    +0.176 C 
BRANCH  11  12
ATOM     12  O   UNL     1     -40.890  20.955   1.001  0.00  0.00    -0.376 OA
ATOM     13  H   UNL     1     -41.139  20.023   0.898  0.00  0.00    +0.211 HD
ENDBRANCH  11  12
BRANCH  11  14
ATOM     14  C   UNL     1     -40.117  22.900  -0.184  0.00  0.00    +0.239 C 
BRANCH  14  15
ATOM     15  O   UNL     1     -40.248  23.426   1.129  0.00  0.00    -0.472 OA
BRANCH  15  16
ATOM     16  C   UNL     1     -39.195  24.164   1.607  0.00  0.00    +0.139 C 
ATOM     17  C   UNL     1     -39.188  24.590   2.935  0.00  0.00    +0.037 C 
ATOM     18  C   UNL     1     -38.133  24.490   0.762  0.00  0.00    +0.037 C 
ATOM     19  C   UNL     1     -38.117  25.343   3.419  0.00  0.00    +0.003 C 
ATOM     20  C   UNL     1     -37.063  25.242   1.248  0.00  0.00    +0.003 C 
ATOM     21  C   UNL     1     -37.055  25.668   2.576  0.00  0.00    +0.000 C 
ENDBRANCH  15  16
ENDBRANCH  14  15
ENDBRANCH  11  14
ENDBRANCH  10  11
ENDBRANCH   2   9
BRANCH   3  22
ATOM     22  C   UNL     1     -35.293  22.108   2.226  0.00  0.00    +0.033 C 
BRANCH  22  23
ATOM     23  C   UNL     1     -35.229  21.289   3.480  0.00  0.00    -0.030 C 
ATOM     24  C   UNL     1     -35.434  21.786   4.708  0.00  0.00    -0.031 C 
BRANCH  24  25
ATOM     25  C   UNL     1     -35.751  23.227   4.981  0.00  0.00    +0.026 C 
BRANCH  25  26
ATOM     26  C   UNL     1     -34.509  24.066   5.305  0.00  0.00    +0.014 C 
BRANCH  26  27
ATOM     27  C   UNL     1     -34.793  25.526   5.658  0.00  0.00    +0.087 C 
BRANCH  27  30
ATOM     28  O   UNL     1     -33.790  26.477   3.694  0.00  0.00    -0.274 OA
ATOM     29  N   UNL     1     -33.144  27.361   5.770  0.00  0.00    -0.189 N 
ATOM     30  C   UNL     1     -33.873  26.471   4.918  0.00  0.00    +0.241 C 
ATOM     31  H   UNL     1     -33.299  27.288   6.740  0.00  0.00    +0.176 HD
BRANCH  29  32
ATOM     32  S   UNL     1     -32.029  28.541   5.239  0.00  0.00    +0.058 S 
ATOM     33  O   UNL     1     -30.851  27.868   4.726  0.00  0.00    -0.154 OA
ATOM     34  O   UNL     1     -32.709  29.553   4.457  0.00  0.00    -0.154 OA
ATOM     35  C   UNL     1     -31.592  29.260   6.803  0.00  0.00    +0.200 C 
ENDBRANCH  29  32
ENDBRANCH  27  30
ENDBRANCH  26  27
ENDBRANCH  25  26
ENDBRANCH  24  25
ENDBRANCH  22  23
ENDBRANCH   3  22
TORSDOF 14
ENDMDL
MODEL 7
REMARK VINA RESULT:      -5.6      3.664      5.280
REMARK  Name = 5312153
REMARK  14 active torsions:
REMARK  status: ('A' for Active; 'I' for Inactive)
REMARK    1  A    between atoms: C_2  and  C_9
REMARK    2  A    between atoms: C_3  and  C_22
REMARK    3  A    between atoms: C_4  and  O_7
REMARK    4  A    between atoms: C_10  and  C_11
REMARK    5  A    between atoms: C_11  and  O_12
REMARK    6  A    between atoms: C_11  and  C_14
REMARK    7  A    between atoms: C_14  and  O_15
REMARK    8  A    between atoms: O_15  and  C_16
REMARK    9  A    between atoms: C_22  and  C_23
REMARK   10  A    between atoms: C_24  and  C_25
REMARK   11  A    between atoms: C_25  and  C_26
REMARK   12  A    between atoms: C_26  and  C_27
REMARK   13  A    between atoms: C_27  and  C_30
REMARK   14  A    between atoms: N_29  and  S_32
REMARK                            x       y       z     vdW  Elec       q    Type
REMARK                         _______ _______ _______ _____ _____    ______ ____
ROOT
ATOM      1  O   UNL     1     -37.394  27.018   2.189  0.00  0.00    -0.296 OA
ATOM      2  C   UNL     1     -36.040  24.173   3.791  0.00  0.00    +0.056 C 
ATOM      3  C   UNL     1     -37.146  24.699   2.863  0.00  0.00    +0.068 C 
ATOM      4  C   UNL     1     -34.778  24.897   3.306  0.00  0.00    +0.122 C 
ATOM      5  C   UNL     1     -35.241  26.323   3.017  0.00  0.00    +0.094 C 
ATOM      6  C   UNL     1     -36.685  26.125   2.638  0.00  0.00    +0.153 C 
ENDROOT
BRANCH   4   7
ATOM      7  O   UNL     1     -33.789  24.891   4.323  0.00  0.00    -0.384 OA
ATOM      8  H   UNL     1     -33.011  25.384   4.020  0.00  0.00    +0.210 HD
ENDBRANCH   4   7
BRANCH   2   9
ATOM      9  C   UNL     1     -35.911  22.684   3.746  0.00  0.00    -0.026 C 
ATOM     10  C   UNL     1     -35.499  22.001   2.668  0.00  0.00    +0.002 C 
BRANCH  10  11
ATOM     11  C   UNL     1     -35.373  20.504   2.626  0.00  0.00    +0.176 C 
BRANCH  11  12
ATOM     12  O   UNL     1     -36.684  19.958   2.742  0.00  0.00    -0.376 OA
ATOM     13  H   UNL     1     -37.338  20.673   2.699  0.00  0.00    +0.211 HD
ENDBRANCH  11  12
BRANCH  11  14
ATOM     14  C   UNL     1     -34.750  20.030   1.316  0.00  0.00    +0.239 C 
BRANCH  14  15
ATOM     15  O   UNL     1     -33.833  18.975   1.570  0.00  0.00    -0.472 OA
BRANCH  15  16
ATOM     16  C   UNL     1     -32.598  19.073   0.981  0.00  0.00    +0.139 C 
ATOM     17  C   UNL     1     -31.655  18.062   1.165  0.00  0.00    +0.037 C 
ATOM     18  C   UNL     1     -32.286  20.187   0.200  0.00  0.00    +0.037 C 
ATOM     19  C   UNL     1     -30.399  18.164   0.566  0.00  0.00    +0.003 C 
ATOM     20  C   UNL     1     -31.029  20.287  -0.398  0.00  0.00    +0.003 C 
ATOM     21  C   UNL     1     -30.086  19.276  -0.215  0.00  0.00    +0.000 C 
ENDBRANCH  15  16
ENDBRANCH  14  15
ENDBRANCH  11  14
ENDBRANCH  10  11
ENDBRANCH   2   9
BRANCH   3  22
ATOM     22  C   UNL     1     -38.534  24.626   3.476  0.00  0.00    +0.033 C 
BRANCH  22  23
ATOM     23  C   UNL     1     -39.456  23.802   2.628  0.00  0.00    -0.030 C 
ATOM     24  C   UNL     1     -40.360  24.322   1.786  0.00  0.00    -0.031 C 
BRANCH  24  25
ATOM     25  C   UNL     1     -40.562  25.797   1.587  0.00  0.00    +0.026 C 
BRANCH  25  26
ATOM     26  C   UNL     1     -41.843  26.323   2.246  0.00  0.00    +0.014 C 
BRANCH  26  27
ATOM     27  C   UNL     1     -41.698  26.703   3.720  0.00  0.00    +0.087 C 
BRANCH  27  30
ATOM     28  O   UNL     1     -41.940  28.855   4.758  0.00  0.00    -0.274 OA
ATOM     29  N   UNL     1     -43.710  28.102   3.414  0.00  0.00    -0.189 N 
ATOM     30  C   UNL     1     -42.429  27.988   4.042  0.00  0.00    +0.241 C 
ATOM     31  H   UNL     1     -44.002  27.357   2.841  0.00  0.00    +0.176 HD
BRANCH  29  32
ATOM     32  S   UNL     1     -44.774  29.428   3.580  0.00  0.00    +0.058 S 
ATOM     33  O   UNL     1     -45.491  29.293   4.834  0.00  0.00    -0.154 OA
ATOM     34  O   UNL     1     -44.092  30.659   3.239  0.00  0.00    -0.154 OA
ATOM     35  C   UNL     1     -45.916  29.056   2.271  0.00  0.00    +0.200 C 
ENDBRANCH  29  32
ENDBRANCH  27  30
ENDBRANCH  26  27
ENDBRANCH  25  26
ENDBRANCH  24  25
ENDBRANCH  22  23
ENDBRANCH   3  22
TORSDOF 14
ENDMDL
MODEL 8
REMARK VINA RESULT:      -5.5      2.582      6.998
REMARK  Name = 5312153
REMARK  14 active torsions:
REMARK  status: ('A' for Active; 'I' for Inactive)
REMARK    1  A    between atoms: C_2  and  C_9
REMARK    2  A    between atoms: C_3  and  C_22
REMARK    3  A    between atoms: C_4  and  O_7
REMARK    4  A    between atoms: C_10  and  C_11
REMARK    5  A    between atoms: C_11  and  O_12
REMARK    6  A    between atoms: C_11  and  C_14
REMARK    7  A    between atoms: C_14  and  O_15
REMARK    8  A    between atoms: O_15  and  C_16
REMARK    9  A    between atoms: C_22  and  C_23
REMARK   10  A    between atoms: C_24  and  C_25
REMARK   11  A    between atoms: C_25  and  C_26
REMARK   12  A    between atoms: C_26  and  C_27
REMARK   13  A    between atoms: C_27  and  C_30
REMARK   14  A    between atoms: N_29  and  S_32
REMARK                            x       y       z     vdW  Elec       q    Type
REMARK                         _______ _______ _______ _____ _____    ______ ____
ROOT
ATOM      1  O   UNL     1     -30.817  16.377  -0.185  0.00  0.00    -0.296 OA
ATOM      2  C   UNL     1     -33.084  19.009   0.473  0.00  0.00    +0.056 C 
ATOM      3  C   UNL     1     -32.715  17.548   0.774  0.00  0.00    +0.068 C 
ATOM      4  C   UNL     1     -31.734  19.738   0.487  0.00  0.00    +0.122 C 
ATOM      5  C   UNL     1     -30.776  18.785  -0.223  0.00  0.00    +0.094 C 
ATOM      6  C   UNL     1     -31.370  17.436   0.084  0.00  0.00    +0.153 C 
ENDROOT
BRANCH   4   7
ATOM      7  O   UNL     1     -31.833  20.964  -0.220  0.00  0.00    -0.384 OA
ATOM      8  H   UNL     1     -32.743  21.295  -0.166  0.00  0.00    +0.210 HD
ENDBRANCH   4   7
BRANCH   2   9
ATOM      9  C   UNL     1     -34.060  19.570   1.455  0.00  0.00    -0.026 C 
ATOM     10  C   UNL     1     -35.194  20.197   1.107  0.00  0.00    +0.002 C 
BRANCH  10  11
ATOM     11  C   UNL     1     -36.173  20.762   2.098  0.00  0.00    +0.176 C 
BRANCH  11  12
ATOM     12  O   UNL     1     -36.990  19.687   2.556  0.00  0.00    -0.376 OA
ATOM     13  H   UNL     1     -37.923  19.950   2.517  0.00  0.00    +0.211 HD
ENDBRANCH  11  12
BRANCH  11  14
ATOM     14  C   UNL     1     -35.463  21.393   3.292  0.00  0.00    +0.239 C 
BRANCH  14  15
ATOM     15  O   UNL     1     -34.955  22.670   2.933  0.00  0.00    -0.472 OA
BRANCH  15  16
ATOM     16  C   UNL     1     -35.245  23.711   3.777  0.00  0.00    +0.139 C 
ATOM     17  C   UNL     1     -36.528  24.257   3.797  0.00  0.00    +0.037 C 
ATOM     18  C   UNL     1     -34.254  24.224   4.616  0.00  0.00    +0.037 C 
ATOM     19  C   UNL     1     -36.822  25.317   4.655  0.00  0.00    +0.003 C 
ATOM     20  C   UNL     1     -34.549  25.284   5.474  0.00  0.00    +0.003 C 
ATOM     21  C   UNL     1     -35.833  25.830   5.493  0.00  0.00    +0.000 C 
ENDBRANCH  15  16
ENDBRANCH  14  15
ENDBRANCH  11  14
ENDBRANCH  10  11
ENDBRANCH   2   9
BRANCH   3  22
ATOM     22  C   UNL     1     -33.727  16.548   0.241  0.00  0.00    +0.033 C 
BRANCH  22  23
ATOM     23  C   UNL     1     -34.270  16.985  -1.086  0.00  0.00    -0.030 C 
ATOM     24  C   UNL     1     -35.575  17.169  -1.336  0.00  0.00    -0.031 C 
BRANCH  24  25
ATOM     25  C   UNL     1     -36.655  16.960  -0.315  0.00  0.00    +0.026 C 
BRANCH  25  26
ATOM     26  C   UNL     1     -37.866  17.878  -0.523  0.00  0.00    +0.014 C 
BRANCH  26  27
ATOM     27  C   UNL     1     -37.665  18.981  -1.562  0.00  0.00    +0.087 C 
BRANCH  27  30
ATOM     28  O   UNL     1     -37.753  21.381  -1.559  0.00  0.00    -0.274 OA
ATOM     29  N   UNL     1     -39.011  20.254   0.071  0.00  0.00    -0.189 N 
ATOM     30  C   UNL     1     -38.115  20.329  -1.042  0.00  0.00    +0.241 C 
ATOM     31  H   UNL     1     -39.255  19.358   0.398  0.00  0.00    +0.176 HD
BRANCH  29  32
ATOM     32  S   UNL     1     -39.692  21.596   0.879  0.00  0.00    +0.058 S 
ATOM     33  O   UNL     1     -40.354  21.128   2.081  0.00  0.00    -0.154 OA
ATOM     34  O   UNL     1     -38.737  22.685   0.929  0.00  0.00    -0.154 OA
ATOM     35  C   UNL     1     -40.957  22.033  -0.289  0.00  0.00    +0.200 C 
ENDBRANCH  29  32
ENDBRANCH  27  30
ENDBRANCH  26  27
ENDBRANCH  25  26
ENDBRANCH  24  25
ENDBRANCH  22  23
ENDBRANCH   3  22
TORSDOF 14
ENDMDL
MODEL 9
REMARK VINA RESULT:      -5.5      2.823      6.972
REMARK  Name = 5312153
REMARK  14 active torsions:
REMARK  status: ('A' for Active; 'I' for Inactive)
REMARK    1  A    between atoms: C_2  and  C_9
REMARK    2  A    between atoms: C_3  and  C_22
REMARK    3  A    between atoms: C_4  and  O_7
REMARK    4  A    between atoms: C_10  and  C_11
REMARK    5  A    between atoms: C_11  and  O_12
REMARK    6  A    between atoms: C_11  and  C_14
REMARK    7  A    between atoms: C_14  and  O_15
REMARK    8  A    between atoms: O_15  and  C_16
REMARK    9  A    between atoms: C_22  and  C_23
REMARK   10  A    between atoms: C_24  and  C_25
REMARK   11  A    between atoms: C_25  and  C_26
REMARK   12  A    between atoms: C_26  and  C_27
REMARK   13  A    between atoms: C_27  and  C_30
REMARK   14  A    between atoms: N_29  and  S_32
REMARK                            x       y       z     vdW  Elec       q    Type
REMARK                         _______ _______ _______ _____ _____    ______ ____
ROOT
ATOM      1  O   UNL     1     -31.071  20.511  -2.218  0.00  0.00    -0.296 OA
ATOM      2  C   UNL     1     -32.938  20.063   0.750  0.00  0.00    +0.056 C 
ATOM      3  C   UNL     1     -32.813  20.852  -0.563  0.00  0.00    +0.068 C 
ATOM      4  C   UNL     1     -32.642  18.616   0.337  0.00  0.00    +0.122 C 
ATOM      5  C   UNL     1     -31.484  18.728  -0.652  0.00  0.00    +0.094 C 
ATOM      6  C   UNL     1     -31.707  20.088  -1.261  0.00  0.00    +0.153 C 
ENDROOT
BRANCH   4   7
ATOM      7  O   UNL     1     -32.256  17.854   1.470  0.00  0.00    -0.384 OA
ATOM      8  H   UNL     1     -31.671  18.384   2.032  0.00  0.00    +0.210 HD
ENDBRANCH   4   7
BRANCH   2   9
ATOM      9  C   UNL     1     -34.278  20.223   1.392  0.00  0.00    -0.026 C 
ATOM     10  C   UNL     1     -35.420  20.385   0.708  0.00  0.00    +0.002 C 
BRANCH  10  11
ATOM     11  C   UNL     1     -36.766  20.548   1.357  0.00  0.00    +0.176 C 
BRANCH  11  12
ATOM     12  O   UNL     1     -36.744  19.821   2.583  0.00  0.00    -0.376 OA
ATOM     13  H   UNL     1     -35.860  19.446   2.721  0.00  0.00    +0.211 HD
ENDBRANCH  11  12
BRANCH  11  14
ATOM     14  C   UNL     1     -37.074  22.013   1.652  0.00  0.00    +0.239 C 
BRANCH  14  15
ATOM     15  O   UNL     1     -37.459  22.162   3.012  0.00  0.00    -0.472 OA
BRANCH  15  16
ATOM     16  C   UNL     1     -36.710  23.020   3.775  0.00  0.00    +0.139 C 
ATOM     17  C   UNL     1     -37.072  24.363   3.876  0.00  0.00    +0.037 C 
ATOM     18  C   UNL     1     -35.583  22.548   4.451  0.00  0.00    +0.037 C 
ATOM     19  C   UNL     1     -36.308  25.236   4.652  0.00  0.00    +0.003 C 
ATOM     20  C   UNL     1     -34.820  23.421   5.227  0.00  0.00    +0.003 C 
ATOM     21  C   UNL     1     -35.183  24.764   5.327  0.00  0.00    +0.000 C 
ENDBRANCH  15  16
ENDBRANCH  14  15
ENDBRANCH  11  14
ENDBRANCH  10  11
ENDBRANCH   2   9
BRANCH   3  22
ATOM     22  C   UNL     1     -32.467  22.317  -0.356  0.00  0.00    +0.033 C 
BRANCH  22  23
ATOM     23  C   UNL     1     -33.575  23.207  -0.831  0.00  0.00    -0.030 C 
ATOM     24  C   UNL     1     -34.292  24.003  -0.025  0.00  0.00    -0.031 C 
BRANCH  24  25
ATOM     25  C   UNL     1     -34.073  24.102   1.457  0.00  0.00    +0.026 C 
BRANCH  25  26
ATOM     26  C   UNL     1     -33.350  25.389   1.874  0.00  0.00    +0.014 C 
BRANCH  26  27
ATOM     27  C   UNL     1     -34.174  26.668   1.719  0.00  0.00    +0.087 C 
BRANCH  27  30
ATOM     28  O   UNL     1     -35.010  28.166   3.399  0.00  0.00    -0.274 OA
ATOM     29  N   UNL     1     -32.730  27.616   3.485  0.00  0.00    -0.189 N 
ATOM     30  C   UNL     1     -34.049  27.564   2.931  0.00  0.00    +0.241 C 
ATOM     31  H   UNL     1     -32.033  27.079   3.044  0.00  0.00    +0.176 HD
BRANCH  29  32
ATOM     32  S   UNL     1     -32.270  28.535   4.848  0.00  0.00    +0.058 S 
ATOM     33  O   UNL     1     -32.660  29.916   4.631  0.00  0.00    -0.154 OA
ATOM     34  O   UNL     1     -32.637  27.840   6.065  0.00  0.00    -0.154 OA
ATOM     35  C   UNL     1     -30.504  28.449   4.681  0.00  0.00    +0.200 C 
ENDBRANCH  29  32
ENDBRANCH  27  30
ENDBRANCH  26  27
ENDBRANCH  25  26
ENDBRANCH  24  25
ENDBRANCH  22  23
ENDBRANCH   3  22
TORSDOF 14
ENDMDL
