MODEL 1
REMARK VINA RESULT:      -5.3      0.000      0.000
REMARK  Name = 20756463
REMARK  11 active torsions:
REMARK  status: ('A' for Active; 'I' for Inactive)
REMARK    1  A    between atoms: N_2  and  C_15
REMARK    2  A    between atoms: C_3  and  C_5
REMARK    3  A    between atoms: C_5  and  C_6
REMARK    4  A    between atoms: C_6  and  C_7
REMARK    5  A    between atoms: C_7  and  N_8
REMARK    6  A    between atoms: C_7  and  C_14
REMARK    7  A    between atoms: C_15  and  C_18
REMARK    8  A    between atoms: C_15  and  C_24
REMARK    9  A    between atoms: N_17  and  CA_20
REMARK   10  A    between atoms: CA_20  and  C_23
REMARK   11  A    between atoms: C_24  and  S_25
REMARK                            x       y       z     vdW  Elec       q    Type
REMARK                         _______ _______ _______ _____ _____    ______ ____
ROOT
ATOM      1  O   UNK A   1     -35.023  20.961   5.328  0.00  0.00    -0.275 OA
ATOM      2  N   UNK A   1     -35.985  22.250   3.650  0.00  0.00    -0.298 N 
ATOM      3  C   UNK A   1     -35.412  22.043   4.896  0.00  0.00    +0.223 C 
ATOM      4  H   UNK A   1     -36.259  23.164   3.408  0.00  0.00    +0.150 HD
ENDROOT
BRANCH   3   5
ATOM      5  C   UNK A   1     -35.309  23.339   5.684  0.00  0.00    +0.083 C 
BRANCH   5   6
ATOM      6  C   UNK A   1     -36.119  24.472   5.047  0.00  0.00    -0.001 C 
BRANCH   6   7
ATOM      7  C   UNK A   1     -35.572  25.878   5.326  0.00  0.00    +0.041 C 
BRANCH   7   8
ATOM      8  N   UNK A   1     -36.160  26.801   4.304  0.00  0.00    +0.389 N 
ATOM      9  H   UNK A   1     -35.411  27.314   3.839  0.00  0.00    -0.088 HD
ATOM     10  H   UNK A   1     -36.789  27.459   4.763  0.00  0.00    -0.088 HD
ATOM     11  H   UNK A   1     -36.680  26.258   3.615  0.00  0.00    -0.088 HD
ENDBRANCH   7   8
BRANCH   7  14
ATOM     12  O   UNK A   1     -33.388  25.664   4.432  0.00  0.00    -0.248 OA
ATOM     13  O   UNK A   1     -33.617  26.343   6.598  0.00  0.00    -0.248 OA
ATOM     14  C   UNK A   1     -34.044  25.981   5.466  0.00  0.00    +0.345 C 
ENDBRANCH   7  14
ENDBRANCH   6   7
ENDBRANCH   5   6
ENDBRANCH   3   5
BRANCH   2  15
ATOM     15  C   UNK A   1     -36.198  21.191   2.690  0.00  0.00    +0.159 C 
BRANCH  15  18
ATOM     16  O   UNK A   1     -34.566  22.048   1.111  0.00  0.00    -0.273 OA
ATOM     17  N   GLY A   2     -34.418  19.830   1.772  0.00  0.00    -0.294 N 
ATOM     18  C   UNK A   1     -34.977  21.099   1.776  0.00  0.00    +0.242 C 
ATOM     19  H   GLY A   2     -34.821  19.135   2.342  0.00  0.00    +0.150 HD
BRANCH  17  20
ATOM     20  CA  GLY A   2     -33.269  19.486   0.968  0.00  0.00    +0.205 C 
BRANCH  20  23
ATOM     21  O   GLY A   2     -31.838  17.759   1.682  0.00  0.00    -0.244 OA
ATOM     22  OXT GLY A   2     -33.747  17.221   0.544  0.00  0.00    -0.244 OA
ATOM     23  C   GLY A   2     -32.915  18.010   1.074  0.00  0.00    +0.385 C 
ENDBRANCH  20  23
ENDBRANCH  17  20
ENDBRANCH  15  18
BRANCH  15  24
ATOM     24  C   UNK A   1     -37.515  21.353   1.927  0.00  0.00    +0.082 C 
BRANCH  24  25
ATOM     25  S   UNK A   1     -38.377  22.921   2.272  0.00  0.00    -0.166 S 
ATOM     26  H   UNK A   1     -38.615  23.576   1.104  0.00  0.00    +0.102 HD
ENDBRANCH  24  25
ENDBRANCH  15  24
ENDBRANCH   2  15
TORSDOF 11
ENDMDL
MODEL 2
REMARK VINA RESULT:      -5.3      4.600      7.761
REMARK  Name = 20756463
REMARK  11 active torsions:
REMARK  status: ('A' for Active; 'I' for Inactive)
REMARK    1  A    between atoms: N_2  and  C_15
REMARK    2  A    between atoms: C_3  and  C_5
REMARK    3  A    between atoms: C_5  and  C_6
REMARK    4  A    between atoms: C_6  and  C_7
REMARK    5  A    between atoms: C_7  and  N_8
REMARK    6  A    between atoms: C_7  and  C_14
REMARK    7  A    between atoms: C_15  and  C_18
REMARK    8  A    between atoms: C_15  and  C_24
REMARK    9  A    between atoms: N_17  and  CA_20
REMARK   10  A    between atoms: CA_20  and  C_23
REMARK   11  A    between atoms: C_24  and  S_25
REMARK                            x       y       z     vdW  Elec       q    Type
REMARK                         _______ _______ _______ _____ _____    ______ ____
ROOT
ATOM      1  O   UNK A   1     -35.720  26.760   4.401  0.00  0.00    -0.275 OA
ATOM      2  N   UNK A   1     -37.372  25.150   4.120  0.00  0.00    -0.298 N 
ATOM      3  C   UNK A   1     -36.233  25.686   4.702  0.00  0.00    +0.223 C 
ATOM      4  H   UNK A   1     -37.697  24.278   4.442  0.00  0.00    +0.150 HD
ENDROOT
BRANCH   3   5
ATOM      5  C   UNK A   1     -35.681  24.775   5.787  0.00  0.00    +0.083 C 
BRANCH   5   6
ATOM      6  C   UNK A   1     -34.816  23.647   5.215  0.00  0.00    -0.001 C 
BRANCH   6   7
ATOM      7  C   UNK A   1     -35.503  22.276   5.178  0.00  0.00    +0.041 C 
BRANCH   7   8
ATOM      8  N   UNK A   1     -34.724  21.358   6.068  0.00  0.00    +0.389 N 
ATOM      9  H   UNK A   1     -33.731  21.577   5.996  0.00  0.00    -0.088 HD
ATOM     10  H   UNK A   1     -34.881  20.392   5.779  0.00  0.00    -0.088 HD
ATOM     11  H   UNK A   1     -35.032  21.478   7.033  0.00  0.00    -0.088 HD
ENDBRANCH   7   8
BRANCH   7  14
ATOM     12  O   UNK A   1     -36.533  22.425   3.048  0.00  0.00    -0.248 OA
ATOM     13  O   UNK A   1     -35.257  20.592   3.516  0.00  0.00    -0.248 OA
ATOM     14  C   UNK A   1     -35.783  21.710   3.775  0.00  0.00    +0.345 C 
ENDBRANCH   7  14
ENDBRANCH   6   7
ENDBRANCH   5   6
ENDBRANCH   3   5
BRANCH   2  15
ATOM     15  C   UNK A   1     -38.107  25.809   3.064  0.00  0.00    +0.159 C 
BRANCH  15  18
ATOM     16  O   UNK A   1     -40.040  24.348   2.925  0.00  0.00    -0.273 OA
ATOM     17  N   GLY A   2     -40.345  26.535   3.637  0.00  0.00    -0.294 N 
ATOM     18  C   UNK A   1     -39.588  25.458   3.199  0.00  0.00    +0.242 C 
ATOM     19  H   GLY A   2     -39.888  27.385   3.832  0.00  0.00    +0.150 HD
BRANCH  17  20
ATOM     20  CA  GLY A   2     -41.775  26.459   3.820  0.00  0.00    +0.205 C 
BRANCH  20  23
ATOM     21  O   GLY A   2     -43.430  27.965   3.088  0.00  0.00    -0.244 OA
ATOM     22  OXT GLY A   2     -41.880  28.672   4.614  0.00  0.00    -0.244 OA
ATOM     23  C   GLY A   2     -42.425  27.835   3.841  0.00  0.00    +0.385 C 
ENDBRANCH  20  23
ENDBRANCH  17  20
ENDBRANCH  15  18
BRANCH  15  24
ATOM     24  C   UNK A   1     -37.536  25.502   1.677  0.00  0.00    +0.082 C 
BRANCH  24  25
ATOM     25  S   UNK A   1     -38.311  26.459   0.334  0.00  0.00    -0.166 S 
ATOM     26  H   UNK A   1     -37.720  27.681   0.247  0.00  0.00    +0.102 HD
ENDBRANCH  24  25
ENDBRANCH  15  24
ENDBRANCH   2  15
TORSDOF 11
ENDMDL
MODEL 3
REMARK VINA RESULT:      -5.2      5.144      8.968
REMARK  Name = 20756463
REMARK  11 active torsions:
REMARK  status: ('A' for Active; 'I' for Inactive)
REMARK    1  A    between atoms: N_2  and  C_15
REMARK    2  A    between atoms: C_3  and  C_5
REMARK    3  A    between atoms: C_5  and  C_6
REMARK    4  A    between atoms: C_6  and  C_7
REMARK    5  A    between atoms: C_7  and  N_8
REMARK    6  A    between atoms: C_7  and  C_14
REMARK    7  A    between atoms: C_15  and  C_18
REMARK    8  A    between atoms: C_15  and  C_24
REMARK    9  A    between atoms: N_17  and  CA_20
REMARK   10  A    between atoms: CA_20  and  C_23
REMARK   11  A    between atoms: C_24  and  S_25
REMARK                            x       y       z     vdW  Elec       q    Type
REMARK                         _______ _______ _______ _____ _____    ______ ____
ROOT
ATOM      1  O   UNK A   1     -32.768  26.689   3.980  0.00  0.00    -0.275 OA
ATOM      2  N   UNK A   1     -32.441  28.208   5.708  0.00  0.00    -0.298 N 
ATOM      3  C   UNK A   1     -32.973  27.065   5.131  0.00  0.00    +0.223 C 
ATOM      4  H   UNK A   1     -32.674  28.413   6.642  0.00  0.00    +0.150 HD
ENDROOT
BRANCH   3   5
ATOM      5  C   UNK A   1     -33.856  26.307   6.109  0.00  0.00    +0.083 C 
BRANCH   5   6
ATOM      6  C   UNK A   1     -34.541  25.101   5.459  0.00  0.00    -0.001 C 
BRANCH   6   7
ATOM      7  C   UNK A   1     -35.833  25.436   4.703  0.00  0.00    +0.041 C 
BRANCH   7   8
ATOM      8  N   UNK A   1     -36.485  26.582   5.411  0.00  0.00    +0.389 N 
ATOM      9  H   UNK A   1     -37.494  26.539   5.270  0.00  0.00    -0.088 HD
ATOM     10  H   UNK A   1     -36.127  27.461   5.037  0.00  0.00    -0.088 HD
ATOM     11  H   UNK A   1     -36.277  26.528   6.408  0.00  0.00    -0.088 HD
ENDBRANCH   7   8
BRANCH   7  14
ATOM     12  O   UNK A   1     -37.927  24.558   4.021  0.00  0.00    -0.248 OA
ATOM     13  O   UNK A   1     -36.292  23.102   4.663  0.00  0.00    -0.248 OA
ATOM     14  C   UNK A   1     -36.770  24.247   4.428  0.00  0.00    +0.345 C 
ENDBRANCH   7  14
ENDBRANCH   6   7
ENDBRANCH   5   6
ENDBRANCH   3   5
BRANCH   2  15
ATOM     15  C   UNK A   1     -31.560  29.114   5.006  0.00  0.00    +0.159 C 
BRANCH  15  18
ATOM     16  O   UNK A   1     -29.585  27.704   5.073  0.00  0.00    -0.273 OA
ATOM     17  N   GLY A   2     -29.493  29.798   6.066  0.00  0.00    -0.294 N 
ATOM     18  C   UNK A   1     -30.114  28.775   5.364  0.00  0.00    +0.242 C 
ATOM     19  H   GLY A   2     -30.002  30.621   6.250  0.00  0.00    +0.150 HD
BRANCH  17  20
ATOM     20  CA  GLY A   2     -28.132  29.706   6.537  0.00  0.00    +0.205 C 
BRANCH  20  23
ATOM     21  O   GLY A   2     -28.268  29.796   8.886  0.00  0.00    -0.244 OA
ATOM     22  OXT GLY A   2     -27.755  27.808   7.877  0.00  0.00    -0.244 OA
ATOM     23  C   GLY A   2     -28.041  29.038   7.901  0.00  0.00    +0.385 C 
ENDBRANCH  20  23
ENDBRANCH  17  20
ENDBRANCH  15  18
BRANCH  15  24
ATOM     24  C   UNK A   1     -31.917  30.582   5.253  0.00  0.00    +0.082 C 
BRANCH  24  25
ATOM     25  S   UNK A   1     -31.760  31.636   3.774  0.00  0.00    -0.166 S 
ATOM     26  H   UNK A   1     -32.959  31.699   3.133  0.00  0.00    +0.102 HD
ENDBRANCH  24  25
ENDBRANCH  15  24
ENDBRANCH   2  15
TORSDOF 11
ENDMDL
MODEL 4
REMARK VINA RESULT:      -5.1      2.538      3.543
REMARK  Name = 20756463
REMARK  11 active torsions:
REMARK  status: ('A' for Active; 'I' for Inactive)
REMARK    1  A    between atoms: N_2  and  C_15
REMARK    2  A    between atoms: C_3  and  C_5
REMARK    3  A    between atoms: C_5  and  C_6
REMARK    4  A    between atoms: C_6  and  C_7
REMARK    5  A    between atoms: C_7  and  N_8
REMARK    6  A    between atoms: C_7  and  C_14
REMARK    7  A    between atoms: C_15  and  C_18
REMARK    8  A    between atoms: C_15  and  C_24
REMARK    9  A    between atoms: N_17  and  CA_20
REMARK   10  A    between atoms: CA_20  and  C_23
REMARK   11  A    between atoms: C_24  and  S_25
REMARK                            x       y       z     vdW  Elec       q    Type
REMARK                         _______ _______ _______ _____ _____    ______ ____
ROOT
ATOM      1  O   UNK A   1     -36.260  23.610   5.308  0.00  0.00    -0.275 OA
ATOM      2  N   UNK A   1     -37.298  25.293   4.088  0.00  0.00    -0.298 N 
ATOM      3  C   UNK A   1     -36.386  24.793   5.005  0.00  0.00    +0.223 C 
ATOM      4  H   UNK A   1     -37.311  26.263   3.921  0.00  0.00    +0.150 HD
ENDROOT
BRANCH   3   5
ATOM      5  C   UNK A   1     -35.534  25.901   5.603  0.00  0.00    +0.083 C 
BRANCH   5   6
ATOM      6  C   UNK A   1     -34.050  25.747   5.253  0.00  0.00    -0.001 C 
BRANCH   6   7
ATOM      7  C   UNK A   1     -33.486  26.869   4.373  0.00  0.00    +0.041 C 
BRANCH   7   8
ATOM      8  N   UNK A   1     -32.858  27.881   5.281  0.00  0.00    +0.389 N 
ATOM      9  H   UNK A   1     -32.095  28.349   4.793  0.00  0.00    -0.088 HD
ATOM     10  H   UNK A   1     -32.494  27.412   6.111  0.00  0.00    -0.088 HD
ATOM     11  H   UNK A   1     -33.557  28.568   5.560  0.00  0.00    -0.088 HD
ENDBRANCH   7   8
BRANCH   7  14
ATOM     12  O   UNK A   1     -34.762  28.679   3.529  0.00  0.00    -0.248 OA
ATOM     13  O   UNK A   1     -34.877  26.670   2.454  0.00  0.00    -0.248 OA
ATOM     14  C   UNK A   1     -34.464  27.463   3.345  0.00  0.00    +0.345 C 
ENDBRANCH   7  14
ENDBRANCH   6   7
ENDBRANCH   5   6
ENDBRANCH   3   5
BRANCH   2  15
ATOM     15  C   UNK A   1     -38.230  24.459   3.362  0.00  0.00    +0.159 C 
BRANCH  15  18
ATOM     16  O   UNK A   1     -36.831  23.962   1.442  0.00  0.00    -0.273 OA
ATOM     17  N   GLY A   2     -37.537  22.211   2.789  0.00  0.00    -0.294 N 
ATOM     18  C   UNK A   1     -37.447  23.545   2.421  0.00  0.00    +0.242 C 
ATOM     19  H   GLY A   2     -38.056  21.977   3.593  0.00  0.00    +0.150 HD
BRANCH  17  20
ATOM     20  CA  GLY A   2     -36.903  21.151   2.042  0.00  0.00    +0.205 C 
BRANCH  20  23
ATOM     21  O   GLY A   2     -35.358  20.711   3.763  0.00  0.00    -0.244 OA
ATOM     22  OXT GLY A   2     -34.607  20.863   1.607  0.00  0.00    -0.244 OA
ATOM     23  C   GLY A   2     -35.483  20.884   2.518  0.00  0.00    +0.385 C 
ENDBRANCH  20  23
ENDBRANCH  17  20
ENDBRANCH  15  18
BRANCH  15  24
ATOM     24  C   UNK A   1     -39.311  25.277   2.651  0.00  0.00    +0.082 C 
BRANCH  24  25
ATOM     25  S   UNK A   1     -40.433  24.276   1.622  0.00  0.00    -0.166 S 
ATOM     26  H   UNK A   1     -41.225  23.513   2.423  0.00  0.00    +0.102 HD
ENDBRANCH  24  25
ENDBRANCH  15  24
ENDBRANCH   2  15
TORSDOF 11
ENDMDL
MODEL 5
REMARK VINA RESULT:      -5.1      4.235      8.255
REMARK  Name = 20756463
REMARK  11 active torsions:
REMARK  status: ('A' for Active; 'I' for Inactive)
REMARK    1  A    between atoms: N_2  and  C_15
REMARK    2  A    between atoms: C_3  and  C_5
REMARK    3  A    between atoms: C_5  and  C_6
REMARK    4  A    between atoms: C_6  and  C_7
REMARK    5  A    between atoms: C_7  and  N_8
REMARK    6  A    between atoms: C_7  and  C_14
REMARK    7  A    between atoms: C_15  and  C_18
REMARK    8  A    between atoms: C_15  and  C_24
REMARK    9  A    between atoms: N_17  and  CA_20
REMARK   10  A    between atoms: CA_20  and  C_23
REMARK   11  A    between atoms: C_24  and  S_25
REMARK                            x       y       z     vdW  Elec       q    Type
REMARK                         _______ _______ _______ _____ _____    ______ ____
ROOT
ATOM      1  O   UNK A   1     -33.539  25.901   3.586  0.00  0.00    -0.275 OA
ATOM      2  N   UNK A   1     -33.282  27.347   5.387  0.00  0.00    -0.298 N 
ATOM      3  C   UNK A   1     -33.853  26.279   4.711  0.00  0.00    +0.223 C 
ATOM      4  H   UNK A   1     -33.612  27.561   6.289  0.00  0.00    +0.150 HD
ENDROOT
BRANCH   3   5
ATOM      5  C   UNK A   1     -34.934  25.608   5.543  0.00  0.00    +0.083 C 
BRANCH   5   6
ATOM      6  C   UNK A   1     -34.743  24.091   5.630  0.00  0.00    -0.001 C 
BRANCH   6   7
ATOM      7  C   UNK A   1     -35.995  23.273   5.289  0.00  0.00    +0.041 C 
BRANCH   7   8
ATOM      8  N   UNK A   1     -35.958  22.026   6.117  0.00  0.00    +0.389 N 
ATOM      9  H   UNK A   1     -36.658  21.369   5.774  0.00  0.00    -0.088 HD
ATOM     10  H   UNK A   1     -36.157  22.259   7.090  0.00  0.00    -0.088 HD
ATOM     11  H   UNK A   1     -35.032  21.602   6.052  0.00  0.00    -0.088 HD
ENDBRANCH   7   8
BRANCH   7  14
ATOM     12  O   UNK A   1     -35.197  22.925   3.084  0.00  0.00    -0.248 OA
ATOM     13  O   UNK A   1     -37.452  22.986   3.430  0.00  0.00    -0.248 OA
ATOM     14  C   UNK A   1     -36.242  23.029   3.790  0.00  0.00    +0.345 C 
ENDBRANCH   7  14
ENDBRANCH   6   7
ENDBRANCH   5   6
ENDBRANCH   3   5
BRANCH   2  15
ATOM     15  C   UNK A   1     -32.223  28.161   4.832  0.00  0.00    +0.159 C 
BRANCH  15  18
ATOM     16  O   UNK A   1     -31.858  29.139   7.023  0.00  0.00    -0.273 OA
ATOM     17  N   GLY A   2     -30.019  28.701   5.678  0.00  0.00    -0.294 N 
ATOM     18  C   UNK A   1     -31.375  28.715   5.976  0.00  0.00    +0.242 C 
ATOM     19  H   GLY A   2     -29.730  28.338   4.810  0.00  0.00    +0.150 HD
BRANCH  17  20
ATOM     20  CA  GLY A   2     -29.016  29.196   6.591  0.00  0.00    +0.205 C 
BRANCH  20  23
ATOM     21  O   GLY A   2     -27.495  28.434   8.218  0.00  0.00    -0.244 OA
ATOM     22  OXT GLY A   2     -28.527  26.909   6.860  0.00  0.00    -0.244 OA
ATOM     23  C   GLY A   2     -28.271  28.069   7.291  0.00  0.00    +0.385 C 
ENDBRANCH  20  23
ENDBRANCH  17  20
ENDBRANCH  15  18
BRANCH  15  24
ATOM     24  C   UNK A   1     -32.754  29.245   3.891  0.00  0.00    +0.082 C 
BRANCH  24  25
ATOM     25  S   UNK A   1     -32.162  29.085   2.176  0.00  0.00    -0.166 S 
ATOM     26  H   UNK A   1     -33.203  28.759   1.364  0.00  0.00    +0.102 HD
ENDBRANCH  24  25
ENDBRANCH  15  24
ENDBRANCH   2  15
TORSDOF 11
ENDMDL
MODEL 6
REMARK VINA RESULT:      -5.1      3.467      5.643
REMARK  Name = 20756463
REMARK  11 active torsions:
REMARK  status: ('A' for Active; 'I' for Inactive)
REMARK    1  A    between atoms: N_2  and  C_15
REMARK    2  A    between atoms: C_3  and  C_5
REMARK    3  A    between atoms: C_5  and  C_6
REMARK    4  A    between atoms: C_6  and  C_7
REMARK    5  A    between atoms: C_7  and  N_8
REMARK    6  A    between atoms: C_7  and  C_14
REMARK    7  A    between atoms: C_15  and  C_18
REMARK    8  A    between atoms: C_15  and  C_24
REMARK    9  A    between atoms: N_17  and  CA_20
REMARK   10  A    between atoms: CA_20  and  C_23
REMARK   11  A    between atoms: C_24  and  S_25
REMARK                            x       y       z     vdW  Elec       q    Type
REMARK                         _______ _______ _______ _____ _____    ______ ____
ROOT
ATOM      1  O   UNK A   1     -37.524  26.416   2.172  0.00  0.00    -0.275 OA
ATOM      2  N   UNK A   1     -37.786  25.052   4.035  0.00  0.00    -0.298 N 
ATOM      3  C   UNK A   1     -38.239  25.812   2.967  0.00  0.00    +0.223 C 
ATOM      4  H   UNK A   1     -38.452  24.608   4.609  0.00  0.00    +0.150 HD
ENDROOT
BRANCH   3   5
ATOM      5  C   UNK A   1     -39.757  25.808   2.885  0.00  0.00    +0.083 C 
BRANCH   5   6
ATOM      6  C   UNK A   1     -40.339  24.393   2.962  0.00  0.00    -0.001 C 
BRANCH   6   7
ATOM      7  C   UNK A   1     -40.158  23.561   1.686  0.00  0.00    +0.041 C 
BRANCH   7   8
ATOM      8  N   UNK A   1     -41.447  23.615   0.926  0.00  0.00    +0.389 N 
ATOM      9  H   UNK A   1     -41.987  24.424   1.230  0.00  0.00    -0.088 HD
ATOM     10  H   UNK A   1     -41.981  22.764   1.103  0.00  0.00    -0.088 HD
ATOM     11  H   UNK A   1     -41.250  23.691  -0.072  0.00  0.00    -0.088 HD
ENDBRANCH   7   8
BRANCH   7  14
ATOM     12  O   UNK A   1     -38.467  22.083   2.443  0.00  0.00    -0.248 OA
ATOM     13  O   UNK A   1     -40.330  21.198   1.467  0.00  0.00    -0.248 OA
ATOM     14  C   UNK A   1     -39.604  22.140   1.892  0.00  0.00    +0.345 C 
ENDBRANCH   7  14
ENDBRANCH   6   7
ENDBRANCH   5   6
ENDBRANCH   3   5
BRANCH   2  15
ATOM     15  C   UNK A   1     -36.386  24.876   4.345  0.00  0.00    +0.159 C 
BRANCH  15  18
ATOM     16  O   UNK A   1     -36.239  22.866   5.698  0.00  0.00    -0.273 OA
ATOM     17  N   GLY A   2     -35.700  22.735   3.445  0.00  0.00    -0.294 N 
ATOM     18  C   UNK A   1     -36.116  23.393   4.594  0.00  0.00    +0.242 C 
ATOM     19  H   GLY A   2     -35.633  23.246   2.606  0.00  0.00    +0.150 HD
BRANCH  17  20
ATOM     20  CA  GLY A   2     -35.361  21.332   3.430  0.00  0.00    +0.205 C 
BRANCH  20  23
ATOM     21  O   GLY A   2     -36.104  19.857   1.753  0.00  0.00    -0.244 OA
ATOM     22  OXT GLY A   2     -34.401  21.308   1.281  0.00  0.00    -0.244 OA
ATOM     23  C   GLY A   2     -35.280  20.776   2.016  0.00  0.00    +0.385 C 
ENDBRANCH  20  23
ENDBRANCH  17  20
ENDBRANCH  15  18
BRANCH  15  24
ATOM     24  C   UNK A   1     -35.927  25.777   5.495  0.00  0.00    +0.082 C 
BRANCH  24  25
ATOM     25  S   UNK A   1     -34.123  26.023   5.561  0.00  0.00    -0.166 S 
ATOM     26  H   UNK A   1     -33.640  25.536   6.737  0.00  0.00    +0.102 HD
ENDBRANCH  24  25
ENDBRANCH  15  24
ENDBRANCH   2  15
TORSDOF 11
ENDMDL
MODEL 7
REMARK VINA RESULT:      -5.1      3.766      6.561
REMARK  Name = 20756463
REMARK  11 active torsions:
REMARK  status: ('A' for Active; 'I' for Inactive)
REMARK    1  A    between atoms: N_2  and  C_15
REMARK    2  A    between atoms: C_3  and  C_5
REMARK    3  A    between atoms: C_5  and  C_6
REMARK    4  A    between atoms: C_6  and  C_7
REMARK    5  A    between atoms: C_7  and  N_8
REMARK    6  A    between atoms: C_7  and  C_14
REMARK    7  A    between atoms: C_15  and  C_18
REMARK    8  A    between atoms: C_15  and  C_24
REMARK    9  A    between atoms: N_17  and  CA_20
REMARK   10  A    between atoms: CA_20  and  C_23
REMARK   11  A    between atoms: C_24  and  S_25
REMARK                            x       y       z     vdW  Elec       q    Type
REMARK                         _______ _______ _______ _____ _____    ______ ____
ROOT
ATOM      1  O   UNK A   1     -33.823  27.411   4.870  0.00  0.00    -0.275 OA
ATOM      2  N   UNK A   1     -35.301  26.309   3.455  0.00  0.00    -0.298 N 
ATOM      3  C   UNK A   1     -34.476  26.417   4.565  0.00  0.00    +0.223 C 
ATOM      4  H   UNK A   1     -35.780  25.461   3.308  0.00  0.00    +0.150 HD
ENDROOT
BRANCH   3   5
ATOM      5  C   UNK A   1     -34.477  25.137   5.385  0.00  0.00    +0.083 C 
BRANCH   5   6
ATOM      6  C   UNK A   1     -35.797  24.369   5.263  0.00  0.00    -0.001 C 
BRANCH   6   7
ATOM      7  C   UNK A   1     -35.666  22.976   4.636  0.00  0.00    +0.041 C 
BRANCH   7   8
ATOM      8  N   UNK A   1     -36.897  22.731   3.820  0.00  0.00    +0.389 N 
ATOM      9  H   UNK A   1     -37.657  23.316   4.168  0.00  0.00    -0.088 HD
ATOM     10  H   UNK A   1     -37.164  21.749   3.893  0.00  0.00    -0.088 HD
ATOM     11  H   UNK A   1     -36.710  22.960   2.844  0.00  0.00    -0.088 HD
ENDBRANCH   7   8
BRANCH   7  14
ATOM     12  O   UNK A   1     -35.019  20.736   5.064  0.00  0.00    -0.248 OA
ATOM     13  O   UNK A   1     -35.392  22.121   6.839  0.00  0.00    -0.248 OA
ATOM     14  C   UNK A   1     -35.317  21.838   5.611  0.00  0.00    +0.345 C 
ENDBRANCH   7  14
ENDBRANCH   6   7
ENDBRANCH   5   6
ENDBRANCH   3   5
BRANCH   2  15
ATOM     15  C   UNK A   1     -35.494  27.380   2.504  0.00  0.00    +0.159 C 
BRANCH  15  18
ATOM     16  O   UNK A   1     -37.409  28.115   1.205  0.00  0.00    -0.273 OA
ATOM     17  N   GLY A   2     -37.420  25.971   2.091  0.00  0.00    -0.294 N 
ATOM     18  C   UNK A   1     -36.866  27.220   1.850  0.00  0.00    +0.242 C 
ATOM     19  H   GLY A   2     -36.905  25.319   2.620  0.00  0.00    +0.150 HD
BRANCH  17  20
ATOM     20  CA  GLY A   2     -38.722  25.587   1.598  0.00  0.00    +0.205 C 
BRANCH  20  23
ATOM     21  O   GLY A   2     -40.885  25.401   2.508  0.00  0.00    -0.244 OA
ATOM     22  OXT GLY A   2     -39.099  24.647   3.723  0.00  0.00    -0.244 OA
ATOM     23  C   GLY A   2     -39.661  25.173   2.721  0.00  0.00    +0.385 C 
ENDBRANCH  20  23
ENDBRANCH  17  20
ENDBRANCH  15  18
BRANCH  15  24
ATOM     24  C   UNK A   1     -34.349  27.474   1.492  0.00  0.00    +0.082 C 
BRANCH  24  25
ATOM     25  S   UNK A   1     -33.627  29.141   1.352  0.00  0.00    -0.166 S 
ATOM     26  H   UNK A   1     -32.376  29.051   0.824  0.00  0.00    +0.102 HD
ENDBRANCH  24  25
ENDBRANCH  15  24
ENDBRANCH   2  15
TORSDOF 11
ENDMDL
MODEL 8
REMARK VINA RESULT:      -5.0      1.608      2.681
REMARK  Name = 20756463
REMARK  11 active torsions:
REMARK  status: ('A' for Active; 'I' for Inactive)
REMARK    1  A    between atoms: N_2  and  C_15
REMARK    2  A    between atoms: C_3  and  C_5
REMARK    3  A    between atoms: C_5  and  C_6
REMARK    4  A    between atoms: C_6  and  C_7
REMARK    5  A    between atoms: C_7  and  N_8
REMARK    6  A    between atoms: C_7  and  C_14
REMARK    7  A    between atoms: C_15  and  C_18
REMARK    8  A    between atoms: C_15  and  C_24
REMARK    9  A    between atoms: N_17  and  CA_20
REMARK   10  A    between atoms: CA_20  and  C_23
REMARK   11  A    between atoms: C_24  and  S_25
REMARK                            x       y       z     vdW  Elec       q    Type
REMARK                         _______ _______ _______ _____ _____    ______ ____
ROOT
ATOM      1  O   UNK A   1     -35.064  20.641   5.133  0.00  0.00    -0.275 OA
ATOM      2  N   UNK A   1     -36.034  22.029   3.541  0.00  0.00    -0.298 N 
ATOM      3  C   UNK A   1     -35.450  21.748   4.767  0.00  0.00    +0.223 C 
ATOM      4  H   UNK A   1     -36.305  22.957   3.353  0.00  0.00    +0.150 HD
ENDROOT
BRANCH   3   5
ATOM      5  C   UNK A   1     -35.331  22.997   5.626  0.00  0.00    +0.083 C 
BRANCH   5   6
ATOM      6  C   UNK A   1     -35.439  24.283   4.800  0.00  0.00    -0.001 C 
BRANCH   6   7
ATOM      7  C   UNK A   1     -35.208  25.572   5.599  0.00  0.00    +0.041 C 
BRANCH   7   8
ATOM      8  N   UNK A   1     -36.358  26.488   5.317  0.00  0.00    +0.389 N 
ATOM      9  H   UNK A   1     -36.180  27.002   4.455  0.00  0.00    -0.088 HD
ATOM     10  H   UNK A   1     -36.464  27.147   6.089  0.00  0.00    -0.088 HD
ATOM     11  H   UNK A   1     -37.212  25.941   5.218  0.00  0.00    -0.088 HD
ENDBRANCH   7   8
BRANCH   7  14
ATOM     12  O   UNK A   1     -33.430  26.914   6.408  0.00  0.00    -0.248 OA
ATOM     13  O   UNK A   1     -33.252  26.015   4.319  0.00  0.00    -0.248 OA
ATOM     14  C   UNK A   1     -33.824  26.222   5.425  0.00  0.00    +0.345 C 
ENDBRANCH   7  14
ENDBRANCH   6   7
ENDBRANCH   5   6
ENDBRANCH   3   5
BRANCH   2  15
ATOM     15  C   UNK A   1     -36.263  21.027   2.524  0.00  0.00    +0.159 C 
BRANCH  15  18
ATOM     16  O   UNK A   1     -34.310  19.727   1.902  0.00  0.00    -0.273 OA
ATOM     17  N   GLY A   2     -34.578  21.843   0.988  0.00  0.00    -0.294 N 
ATOM     18  C   UNK A   1     -34.954  20.768   1.781  0.00  0.00    +0.242 C 
ATOM     19  H   GLY A   2     -35.164  22.634   0.957  0.00  0.00    +0.150 HD
BRANCH  17  20
ATOM     20  CA  GLY A   2     -33.365  21.848   0.206  0.00  0.00    +0.205 C 
BRANCH  20  23
ATOM     21  O   GLY A   2     -31.816  23.550  -0.288  0.00  0.00    -0.244 OA
ATOM     22  OXT GLY A   2     -34.027  23.886  -0.768  0.00  0.00    -0.244 OA
ATOM     23  C   GLY A   2     -33.037  23.232  -0.335  0.00  0.00    +0.385 C 
ENDBRANCH  20  23
ENDBRANCH  17  20
ENDBRANCH  15  18
BRANCH  15  24
ATOM     24  C   UNK A   1     -37.424  21.395   1.596  0.00  0.00    +0.082 C 
BRANCH  24  25
ATOM     25  S   UNK A   1     -38.596  22.587   2.320  0.00  0.00    -0.166 S 
ATOM     26  H   UNK A   1     -39.118  23.366   1.334  0.00  0.00    +0.102 HD
ENDBRANCH  24  25
ENDBRANCH  15  24
ENDBRANCH   2  15
TORSDOF 11
ENDMDL
MODEL 9
REMARK VINA RESULT:      -5.0      3.981      7.867
REMARK  Name = 20756463
REMARK  11 active torsions:
REMARK  status: ('A' for Active; 'I' for Inactive)
REMARK    1  A    between atoms: N_2  and  C_15
REMARK    2  A    between atoms: C_3  and  C_5
REMARK    3  A    between atoms: C_5  and  C_6
REMARK    4  A    between atoms: C_6  and  C_7
REMARK    5  A    between atoms: C_7  and  N_8
REMARK    6  A    between atoms: C_7  and  C_14
REMARK    7  A    between atoms: C_15  and  C_18
REMARK    8  A    between atoms: C_15  and  C_24
REMARK    9  A    between atoms: N_17  and  CA_20
REMARK   10  A    between atoms: CA_20  and  C_23
REMARK   11  A    between atoms: C_24  and  S_25
REMARK                            x       y       z     vdW  Elec       q    Type
REMARK                         _______ _______ _______ _____ _____    ______ ____
ROOT
ATOM      1  O   UNK A   1     -33.273  26.106   4.002  0.00  0.00    -0.275 OA
ATOM      2  N   UNK A   1     -34.840  27.812   3.819  0.00  0.00    -0.298 N 
ATOM      3  C   UNK A   1     -34.375  26.582   4.260  0.00  0.00    +0.223 C 
ATOM      4  H   UNK A   1     -35.743  28.096   4.090  0.00  0.00    +0.150 HD
ENDROOT
BRANCH   3   5
ATOM      5  C   UNK A   1     -35.405  25.875   5.125  0.00  0.00    +0.083 C 
BRANCH   5   6
ATOM      6  C   UNK A   1     -34.922  24.501   5.599  0.00  0.00    -0.001 C 
BRANCH   6   7
ATOM      7  C   UNK A   1     -35.492  23.319   4.804  0.00  0.00    +0.041 C 
BRANCH   7   8
ATOM      8  N   UNK A   1     -36.818  23.744   4.253  0.00  0.00    +0.389 N 
ATOM      9  H   UNK A   1     -36.938  23.356   3.318  0.00  0.00    -0.088 HD
ATOM     10  H   UNK A   1     -36.855  24.762   4.206  0.00  0.00    -0.088 HD
ATOM     11  H   UNK A   1     -37.563  23.405   4.861  0.00  0.00    -0.088 HD
ENDBRANCH   7   8
BRANCH   7  14
ATOM     12  O   UNK A   1     -35.054  20.991   4.892  0.00  0.00    -0.248 OA
ATOM     13  O   UNK A   1     -36.020  21.987   6.703  0.00  0.00    -0.248 OA
ATOM     14  C   UNK A   1     -35.518  21.971   5.545  0.00  0.00    +0.345 C 
ENDBRANCH   7  14
ENDBRANCH   6   7
ENDBRANCH   5   6
ENDBRANCH   3   5
BRANCH   2  15
ATOM     15  C   UNK A   1     -34.062  28.701   2.985  0.00  0.00    +0.159 C 
BRANCH  15  18
ATOM     16  O   UNK A   1     -33.375  30.534   4.419  0.00  0.00    -0.273 OA
ATOM     17  N   GLY A   2     -31.842  28.861   3.939  0.00  0.00    -0.294 N 
ATOM     18  C   UNK A   1     -33.084  29.477   3.865  0.00  0.00    +0.242 C 
ATOM     19  H   GLY A   2     -31.707  28.012   3.459  0.00  0.00    +0.150 HD
BRANCH  17  20
ATOM     20  CA  GLY A   2     -30.741  29.414   4.691  0.00  0.00    +0.205 C 
BRANCH  20  23
ATOM     21  O   GLY A   2     -31.235  29.618   6.984  0.00  0.00    -0.244 OA
ATOM     22  OXT GLY A   2     -30.121  27.761   6.248  0.00  0.00    -0.244 OA
ATOM     23  C   GLY A   2     -30.693  28.880   6.115  0.00  0.00    +0.385 C 
ENDBRANCH  20  23
ENDBRANCH  17  20
ENDBRANCH  15  18
BRANCH  15  24
ATOM     24  C   UNK A   1     -34.943  29.604   2.117  0.00  0.00    +0.082 C 
BRANCH  24  25
ATOM     25  S   UNK A   1     -34.094  30.267   0.648  0.00  0.00    -0.166 S 
ATOM     26  H   UNK A   1     -34.931  30.213  -0.423  0.00  0.00    +0.102 HD
ENDBRANCH  24  25
ENDBRANCH  15  24
ENDBRANCH   2  15
TORSDOF 11
ENDMDL
