MODEL 1
REMARK VINA RESULT:      -6.6      0.000      0.000
REMARK  Name = 189176
REMARK  8 active torsions:
REMARK  status: ('A' for Active; 'I' for Inactive)
REMARK    1  A    between atoms: N_3  and  C_20
REMARK    2  A    between atoms: C_20  and  C_21
REMARK    3  A    between atoms: C_21  and  O_22
REMARK    4  A    between atoms: C_21  and  C_24
REMARK    5  A    between atoms: C_24  and  O_25
REMARK    6  A    between atoms: C_24  and  C_27
REMARK    7  A    between atoms: C_27  and  O_28
REMARK    8  A    between atoms: C_27  and  C_31
REMARK                            x       y       z     vdW  Elec       q    Type
REMARK                         _______ _______ _______ _____ _____    ______ ____
ROOT
ATOM      1  O   UNL     1     -40.657  21.000   0.869  0.00  0.00    -0.266 OA
ATOM      2  O   UNL     1     -39.865  24.915   3.143  0.00  0.00    -0.193 OA
ATOM      3  N   UNL     1     -36.171  22.241   2.174  0.00  0.00    -0.270 N 
ATOM      4  N   UNL     1     -38.013  20.474   0.945  0.00  0.00    -0.396 NA
ATOM      5  N   UNL     1     -38.058  23.614   2.673  0.00  0.00    -0.303 NA
ATOM      6  N   UNL     1     -40.278  22.987   2.020  0.00  0.00    -0.196 N 
ATOM      7  C   UNL     1     -35.704  21.048   1.581  0.00  0.00    +0.150 C 
ATOM      8  C   UNL     1     -37.527  22.545   2.156  0.00  0.00    +0.232 C 
ATOM      9  C   UNL     1     -36.639  20.185   0.976  0.00  0.00    +0.131 C 
ATOM     10  C   UNL     1     -34.348  20.668   1.560  0.00  0.00    -0.004 C 
ATOM     11  C   UNL     1     -38.449  21.564   1.486  0.00  0.00    +0.230 C 
ATOM     12  C   UNL     1     -33.936  19.476   0.959  0.00  0.00    -0.028 C 
ATOM     13  C   UNL     1     -34.869  18.635   0.366  0.00  0.00    -0.024 C 
ATOM     14  C   UNL     1     -36.215  18.989   0.375  0.00  0.00    +0.025 C 
ATOM     15  C   UNL     1     -39.922  21.804   1.416  0.00  0.00    +0.293 C 
ATOM     16  C   UNL     1     -32.484  19.125   0.967  0.00  0.00    +0.030 C 
ATOM     17  C   UNL     1     -34.456  17.355  -0.281  0.00  0.00    +0.031 C 
ATOM     18  C   UNL     1     -39.408  23.888   2.637  0.00  0.00    +0.273 C 
ATOM     19  H   UNL     1     -41.234  23.220   2.017  0.00  0.00    +0.169 HD
ENDROOT
BRANCH   3  20
ATOM     20  C   UNL     1     -35.193  23.129   2.799  0.00  0.00    +0.126 C 
BRANCH  20  21
ATOM     21  C   UNL     1     -35.199  22.940   4.322  0.00  0.00    +0.160 C 
BRANCH  21  22
ATOM     22  O   UNL     1     -36.312  22.125   4.683  0.00  0.00    -0.380 OA
ATOM     23  H   UNL     1     -35.998  21.338   5.154  0.00  0.00    +0.211 HD
ENDBRANCH  21  22
BRANCH  21  24
ATOM     24  C   UNL     1     -35.317  24.285   5.059  0.00  0.00    +0.173 C 
BRANCH  24  25
ATOM     25  O   UNL     1     -36.688  24.688   5.061  0.00  0.00    -0.379 OA
ATOM     26  H   UNL     1     -37.052  24.593   5.955  0.00  0.00    +0.211 HD
ENDBRANCH  24  25
BRANCH  24  27
ATOM     27  C   UNL     1     -34.451  25.409   4.472  0.00  0.00    +0.205 C 
BRANCH  27  28
ATOM     28  O   UNL     1     -33.538  25.842   5.470  0.00  0.00    -0.375 OA
ATOM     29  H   UNL     1     -32.678  25.415   5.329  0.00  0.00    +0.211 HD
ENDBRANCH  27  28
BRANCH  27  31
ATOM     30  O   UNL     1     -35.949  26.625   2.998  0.00  0.00    -0.286 OA
ATOM     31  C   UNL     1     -35.274  26.600   4.022  0.00  0.00    +0.239 C 
ENDBRANCH  27  31
ENDBRANCH  24  27
ENDBRANCH  21  24
ENDBRANCH  20  21
ENDBRANCH   3  20
TORSDOF 8
ENDMDL
MODEL 2
REMARK VINA RESULT:      -6.1      2.593      4.016
REMARK  Name = 189176
REMARK  8 active torsions:
REMARK  status: ('A' for Active; 'I' for Inactive)
REMARK    1  A    between atoms: N_3  and  C_20
REMARK    2  A    between atoms: C_20  and  C_21
REMARK    3  A    between atoms: C_21  and  O_22
REMARK    4  A    between atoms: C_21  and  C_24
REMARK    5  A    between atoms: C_24  and  O_25
REMARK    6  A    between atoms: C_24  and  C_27
REMARK    7  A    between atoms: C_27  and  O_28
REMARK    8  A    between atoms: C_27  and  C_31
REMARK                            x       y       z     vdW  Elec       q    Type
REMARK                         _______ _______ _______ _____ _____    ______ ____
ROOT
ATOM      1  O   UNL     1     -33.686  27.046  -1.322  0.00  0.00    -0.266 OA
ATOM      2  O   UNL     1     -37.133  28.238   1.474  0.00  0.00    -0.193 OA
ATOM      3  N   UNL     1     -35.682  23.812   1.665  0.00  0.00    -0.270 N 
ATOM      4  N   UNL     1     -33.811  24.540  -0.334  0.00  0.00    -0.396 NA
ATOM      5  N   UNL     1     -36.429  26.076   1.572  0.00  0.00    -0.303 NA
ATOM      6  N   UNL     1     -35.431  27.671   0.086  0.00  0.00    -0.196 N 
ATOM      7  C   UNL     1     -34.784  22.844   1.164  0.00  0.00    +0.150 C 
ATOM      8  C   UNL     1     -35.648  25.113   1.179  0.00  0.00    +0.232 C 
ATOM      9  C   UNL     1     -33.862  23.230   0.170  0.00  0.00    +0.131 C 
ATOM     10  C   UNL     1     -34.756  21.507   1.603  0.00  0.00    -0.004 C 
ATOM     11  C   UNL     1     -34.629  25.432   0.119  0.00  0.00    +0.230 C 
ATOM     12  C   UNL     1     -33.847  20.586   1.076  0.00  0.00    -0.028 C 
ATOM     13  C   UNL     1     -32.945  20.981   0.097  0.00  0.00    -0.024 C 
ATOM     14  C   UNL     1     -32.953  22.298  -0.354  0.00  0.00    +0.025 C 
ATOM     15  C   UNL     1     -34.516  26.803  -0.464  0.00  0.00    +0.293 C 
ATOM     16  C   UNL     1     -33.865  19.180   1.580  0.00  0.00    +0.030 C 
ATOM     17  C   UNL     1     -31.964  20.018  -0.485  0.00  0.00    +0.031 C 
ATOM     18  C   UNL     1     -36.370  27.359   1.070  0.00  0.00    +0.273 C 
ATOM     19  H   UNL     1     -35.422  28.597  -0.246  0.00  0.00    +0.169 HD
ENDROOT
BRANCH   3  20
ATOM     20  C   UNL     1     -36.633  23.402   2.696  0.00  0.00    +0.126 C 
BRANCH  20  21
ATOM     21  C   UNL     1     -35.989  23.500   4.085  0.00  0.00    +0.160 C 
BRANCH  21  22
ATOM     22  O   UNL     1     -36.287  22.312   4.818  0.00  0.00    -0.380 OA
ATOM     23  H   UNL     1     -37.007  22.490   5.442  0.00  0.00    +0.211 HD
ENDBRANCH  21  22
BRANCH  21  24
ATOM     24  C   UNL     1     -36.523  24.708   4.873  0.00  0.00    +0.173 C 
BRANCH  24  25
ATOM     25  O   UNL     1     -37.625  25.272   4.159  0.00  0.00    -0.379 OA
ATOM     26  H   UNL     1     -37.956  26.049   4.636  0.00  0.00    +0.211 HD
ENDBRANCH  24  25
BRANCH  24  27
ATOM     27  C   UNL     1     -35.477  25.798   5.149  0.00  0.00    +0.205 C 
BRANCH  27  28
ATOM     28  O   UNL     1     -35.902  26.998   4.521  0.00  0.00    -0.375 OA
ATOM     29  H   UNL     1     -35.204  27.669   4.598  0.00  0.00    +0.211 HD
ENDBRANCH  27  28
BRANCH  27  31
ATOM     30  O   UNL     1     -33.088  26.085   4.825  0.00  0.00    -0.286 OA
ATOM     31  C   UNL     1     -34.106  25.433   4.615  0.00  0.00    +0.239 C 
ENDBRANCH  27  31
ENDBRANCH  24  27
ENDBRANCH  21  24
ENDBRANCH  20  21
ENDBRANCH   3  20
TORSDOF 8
ENDMDL
MODEL 3
REMARK VINA RESULT:      -6.1      2.196      5.036
REMARK  Name = 189176
REMARK  8 active torsions:
REMARK  status: ('A' for Active; 'I' for Inactive)
REMARK    1  A    between atoms: N_3  and  C_20
REMARK    2  A    between atoms: C_20  and  C_21
REMARK    3  A    between atoms: C_21  and  O_22
REMARK    4  A    between atoms: C_21  and  C_24
REMARK    5  A    between atoms: C_24  and  O_25
REMARK    6  A    between atoms: C_24  and  C_27
REMARK    7  A    between atoms: C_27  and  O_28
REMARK    8  A    between atoms: C_27  and  C_31
REMARK                            x       y       z     vdW  Elec       q    Type
REMARK                         _______ _______ _______ _____ _____    ______ ____
ROOT
ATOM      1  O   UNL     1     -34.448  22.044   5.621  0.00  0.00    -0.266 OA
ATOM      2  O   UNL     1     -36.257  26.267   5.759  0.00  0.00    -0.193 OA
ATOM      3  N   UNL     1     -37.573  23.511   2.237  0.00  0.00    -0.270 N 
ATOM      4  N   UNL     1     -35.861  21.562   3.375  0.00  0.00    -0.396 NA
ATOM      5  N   UNL     1     -36.903  24.927   4.038  0.00  0.00    -0.303 NA
ATOM      6  N   UNL     1     -35.352  24.187   5.710  0.00  0.00    -0.196 N 
ATOM      7  C   UNL     1     -37.448  22.247   1.620  0.00  0.00    +0.150 C 
ATOM      8  C   UNL     1     -36.859  23.797   3.395  0.00  0.00    +0.232 C 
ATOM      9  C   UNL     1     -36.590  21.294   2.206  0.00  0.00    +0.131 C 
ATOM     10  C   UNL     1     -38.134  21.882   0.447  0.00  0.00    -0.004 C 
ATOM     11  C   UNL     1     -35.969  22.716   3.946  0.00  0.00    +0.230 C 
ATOM     12  C   UNL     1     -37.977  20.616  -0.125  0.00  0.00    -0.028 C 
ATOM     13  C   UNL     1     -37.128  19.688   0.463  0.00  0.00    -0.024 C 
ATOM     14  C   UNL     1     -36.438  20.025   1.623  0.00  0.00    +0.025 C 
ATOM     15  C   UNL     1     -35.164  22.929   5.186  0.00  0.00    +0.293 C 
ATOM     16  C   UNL     1     -38.731  20.286  -1.371  0.00  0.00    +0.030 C 
ATOM     17  C   UNL     1     -36.940  18.330  -0.128  0.00  0.00    +0.031 C 
ATOM     18  C   UNL     1     -36.183  25.179   5.185  0.00  0.00    +0.273 C 
ATOM     19  H   UNL     1     -34.855  24.408   6.530  0.00  0.00    +0.169 HD
ENDROOT
BRANCH   3  20
ATOM     20  C   UNL     1     -38.464  24.493   1.623  0.00  0.00    +0.126 C 
BRANCH  20  21
ATOM     21  C   UNL     1     -39.821  24.501   2.338  0.00  0.00    +0.160 C 
BRANCH  21  22
ATOM     22  O   UNL     1     -40.766  23.783   1.547  0.00  0.00    -0.380 OA
ATOM     23  H   UNL     1     -40.854  24.211   0.681  0.00  0.00    +0.211 HD
ENDBRANCH  21  22
BRANCH  21  24
ATOM     24  C   UNL     1     -40.344  25.933   2.545  0.00  0.00    +0.173 C 
BRANCH  24  25
ATOM     25  O   UNL     1     -39.559  26.567   3.557  0.00  0.00    -0.379 OA
ATOM     26  H   UNL     1     -40.015  26.499   4.410  0.00  0.00    +0.211 HD
ENDBRANCH  24  25
BRANCH  24  27
ATOM     27  C   UNL     1     -41.831  26.016   2.921  0.00  0.00    +0.205 C 
BRANCH  27  28
ATOM     28  O   UNL     1     -42.594  26.079   1.725  0.00  0.00    -0.375 OA
ATOM     29  H   UNL     1     -42.351  25.339   1.146  0.00  0.00    +0.211 HD
ENDBRANCH  27  28
BRANCH  27  31
ATOM     30  O   UNL     1     -41.932  28.393   3.407  0.00  0.00    -0.286 OA
ATOM     31  C   UNL     1     -42.149  27.238   3.760  0.00  0.00    +0.239 C 
ENDBRANCH  27  31
ENDBRANCH  24  27
ENDBRANCH  21  24
ENDBRANCH  20  21
ENDBRANCH   3  20
TORSDOF 8
ENDMDL
MODEL 4
REMARK VINA RESULT:      -6.0      2.562      5.619
REMARK  Name = 189176
REMARK  8 active torsions:
REMARK  status: ('A' for Active; 'I' for Inactive)
REMARK    1  A    between atoms: N_3  and  C_20
REMARK    2  A    between atoms: C_20  and  C_21
REMARK    3  A    between atoms: C_21  and  O_22
REMARK    4  A    between atoms: C_21  and  C_24
REMARK    5  A    between atoms: C_24  and  O_25
REMARK    6  A    between atoms: C_24  and  C_27
REMARK    7  A    between atoms: C_27  and  O_28
REMARK    8  A    between atoms: C_27  and  C_31
REMARK                            x       y       z     vdW  Elec       q    Type
REMARK                         _______ _______ _______ _____ _____    ______ ____
ROOT
ATOM      1  O   UNL     1     -39.075  27.740   0.703  0.00  0.00    -0.266 OA
ATOM      2  O   UNL     1     -41.399  24.189  -1.063  0.00  0.00    -0.193 OA
ATOM      3  N   UNL     1     -38.299  23.239   2.287  0.00  0.00    -0.270 N 
ATOM      4  N   UNL     1     -37.780  26.024   2.331  0.00  0.00    -0.396 NA
ATOM      5  N   UNL     1     -39.887  23.719   0.572  0.00  0.00    -0.303 NA
ATOM      6  N   UNL     1     -40.262  25.956  -0.205  0.00  0.00    -0.196 N 
ATOM      7  C   UNL     1     -37.337  23.755   3.183  0.00  0.00    +0.150 C 
ATOM      8  C   UNL     1     -38.986  24.093   1.432  0.00  0.00    +0.232 C 
ATOM      9  C   UNL     1     -37.096  25.144   3.186  0.00  0.00    +0.131 C 
ATOM     10  C   UNL     1     -36.600  22.957   4.078  0.00  0.00    -0.004 C 
ATOM     11  C   UNL     1     -38.662  25.560   1.508  0.00  0.00    +0.230 C 
ATOM     12  C   UNL     1     -35.658  23.517   4.946  0.00  0.00    -0.028 C 
ATOM     13  C   UNL     1     -35.432  24.886   4.938  0.00  0.00    -0.024 C 
ATOM     14  C   UNL     1     -36.148  25.696   4.062  0.00  0.00    +0.025 C 
ATOM     15  C   UNL     1     -39.348  26.554   0.630  0.00  0.00    +0.293 C 
ATOM     16  C   UNL     1     -34.906  22.620   5.873  0.00  0.00    +0.030 C 
ATOM     17  C   UNL     1     -34.431  25.510   5.853  0.00  0.00    +0.031 C 
ATOM     18  C   UNL     1     -40.551  24.592  -0.263  0.00  0.00    +0.273 C 
ATOM     19  H   UNL     1     -40.758  26.545  -0.819  0.00  0.00    +0.169 HD
ENDROOT
BRANCH   3  20
ATOM     20  C   UNL     1     -38.542  21.798   2.291  0.00  0.00    +0.126 C 
BRANCH  20  21
ATOM     21  C   UNL     1     -37.957  21.156   1.026  0.00  0.00    +0.160 C 
BRANCH  21  22
ATOM     22  O   UNL     1     -38.917  20.253   0.479  0.00  0.00    -0.380 OA
ATOM     23  H   UNL     1     -38.669  19.344   0.702  0.00  0.00    +0.211 HD
ENDBRANCH  21  22
BRANCH  21  24
ATOM     24  C   UNL     1     -36.669  20.373   1.331  0.00  0.00    +0.173 C 
BRANCH  24  25
ATOM     25  O   UNL     1     -36.765  19.824   2.646  0.00  0.00    -0.379 OA
ATOM     26  H   UNL     1     -36.482  20.487   3.295  0.00  0.00    +0.211 HD
ENDBRANCH  24  25
BRANCH  24  27
ATOM     27  C   UNL     1     -35.381  21.202   1.213  0.00  0.00    +0.205 C 
BRANCH  27  28
ATOM     28  O   UNL     1     -35.496  22.054   0.083  0.00  0.00    -0.375 OA
ATOM     29  H   UNL     1     -36.280  22.617   0.181  0.00  0.00    +0.211 HD
ENDBRANCH  27  28
BRANCH  27  31
ATOM     30  O   UNL     1     -34.019  19.216   1.523  0.00  0.00    -0.286 OA
ATOM     31  C   UNL     1     -34.148  20.336   1.040  0.00  0.00    +0.239 C 
ENDBRANCH  27  31
ENDBRANCH  24  27
ENDBRANCH  21  24
ENDBRANCH  20  21
ENDBRANCH   3  20
TORSDOF 8
ENDMDL
MODEL 5
REMARK VINA RESULT:      -6.0      2.037      5.270
REMARK  Name = 189176
REMARK  8 active torsions:
REMARK  status: ('A' for Active; 'I' for Inactive)
REMARK    1  A    between atoms: N_3  and  C_20
REMARK    2  A    between atoms: C_20  and  C_21
REMARK    3  A    between atoms: C_21  and  O_22
REMARK    4  A    between atoms: C_21  and  C_24
REMARK    5  A    between atoms: C_24  and  O_25
REMARK    6  A    between atoms: C_24  and  C_27
REMARK    7  A    between atoms: C_27  and  O_28
REMARK    8  A    between atoms: C_27  and  C_31
REMARK                            x       y       z     vdW  Elec       q    Type
REMARK                         _______ _______ _______ _____ _____    ______ ____
ROOT
ATOM      1  O   UNL     1     -38.058  19.627  -0.308  0.00  0.00    -0.266 OA
ATOM      2  O   UNL     1     -34.439  19.775   2.522  0.00  0.00    -0.193 OA
ATOM      3  N   UNL     1     -37.600  23.177   2.941  0.00  0.00    -0.270 N 
ATOM      4  N   UNL     1     -38.990  21.883   0.838  0.00  0.00    -0.396 NA
ATOM      5  N   UNL     1     -35.979  21.439   2.731  0.00  0.00    -0.303 NA
ATOM      6  N   UNL     1     -36.217  19.684   1.116  0.00  0.00    -0.196 N 
ATOM      7  C   UNL     1     -38.816  23.719   2.471  0.00  0.00    +0.150 C 
ATOM      8  C   UNL     1     -37.088  22.017   2.373  0.00  0.00    +0.232 C 
ATOM      9  C   UNL     1     -39.489  23.057   1.424  0.00  0.00    +0.131 C 
ATOM     10  C   UNL     1     -39.399  24.890   2.991  0.00  0.00    -0.004 C 
ATOM     11  C   UNL     1     -37.877  21.381   1.261  0.00  0.00    +0.230 C 
ATOM     12  C   UNL     1     -40.606  25.387   2.492  0.00  0.00    -0.028 C 
ATOM     13  C   UNL     1     -41.258  24.724   1.461  0.00  0.00    -0.024 C 
ATOM     14  C   UNL     1     -40.701  23.564   0.929  0.00  0.00    +0.025 C 
ATOM     15  C   UNL     1     -37.407  20.131   0.591  0.00  0.00    +0.293 C 
ATOM     16  C   UNL     1     -41.176  26.634   3.083  0.00  0.00    +0.030 C 
ATOM     17  C   UNL     1     -42.548  25.233   0.907  0.00  0.00    +0.031 C 
ATOM     18  C   UNL     1     -35.497  20.286   2.148  0.00  0.00    +0.273 C 
ATOM     19  H   UNL     1     -35.839  18.863   0.726  0.00  0.00    +0.169 HD
ENDROOT
BRANCH   3  20
ATOM     20  C   UNL     1     -36.909  23.871   4.026  0.00  0.00    +0.126 C 
BRANCH  20  21
ATOM     21  C   UNL     1     -35.683  24.617   3.486  0.00  0.00    +0.160 C 
BRANCH  21  22
ATOM     22  O   UNL     1     -34.503  23.940   3.915  0.00  0.00    -0.380 OA
ATOM     23  H   UNL     1     -33.734  24.517   3.786  0.00  0.00    +0.211 HD
ENDBRANCH  21  22
BRANCH  21  24
ATOM     24  C   UNL     1     -35.629  26.066   4.000  0.00  0.00    +0.173 C 
BRANCH  24  25
ATOM     25  O   UNL     1     -36.886  26.388   4.598  0.00  0.00    -0.379 OA
ATOM     26  H   UNL     1     -37.273  27.154   4.146  0.00  0.00    +0.211 HD
ENDBRANCH  24  25
BRANCH  24  27
ATOM     27  C   UNL     1     -35.290  27.109   2.924  0.00  0.00    +0.205 C 
BRANCH  27  28
ATOM     28  O   UNL     1     -35.341  28.399   3.516  0.00  0.00    -0.375 OA
ATOM     29  H   UNL     1     -35.543  28.314   4.461  0.00  0.00    +0.211 HD
ENDBRANCH  27  28
BRANCH  27  31
ATOM     30  O   UNL     1     -37.457  27.320   1.850  0.00  0.00    -0.286 OA
ATOM     31  C   UNL     1     -36.259  27.075   1.759  0.00  0.00    +0.239 C 
ENDBRANCH  27  31
ENDBRANCH  24  27
ENDBRANCH  21  24
ENDBRANCH  20  21
ENDBRANCH   3  20
TORSDOF 8
ENDMDL
MODEL 6
REMARK VINA RESULT:      -5.9      4.705      7.848
REMARK  Name = 189176
REMARK  8 active torsions:
REMARK  status: ('A' for Active; 'I' for Inactive)
REMARK    1  A    between atoms: N_3  and  C_20
REMARK    2  A    between atoms: C_20  and  C_21
REMARK    3  A    between atoms: C_21  and  O_22
REMARK    4  A    between atoms: C_21  and  C_24
REMARK    5  A    between atoms: C_24  and  O_25
REMARK    6  A    between atoms: C_24  and  C_27
REMARK    7  A    between atoms: C_27  and  O_28
REMARK    8  A    between atoms: C_27  and  C_31
REMARK                            x       y       z     vdW  Elec       q    Type
REMARK                         _______ _______ _______ _____ _____    ______ ____
ROOT
ATOM      1  O   UNL     1     -31.482  28.493   6.832  0.00  0.00    -0.266 OA
ATOM      2  O   UNL     1     -31.889  31.304   3.219  0.00  0.00    -0.193 OA
ATOM      3  N   UNL     1     -34.318  27.327   3.095  0.00  0.00    -0.270 N 
ATOM      4  N   UNL     1     -33.184  26.778   5.633  0.00  0.00    -0.396 NA
ATOM      5  N   UNL     1     -33.077  29.364   3.153  0.00  0.00    -0.303 NA
ATOM      6  N   UNL     1     -31.674  29.931   5.012  0.00  0.00    -0.196 N 
ATOM      7  C   UNL     1     -34.645  26.125   3.761  0.00  0.00    +0.150 C 
ATOM      8  C   UNL     1     -33.443  28.234   3.681  0.00  0.00    +0.232 C 
ATOM      9  C   UNL     1     -34.068  25.875   5.022  0.00  0.00    +0.131 C 
ATOM     10  C   UNL     1     -35.520  25.157   3.233  0.00  0.00    -0.004 C 
ATOM     11  C   UNL     1     -32.878  27.880   5.030  0.00  0.00    +0.230 C 
ATOM     12  C   UNL     1     -35.813  23.983   3.932  0.00  0.00    -0.028 C 
ATOM     13  C   UNL     1     -35.238  23.750   5.174  0.00  0.00    -0.024 C 
ATOM     14  C   UNL     1     -34.369  24.693   5.717  0.00  0.00    +0.025 C 
ATOM     15  C   UNL     1     -31.931  28.792   5.740  0.00  0.00    +0.293 C 
ATOM     16  C   UNL     1     -36.749  22.991   3.322  0.00  0.00    +0.030 C 
ATOM     17  C   UNL     1     -35.532  22.504   5.942  0.00  0.00    +0.031 C 
ATOM     18  C   UNL     1     -32.207  30.244   3.761  0.00  0.00    +0.273 C 
ATOM     19  H   UNL     1     -31.056  30.585   5.412  0.00  0.00    +0.169 HD
ENDROOT
BRANCH   3  20
ATOM     20  C   UNL     1     -34.920  27.577   1.787  0.00  0.00    +0.126 C 
BRANCH  20  21
ATOM     21  C   UNL     1     -36.008  28.653   1.899  0.00  0.00    +0.160 C 
BRANCH  21  22
ATOM     22  O   UNL     1     -37.252  28.100   1.474  0.00  0.00    -0.380 OA
ATOM     23  H   UNL     1     -37.087  27.351   0.881  0.00  0.00    +0.211 HD
ENDBRANCH  21  22
BRANCH  21  24
ATOM     24  C   UNL     1     -35.689  29.875   1.020  0.00  0.00    +0.173 C 
BRANCH  24  25
ATOM     25  O   UNL     1     -34.346  29.763   0.547  0.00  0.00    -0.379 OA
ATOM     26  H   UNL     1     -33.850  30.561   0.789  0.00  0.00    +0.211 HD
ENDBRANCH  24  25
BRANCH  24  27
ATOM     27  C   UNL     1     -35.876  31.227   1.723  0.00  0.00    +0.205 C 
BRANCH  27  28
ATOM     28  O   UNL     1     -35.805  31.019   3.126  0.00  0.00    -0.375 OA
ATOM     29  H   UNL     1     -35.050  31.510   3.489  0.00  0.00    +0.211 HD
ENDBRANCH  27  28
BRANCH  27  31
ATOM     30  O   UNL     1     -38.245  31.246   1.193  0.00  0.00    -0.286 OA
ATOM     31  C   UNL     1     -37.209  31.871   1.397  0.00  0.00    +0.239 C 
ENDBRANCH  27  31
ENDBRANCH  24  27
ENDBRANCH  21  24
ENDBRANCH  20  21
ENDBRANCH   3  20
TORSDOF 8
ENDMDL
MODEL 7
REMARK VINA RESULT:      -5.9      5.605     10.165
REMARK  Name = 189176
REMARK  8 active torsions:
REMARK  status: ('A' for Active; 'I' for Inactive)
REMARK    1  A    between atoms: N_3  and  C_20
REMARK    2  A    between atoms: C_20  and  C_21
REMARK    3  A    between atoms: C_21  and  O_22
REMARK    4  A    between atoms: C_21  and  C_24
REMARK    5  A    between atoms: C_24  and  O_25
REMARK    6  A    between atoms: C_24  and  C_27
REMARK    7  A    between atoms: C_27  and  O_28
REMARK    8  A    between atoms: C_27  and  C_31
REMARK                            x       y       z     vdW  Elec       q    Type
REMARK                         _______ _______ _______ _____ _____    ______ ____
ROOT
ATOM      1  O   UNL     1     -28.892  31.873   5.224  0.00  0.00    -0.266 OA
ATOM      2  O   UNL     1     -28.360  27.511   6.571  0.00  0.00    -0.193 OA
ATOM      3  N   UNL     1     -32.195  28.520   4.120  0.00  0.00    -0.270 N 
ATOM      4  N   UNL     1     -31.219  31.180   4.051  0.00  0.00    -0.396 NA
ATOM      5  N   UNL     1     -30.234  27.998   5.375  0.00  0.00    -0.303 NA
ATOM      6  N   UNL     1     -28.604  29.669   5.916  0.00  0.00    -0.196 N 
ATOM      7  C   UNL     1     -32.939  29.520   3.454  0.00  0.00    +0.150 C 
ATOM      8  C   UNL     1     -30.992  28.841   4.737  0.00  0.00    +0.232 C 
ATOM      9  C   UNL     1     -32.433  30.835   3.434  0.00  0.00    +0.131 C 
ATOM     10  C   UNL     1     -34.165  29.276   2.807  0.00  0.00    -0.004 C 
ATOM     11  C   UNL     1     -30.532  30.271   4.662  0.00  0.00    +0.230 C 
ATOM     12  C   UNL     1     -34.863  30.300   2.161  0.00  0.00    -0.028 C 
ATOM     13  C   UNL     1     -34.352  31.591   2.149  0.00  0.00    -0.024 C 
ATOM     14  C   UNL     1     -33.142  31.857   2.783  0.00  0.00    +0.025 C 
ATOM     15  C   UNL     1     -29.252  30.711   5.294  0.00  0.00    +0.293 C 
ATOM     16  C   UNL     1     -36.160  29.982   1.492  0.00  0.00    +0.030 C 
ATOM     17  C   UNL     1     -35.078  32.704   1.469  0.00  0.00    +0.031 C 
ATOM     18  C   UNL     1     -29.045  28.347   5.977  0.00  0.00    +0.273 C 
ATOM     19  H   UNL     1     -27.750  29.877   6.360  0.00  0.00    +0.169 HD
ENDROOT
BRANCH   3  20
ATOM     20  C   UNL     1     -32.728  27.160   4.136  0.00  0.00    +0.126 C 
BRANCH  20  21
ATOM     21  C   UNL     1     -33.581  26.937   5.392  0.00  0.00    +0.160 C 
BRANCH  21  22
ATOM     22  O   UNL     1     -32.722  26.863   6.528  0.00  0.00    -0.380 OA
ATOM     23  H   UNL     1     -33.223  27.085   7.327  0.00  0.00    +0.211 HD
ENDBRANCH  21  22
BRANCH  21  24
ATOM     24  C   UNL     1     -34.389  25.631   5.303  0.00  0.00    +0.173 C 
BRANCH  24  25
ATOM     25  O   UNL     1     -33.625  24.666   4.579  0.00  0.00    -0.379 OA
ATOM     26  H   UNL     1     -34.206  23.946   4.288  0.00  0.00    +0.211 HD
ENDBRANCH  24  25
BRANCH  24  27
ATOM     27  C   UNL     1     -35.772  25.785   4.654  0.00  0.00    +0.205 C 
BRANCH  27  28
ATOM     28  O   UNL     1     -36.563  26.633   5.473  0.00  0.00    -0.375 OA
ATOM     29  H   UNL     1     -35.989  27.266   5.933  0.00  0.00    +0.211 HD
ENDBRANCH  27  28
BRANCH  27  31
ATOM     30  O   UNL     1     -36.306  23.486   5.223  0.00  0.00    -0.286 OA
ATOM     31  C   UNL     1     -36.490  24.458   4.499  0.00  0.00    +0.239 C 
ENDBRANCH  27  31
ENDBRANCH  24  27
ENDBRANCH  21  24
ENDBRANCH  20  21
ENDBRANCH   3  20
TORSDOF 8
ENDMDL
MODEL 8
REMARK VINA RESULT:      -5.8      2.592      5.541
REMARK  Name = 189176
REMARK  8 active torsions:
REMARK  status: ('A' for Active; 'I' for Inactive)
REMARK    1  A    between atoms: N_3  and  C_20
REMARK    2  A    between atoms: C_20  and  C_21
REMARK    3  A    between atoms: C_21  and  O_22
REMARK    4  A    between atoms: C_21  and  C_24
REMARK    5  A    between atoms: C_24  and  O_25
REMARK    6  A    between atoms: C_24  and  C_27
REMARK    7  A    between atoms: C_27  and  O_28
REMARK    8  A    between atoms: C_27  and  C_31
REMARK                            x       y       z     vdW  Elec       q    Type
REMARK                         _______ _______ _______ _____ _____    ______ ____
ROOT
ATOM      1  O   UNL     1     -41.260  24.265   0.734  0.00  0.00    -0.266 OA
ATOM      2  O   UNL     1     -40.718  19.984  -0.849  0.00  0.00    -0.193 OA
ATOM      3  N   UNL     1     -37.567  21.524   2.223  0.00  0.00    -0.270 N 
ATOM      4  N   UNL     1     -39.045  23.941   2.238  0.00  0.00    -0.396 NA
ATOM      5  N   UNL     1     -39.177  20.730   0.650  0.00  0.00    -0.303 NA
ATOM      6  N   UNL     1     -41.004  22.100  -0.081  0.00  0.00    -0.196 N 
ATOM      7  C   UNL     1     -37.142  22.597   3.037  0.00  0.00    +0.150 C 
ATOM      8  C   UNL     1     -38.703  21.655   1.433  0.00  0.00    +0.232 C 
ATOM      9  C   UNL     1     -37.894  23.789   3.027  0.00  0.00    +0.131 C 
ATOM     10  C   UNL     1     -36.003  22.544   3.862  0.00  0.00    -0.004 C 
ATOM     11  C   UNL     1     -39.441  22.964   1.489  0.00  0.00    +0.230 C 
ATOM     12  C   UNL     1     -35.624  23.633   4.651  0.00  0.00    -0.028 C 
ATOM     13  C   UNL     1     -36.374  24.801   4.631  0.00  0.00    -0.024 C 
ATOM     14  C   UNL     1     -37.505  24.878   3.823  0.00  0.00    +0.025 C 
ATOM     15  C   UNL     1     -40.673  23.199   0.678  0.00  0.00    +0.293 C 
ATOM     16  C   UNL     1     -34.405  23.519   5.507  0.00  0.00    +0.030 C 
ATOM     17  C   UNL     1     -35.991  25.981   5.462  0.00  0.00    +0.031 C 
ATOM     18  C   UNL     1     -40.308  20.891  -0.121  0.00  0.00    +0.273 C 
ATOM     19  H   UNL     1     -41.806  22.174  -0.647  0.00  0.00    +0.169 HD
ENDROOT
BRANCH   3  20
ATOM     20  C   UNL     1     -36.781  20.292   2.239  0.00  0.00    +0.126 C 
BRANCH  20  21
ATOM     21  C   UNL     1     -35.941  20.179   0.960  0.00  0.00    +0.160 C 
BRANCH  21  22
ATOM     22  O   UNL     1     -36.099  18.869   0.418  0.00  0.00    -0.380 OA
ATOM     23  H   UNL     1     -36.843  18.426   0.853  0.00  0.00    +0.211 HD
ENDBRANCH  21  22
BRANCH  21  24
ATOM     24  C   UNL     1     -34.447  20.416   1.241  0.00  0.00    +0.173 C 
BRANCH  24  25
ATOM     25  O   UNL     1     -34.092  21.717   0.769  0.00  0.00    -0.379 OA
ATOM     26  H   UNL     1     -34.594  21.917  -0.037  0.00  0.00    +0.211 HD
ENDBRANCH  24  25
BRANCH  24  27
ATOM     27  C   UNL     1     -33.512  19.370   0.617  0.00  0.00    +0.205 C 
BRANCH  27  28
ATOM     28  O   UNL     1     -33.464  18.240   1.476  0.00  0.00    -0.375 OA
ATOM     29  H   UNL     1     -33.965  17.510   1.078  0.00  0.00    +0.211 HD
ENDBRANCH  27  28
BRANCH  27  31
ATOM     30  O   UNL     1     -31.750  20.616  -0.497  0.00  0.00    -0.286 OA
ATOM     31  C   UNL     1     -32.101  19.892   0.430  0.00  0.00    +0.239 C 
ENDBRANCH  27  31
ENDBRANCH  24  27
ENDBRANCH  21  24
ENDBRANCH  20  21
ENDBRANCH   3  20
TORSDOF 8
ENDMDL
MODEL 9
REMARK VINA RESULT:      -5.8      3.543      7.191
REMARK  Name = 189176
REMARK  8 active torsions:
REMARK  status: ('A' for Active; 'I' for Inactive)
REMARK    1  A    between atoms: N_3  and  C_20
REMARK    2  A    between atoms: C_20  and  C_21
REMARK    3  A    between atoms: C_21  and  O_22
REMARK    4  A    between atoms: C_21  and  C_24
REMARK    5  A    between atoms: C_24  and  O_25
REMARK    6  A    between atoms: C_24  and  C_27
REMARK    7  A    between atoms: C_27  and  O_28
REMARK    8  A    between atoms: C_27  and  C_31
REMARK                            x       y       z     vdW  Elec       q    Type
REMARK                         _______ _______ _______ _____ _____    ______ ____
ROOT
ATOM      1  O   UNL     1     -35.321  22.707   6.535  0.00  0.00    -0.266 OA
ATOM      2  O   UNL     1     -37.492  22.175   2.519  0.00  0.00    -0.193 OA
ATOM      3  N   UNL     1     -34.916  26.026   3.044  0.00  0.00    -0.270 N 
ATOM      4  N   UNL     1     -34.322  25.044   5.634  0.00  0.00    -0.396 NA
ATOM      5  N   UNL     1     -36.236  24.057   2.769  0.00  0.00    -0.303 NA
ATOM      6  N   UNL     1     -36.429  22.419   4.508  0.00  0.00    -0.196 N 
ATOM      7  C   UNL     1     -34.073  26.772   3.896  0.00  0.00    +0.150 C 
ATOM      8  C   UNL     1     -35.451  24.818   3.474  0.00  0.00    +0.232 C 
ATOM      9  C   UNL     1     -33.792  26.263   5.180  0.00  0.00    +0.131 C 
ATOM     10  C   UNL     1     -33.495  28.003   3.535  0.00  0.00    -0.004 C 
ATOM     11  C   UNL     1     -35.094  24.355   4.860  0.00  0.00    +0.230 C 
ATOM     12  C   UNL     1     -32.666  28.704   4.416  0.00  0.00    -0.028 C 
ATOM     13  C   UNL     1     -32.398  28.190   5.677  0.00  0.00    -0.024 C 
ATOM     14  C   UNL     1     -32.959  26.975   6.057  0.00  0.00    +0.025 C 
ATOM     15  C   UNL     1     -35.620  23.069   5.410  0.00  0.00    +0.293 C 
ATOM     16  C   UNL     1     -32.080  30.006   3.978  0.00  0.00    +0.030 C 
ATOM     17  C   UNL     1     -31.518  28.919   6.638  0.00  0.00    +0.031 C 
ATOM     18  C   UNL     1     -36.751  22.862   3.225  0.00  0.00    +0.273 C 
ATOM     19  H   UNL     1     -36.818  21.561   4.796  0.00  0.00    +0.169 HD
ENDROOT
BRANCH   3  20
ATOM     20  C   UNL     1     -35.202  26.562   1.715  0.00  0.00    +0.126 C 
BRANCH  20  21
ATOM     21  C   UNL     1     -36.553  27.289   1.713  0.00  0.00    +0.160 C 
BRANCH  21  22
ATOM     22  O   UNL     1     -37.515  26.476   1.043  0.00  0.00    -0.380 OA
ATOM     23  H   UNL     1     -37.601  26.770   0.123  0.00  0.00    +0.211 HD
ENDBRANCH  21  22
BRANCH  21  24
ATOM     24  C   UNL     1     -36.467  28.643   0.988  0.00  0.00    +0.173 C 
BRANCH  24  25
ATOM     25  O   UNL     1     -36.398  29.684   1.964  0.00  0.00    -0.379 OA
ATOM     26  H   UNL     1     -36.639  30.529   1.554  0.00  0.00    +0.211 HD
ENDBRANCH  24  25
BRANCH  24  27
ATOM     27  C   UNL     1     -37.629  28.920   0.022  0.00  0.00    +0.205 C 
BRANCH  27  28
ATOM     28  O   UNL     1     -37.306  28.361  -1.243  0.00  0.00    -0.375 OA
ATOM     29  H   UNL     1     -38.048  28.492  -1.854  0.00  0.00    +0.211 HD
ENDBRANCH  27  28
BRANCH  27  31
ATOM     30  O   UNL     1     -38.504  31.097   0.645  0.00  0.00    -0.286 OA
ATOM     31  C   UNL     1     -37.891  30.402  -0.158  0.00  0.00    +0.239 C 
ENDBRANCH  27  31
ENDBRANCH  24  27
ENDBRANCH  21  24
ENDBRANCH  20  21
ENDBRANCH   3  20
TORSDOF 8
ENDMDL
