MODEL 1
REMARK VINA RESULT:      -7.1      0.000      0.000
REMARK  Name = 5319001
REMARK  6 active torsions:
REMARK  status: ('A' for Active; 'I' for Inactive)
REMARK    1  A    between atoms: C_4  and  C_25
REMARK    2  A    between atoms: C_8  and  O_30
REMARK    3  A    between atoms: C_13  and  C_15
REMARK    4  A    between atoms: C_16  and  O_21
REMARK    5  A    between atoms: C_20  and  O_23
REMARK    6  A    between atoms: C_25  and  O_28
REMARK                            x       y       z     vdW  Elec       q    Type
REMARK                         _______ _______ _______ _____ _____    ______ ____
ROOT
ATOM      1  O   UNL     1     -32.441  28.445   5.981  0.00  0.00    -0.477 OA
ATOM      2  O   UNL     1     -34.954  24.324   5.848  0.00  0.00    -0.421 OA
ATOM      3  O   UNL     1     -36.162  22.392   5.733  0.00  0.00    -0.244 OA
ATOM      4  C   UNL     1     -32.116  29.356   4.899  0.00  0.00    +0.195 C 
ATOM      5  C   UNL     1     -32.057  28.562   3.583  0.00  0.00    +0.078 C 
ATOM      6  C   UNL     1     -32.883  27.398   3.973  0.00  0.00    +0.050 C 
ATOM      7  C   UNL     1     -33.039  27.383   5.353  0.00  0.00    +0.141 C 
ATOM      8  C   UNL     1     -33.410  26.389   3.182  0.00  0.00    +0.141 C 
ATOM      9  C   UNL     1     -34.114  25.354   3.809  0.00  0.00    +0.069 C 
ATOM     10  C   UNL     1     -33.716  26.370   6.000  0.00  0.00    +0.074 C 
ATOM     11  C   UNL     1     -34.253  25.361   5.201  0.00  0.00    +0.155 C 
ATOM     12  C   UNL     1     -34.700  24.257   3.054  0.00  0.00    +0.013 C 
ATOM     13  C   UNL     1     -35.373  23.273   3.669  0.00  0.00    +0.079 C 
ATOM     14  C   UNL     1     -35.537  23.271   5.147  0.00  0.00    +0.346 C 
ENDROOT
BRANCH  13  15
ATOM     15  C   UNL     1     -35.933  22.177   2.856  0.00  0.00    +0.040 C 
ATOM     16  C   UNL     1     -37.260  22.205   2.423  0.00  0.00    +0.137 C 
ATOM     17  C   UNL     1     -35.115  21.098   2.521  0.00  0.00    +0.006 C 
ATOM     18  C   UNL     1     -37.766  21.156   1.656  0.00  0.00    +0.073 C 
ATOM     19  C   UNL     1     -35.622  20.048   1.753  0.00  0.00    +0.037 C 
ATOM     20  C   UNL     1     -36.948  20.078   1.321  0.00  0.00    +0.137 C 
BRANCH  16  21
ATOM     21  O   UNL     1     -38.082  23.247   2.737  0.00  0.00    -0.505 OA
ATOM     22  H   UNL     1     -38.416  23.335   3.608  0.00  0.00    +0.292 HD
ENDBRANCH  16  21
BRANCH  20  23
ATOM     23  O   UNL     1     -37.442  19.055   0.573  0.00  0.00    -0.505 OA
ATOM     24  H   UNL     1     -36.881  18.351   0.312  0.00  0.00    +0.292 HD
ENDBRANCH  20  23
ENDBRANCH  13  15
BRANCH   4  25
ATOM     25  C   UNL     1     -30.803  30.052   5.219  0.00  0.00    +0.125 C 
ATOM     26  C   UNL     1     -29.753  29.774   4.140  0.00  0.00    +0.033 C 
ATOM     27  C   UNL     1     -30.279  29.622   6.592  0.00  0.00    +0.033 C 
BRANCH  25  28
ATOM     28  O   UNL     1     -31.029  31.463   5.273  0.00  0.00    -0.383 OA
ATOM     29  H   UNL     1     -31.254  31.720   6.181  0.00  0.00    +0.210 HD
ENDBRANCH  25  28
ENDBRANCH   4  25
BRANCH   8  30
ATOM     30  O   UNL     1     -33.225  26.425   1.836  0.00  0.00    -0.472 OA
ATOM     31  C   UNL     1     -32.030  25.834   1.326  0.00  0.00    +0.252 C 
ENDBRANCH   8  30
TORSDOF 6
ENDMDL
MODEL 2
REMARK VINA RESULT:      -6.6      1.232      1.530
REMARK  Name = 5319001
REMARK  6 active torsions:
REMARK  status: ('A' for Active; 'I' for Inactive)
REMARK    1  A    between atoms: C_4  and  C_25
REMARK    2  A    between atoms: C_8  and  O_30
REMARK    3  A    between atoms: C_13  and  C_15
REMARK    4  A    between atoms: C_16  and  O_21
REMARK    5  A    between atoms: C_20  and  O_23
REMARK    6  A    between atoms: C_25  and  O_28
REMARK                            x       y       z     vdW  Elec       q    Type
REMARK                         _______ _______ _______ _____ _____    ______ ____
ROOT
ATOM      1  O   UNL     1     -31.951  28.583   5.840  0.00  0.00    -0.477 OA
ATOM      2  O   UNL     1     -34.759  24.656   5.875  0.00  0.00    -0.421 OA
ATOM      3  O   UNL     1     -36.120  22.826   5.850  0.00  0.00    -0.244 OA
ATOM      4  C   UNL     1     -31.876  29.649   4.857  0.00  0.00    +0.195 C 
ATOM      5  C   UNL     1     -32.280  29.086   3.485  0.00  0.00    +0.078 C 
ATOM      6  C   UNL     1     -33.058  27.910   3.932  0.00  0.00    +0.050 C 
ATOM      7  C   UNL     1     -32.802  27.670   5.275  0.00  0.00    +0.141 C 
ATOM      8  C   UNL     1     -33.885  27.073   3.199  0.00  0.00    +0.141 C 
ATOM      9  C   UNL     1     -34.466  25.978   3.851  0.00  0.00    +0.069 C 
ATOM     10  C   UNL     1     -33.349  26.592   5.942  0.00  0.00    +0.074 C 
ATOM     11  C   UNL     1     -34.188  25.756   5.204  0.00  0.00    +0.155 C 
ATOM     12  C   UNL     1     -35.346  25.050   3.159  0.00  0.00    +0.013 C 
ATOM     13  C   UNL     1     -35.896  24.006   3.797  0.00  0.00    +0.079 C 
ATOM     14  C   UNL     1     -35.617  23.763   5.238  0.00  0.00    +0.346 C 
ENDROOT
BRANCH  13  15
ATOM     15  C   UNL     1     -36.769  23.088   3.042  0.00  0.00    +0.040 C 
ATOM     16  C   UNL     1     -38.130  23.354   2.882  0.00  0.00    +0.137 C 
ATOM     17  C   UNL     1     -36.216  21.936   2.483  0.00  0.00    +0.006 C 
ATOM     18  C   UNL     1     -38.935  22.471   2.164  0.00  0.00    +0.073 C 
ATOM     19  C   UNL     1     -37.021  21.051   1.765  0.00  0.00    +0.037 C 
ATOM     20  C   UNL     1     -38.381  21.319   1.605  0.00  0.00    +0.137 C 
BRANCH  16  21
ATOM     21  O   UNL     1     -38.697  24.473   3.418  0.00  0.00    -0.505 OA
ATOM     22  H   UNL     1     -38.298  25.311   3.284  0.00  0.00    +0.292 HD
ENDBRANCH  16  21
BRANCH  20  23
ATOM     23  O   UNL     1     -39.166  20.457   0.905  0.00  0.00    -0.505 OA
ATOM     24  H   UNL     1     -39.982  20.168   1.264  0.00  0.00    +0.292 HD
ENDBRANCH  20  23
ENDBRANCH  13  15
BRANCH   4  25
ATOM     25  C   UNL     1     -30.469  30.223   4.860  0.00  0.00    +0.125 C 
ATOM     26  C   UNL     1     -29.743  29.902   6.169  0.00  0.00    +0.033 C 
ATOM     27  C   UNL     1     -30.497  31.736   4.627  0.00  0.00    +0.033 C 
BRANCH  25  28
ATOM     28  O   UNL     1     -29.730  29.642   3.782  0.00  0.00    -0.383 OA
ATOM     29  H   UNL     1     -29.123  28.970   4.131  0.00  0.00    +0.210 HD
ENDBRANCH  25  28
ENDBRANCH   4  25
BRANCH   8  30
ATOM     30  O   UNL     1     -34.102  27.326   1.882  0.00  0.00    -0.472 OA
ATOM     31  C   UNL     1     -35.190  28.191   1.556  0.00  0.00    +0.252 C 
ENDBRANCH   8  30
TORSDOF 6
ENDMDL
MODEL 3
REMARK VINA RESULT:      -6.5      1.361      8.460
REMARK  Name = 5319001
REMARK  6 active torsions:
REMARK  status: ('A' for Active; 'I' for Inactive)
REMARK    1  A    between atoms: C_4  and  C_25
REMARK    2  A    between atoms: C_8  and  O_30
REMARK    3  A    between atoms: C_13  and  C_15
REMARK    4  A    between atoms: C_16  and  O_21
REMARK    5  A    between atoms: C_20  and  O_23
REMARK    6  A    between atoms: C_25  and  O_28
REMARK                            x       y       z     vdW  Elec       q    Type
REMARK                         _______ _______ _______ _____ _____    ______ ____
ROOT
ATOM      1  O   UNL     1     -35.713  21.999   3.630  0.00  0.00    -0.477 OA
ATOM      2  O   UNL     1     -33.738  25.792   5.872  0.00  0.00    -0.421 OA
ATOM      3  O   UNL     1     -32.768  27.590   6.886  0.00  0.00    -0.244 OA
ATOM      4  C   UNL     1     -35.594  21.590   2.242  0.00  0.00    +0.195 C 
ATOM      5  C   UNL     1     -35.336  22.835   1.379  0.00  0.00    +0.078 C 
ATOM      6  C   UNL     1     -34.798  23.737   2.421  0.00  0.00    +0.050 C 
ATOM      7  C   UNL     1     -35.071  23.209   3.675  0.00  0.00    +0.141 C 
ATOM      8  C   UNL     1     -34.168  24.963   2.281  0.00  0.00    +0.141 C 
ATOM      9  C   UNL     1     -33.803  25.657   3.442  0.00  0.00    +0.069 C 
ATOM     10  C   UNL     1     -34.736  23.874   4.837  0.00  0.00    +0.074 C 
ATOM     11  C   UNL     1     -34.094  25.105   4.694  0.00  0.00    +0.155 C 
ATOM     12  C   UNL     1     -33.137  26.949   3.387  0.00  0.00    +0.013 C 
ATOM     13  C   UNL     1     -32.793  27.602   4.507  0.00  0.00    +0.079 C 
ATOM     14  C   UNL     1     -33.087  27.022   5.846  0.00  0.00    +0.346 C 
ENDROOT
BRANCH  13  15
ATOM     15  C   UNL     1     -32.134  28.916   4.393  0.00  0.00    +0.040 C 
ATOM     16  C   UNL     1     -30.803  29.091   4.775  0.00  0.00    +0.137 C 
ATOM     17  C   UNL     1     -32.863  29.997   3.895  0.00  0.00    +0.006 C 
ATOM     18  C   UNL     1     -30.202  30.344   4.657  0.00  0.00    +0.073 C 
ATOM     19  C   UNL     1     -32.261  31.250   3.778  0.00  0.00    +0.037 C 
ATOM     20  C   UNL     1     -30.931  31.424   4.159  0.00  0.00    +0.137 C 
BRANCH  16  21
ATOM     21  O   UNL     1     -30.067  28.052   5.265  0.00  0.00    -0.505 OA
ATOM     22  H   UNL     1     -30.109  27.212   4.850  0.00  0.00    +0.292 HD
ENDBRANCH  16  21
BRANCH  20  23
ATOM     23  O   UNL     1     -30.345  32.646   4.046  0.00  0.00    -0.505 OA
ATOM     24  H   UNL     1     -30.702  33.382   4.503  0.00  0.00    +0.292 HD
ENDBRANCH  20  23
ENDBRANCH  13  15
BRANCH   4  25
ATOM     25  C   UNL     1     -36.860  20.851   1.837  0.00  0.00    +0.125 C 
ATOM     26  C   UNL     1     -36.820  20.457   0.357  0.00  0.00    +0.033 C 
ATOM     27  C   UNL     1     -38.102  21.697   2.127  0.00  0.00    +0.033 C 
BRANCH  25  28
ATOM     28  O   UNL     1     -36.968  19.657   2.616  0.00  0.00    -0.383 OA
ATOM     29  H   UNL     1     -36.118  19.472   3.046  0.00  0.00    +0.210 HD
ENDBRANCH  25  28
ENDBRANCH   4  25
BRANCH   8  30
ATOM     30  O   UNL     1     -33.930  25.460   1.039  0.00  0.00    -0.472 OA
ATOM     31  C   UNL     1     -32.724  25.052   0.394  0.00  0.00    +0.252 C 
ENDBRANCH   8  30
TORSDOF 6
ENDMDL
MODEL 4
REMARK VINA RESULT:      -6.4      3.235      9.817
REMARK  Name = 5319001
REMARK  6 active torsions:
REMARK  status: ('A' for Active; 'I' for Inactive)
REMARK    1  A    between atoms: C_4  and  C_25
REMARK    2  A    between atoms: C_8  and  O_30
REMARK    3  A    between atoms: C_13  and  C_15
REMARK    4  A    between atoms: C_16  and  O_21
REMARK    5  A    between atoms: C_20  and  O_23
REMARK    6  A    between atoms: C_25  and  O_28
REMARK                            x       y       z     vdW  Elec       q    Type
REMARK                         _______ _______ _______ _____ _____    ______ ____
ROOT
ATOM      1  O   UNL     1     -36.106  16.837  -1.180  0.00  0.00    -0.477 OA
ATOM      2  O   UNL     1     -37.521  20.713   1.329  0.00  0.00    -0.421 OA
ATOM      3  O   UNL     1     -38.147  22.532   2.554  0.00  0.00    -0.244 OA
ATOM      4  C   UNL     1     -34.871  16.081  -1.080  0.00  0.00    +0.195 C 
ATOM      5  C   UNL     1     -33.757  17.014  -0.580  0.00  0.00    +0.078 C 
ATOM      6  C   UNL     1     -34.592  18.052   0.065  0.00  0.00    +0.050 C 
ATOM      7  C   UNL     1     -35.910  17.904  -0.342  0.00  0.00    +0.141 C 
ATOM      8  C   UNL     1     -34.212  19.091   0.900  0.00  0.00    +0.141 C 
ATOM      9  C   UNL     1     -35.197  19.987   1.335  0.00  0.00    +0.069 C 
ATOM     10  C   UNL     1     -36.901  18.778   0.058  0.00  0.00    +0.074 C 
ATOM     11  C   UNL     1     -36.518  19.817   0.906  0.00  0.00    +0.155 C 
ATOM     12  C   UNL     1     -34.886  21.103   2.213  0.00  0.00    +0.013 C 
ATOM     13  C   UNL     1     -35.841  21.953   2.621  0.00  0.00    +0.079 C 
ATOM     14  C   UNL     1     -37.252  21.780   2.182  0.00  0.00    +0.346 C 
ENDROOT
BRANCH  13  15
ATOM     15  C   UNL     1     -35.467  23.077   3.499  0.00  0.00    +0.040 C 
ATOM     16  C   UNL     1     -35.571  22.974   4.887  0.00  0.00    +0.137 C 
ATOM     17  C   UNL     1     -35.003  24.260   2.923  0.00  0.00    +0.006 C 
ATOM     18  C   UNL     1     -35.212  24.051   5.697  0.00  0.00    +0.073 C 
ATOM     19  C   UNL     1     -34.643  25.338   3.733  0.00  0.00    +0.037 C 
ATOM     20  C   UNL     1     -34.748  25.233   5.120  0.00  0.00    +0.137 C 
BRANCH  16  21
ATOM     21  O   UNL     1     -36.022  21.830   5.478  0.00  0.00    -0.505 OA
ATOM     22  H   UNL     1     -36.002  21.745   6.411  0.00  0.00    +0.292 HD
ENDBRANCH  16  21
BRANCH  20  23
ATOM     23  O   UNL     1     -34.397  26.284   5.909  0.00  0.00    -0.505 OA
ATOM     24  H   UNL     1     -33.507  26.389   6.184  0.00  0.00    +0.292 HD
ENDBRANCH  20  23
ENDBRANCH  13  15
BRANCH   4  25
ATOM     25  C   UNL     1     -34.556  15.472  -2.437  0.00  0.00    +0.125 C 
ATOM     26  C   UNL     1     -33.319  16.123  -3.061  0.00  0.00    +0.033 C 
ATOM     27  C   UNL     1     -35.754  15.596  -3.382  0.00  0.00    +0.033 C 
BRANCH  25  28
ATOM     28  O   UNL     1     -34.292  14.077  -2.267  0.00  0.00    -0.383 OA
ATOM     29  H   UNL     1     -33.399  13.957  -1.908  0.00  0.00    +0.210 HD
ENDBRANCH  25  28
ENDBRANCH   4  25
BRANCH   8  30
ATOM     30  O   UNL     1     -32.909  19.218   1.267  0.00  0.00    -0.472 OA
ATOM     31  C   UNL     1     -32.045  19.914   0.369  0.00  0.00    +0.252 C 
ENDBRANCH   8  30
TORSDOF 6
ENDMDL
MODEL 5
REMARK VINA RESULT:      -6.2      2.814      4.177
REMARK  Name = 5319001
REMARK  6 active torsions:
REMARK  status: ('A' for Active; 'I' for Inactive)
REMARK    1  A    between atoms: C_4  and  C_25
REMARK    2  A    between atoms: C_8  and  O_30
REMARK    3  A    between atoms: C_13  and  C_15
REMARK    4  A    between atoms: C_16  and  O_21
REMARK    5  A    between atoms: C_20  and  O_23
REMARK    6  A    between atoms: C_25  and  O_28
REMARK                            x       y       z     vdW  Elec       q    Type
REMARK                         _______ _______ _______ _____ _____    ______ ____
ROOT
ATOM      1  O   UNL     1     -33.862  31.600   1.583  0.00  0.00    -0.477 OA
ATOM      2  O   UNL     1     -36.336  27.515   2.294  0.00  0.00    -0.421 OA
ATOM      3  O   UNL     1     -37.454  25.556   2.629  0.00  0.00    -0.244 OA
ATOM      4  C   UNL     1     -32.440  31.849   1.732  0.00  0.00    +0.195 C 
ATOM      5  C   UNL     1     -31.876  30.884   2.788  0.00  0.00    +0.078 C 
ATOM      6  C   UNL     1     -32.918  29.835   2.729  0.00  0.00    +0.050 C 
ATOM      7  C   UNL     1     -34.026  30.322   2.050  0.00  0.00    +0.141 C 
ATOM      8  C   UNL     1     -32.918  28.565   3.283  0.00  0.00    +0.141 C 
ATOM      9  C   UNL     1     -34.066  27.776   3.134  0.00  0.00    +0.069 C 
ATOM     10  C   UNL     1     -35.176  29.574   1.898  0.00  0.00    +0.074 C 
ATOM     11  C   UNL     1     -35.171  28.293   2.449  0.00  0.00    +0.155 C 
ATOM     12  C   UNL     1     -34.151  26.432   3.683  0.00  0.00    +0.013 C 
ATOM     13  C   UNL     1     -35.257  25.688   3.531  0.00  0.00    +0.079 C 
ATOM     14  C   UNL     1     -36.437  26.220   2.797  0.00  0.00    +0.346 C 
ENDROOT
BRANCH  13  15
ATOM     15  C   UNL     1     -35.295  24.338   4.122  0.00  0.00    +0.040 C 
ATOM     16  C   UNL     1     -35.392  23.201   3.318  0.00  0.00    +0.137 C 
ATOM     17  C   UNL     1     -35.234  24.205   5.509  0.00  0.00    +0.006 C 
ATOM     18  C   UNL     1     -35.426  21.934   3.900  0.00  0.00    +0.073 C 
ATOM     19  C   UNL     1     -35.268  22.937   6.092  0.00  0.00    +0.037 C 
ATOM     20  C   UNL     1     -35.364  21.802   5.287  0.00  0.00    +0.137 C 
BRANCH  16  21
ATOM     21  O   UNL     1     -35.454  23.302   1.959  0.00  0.00    -0.505 OA
ATOM     22  H   UNL     1     -36.257  23.547   1.543  0.00  0.00    +0.292 HD
ENDBRANCH  16  21
BRANCH  20  23
ATOM     23  O   UNL     1     -35.398  20.567   5.856  0.00  0.00    -0.505 OA
ATOM     24  H   UNL     1     -36.013  19.928   5.552  0.00  0.00    +0.292 HD
ENDBRANCH  20  23
ENDBRANCH  13  15
BRANCH   4  25
ATOM     25  C   UNL     1     -32.231  33.308   2.105  0.00  0.00    +0.125 C 
ATOM     26  C   UNL     1     -31.399  33.438   3.384  0.00  0.00    +0.033 C 
ATOM     27  C   UNL     1     -33.574  34.025   2.270  0.00  0.00    +0.033 C 
BRANCH  25  28
ATOM     28  O   UNL     1     -31.529  33.960   1.044  0.00  0.00    -0.383 OA
ATOM     29  H   UNL     1     -31.730  34.909   1.059  0.00  0.00    +0.210 HD
ENDBRANCH  25  28
ENDBRANCH   4  25
BRANCH   8  30
ATOM     30  O   UNL     1     -31.823  28.124   3.956  0.00  0.00    -0.472 OA
ATOM     31  C   UNL     1     -31.737  28.447   5.344  0.00  0.00    +0.252 C 
ENDBRANCH   8  30
TORSDOF 6
ENDMDL
MODEL 6
REMARK VINA RESULT:      -6.1      2.633      9.522
REMARK  Name = 5319001
REMARK  6 active torsions:
REMARK  status: ('A' for Active; 'I' for Inactive)
REMARK    1  A    between atoms: C_4  and  C_25
REMARK    2  A    between atoms: C_8  and  O_30
REMARK    3  A    between atoms: C_13  and  C_15
REMARK    4  A    between atoms: C_16  and  O_21
REMARK    5  A    between atoms: C_20  and  O_23
REMARK    6  A    between atoms: C_25  and  O_28
REMARK                            x       y       z     vdW  Elec       q    Type
REMARK                         _______ _______ _______ _____ _____    ______ ____
ROOT
ATOM      1  O   UNL     1     -37.551  18.027  -0.646  0.00  0.00    -0.477 OA
ATOM      2  O   UNL     1     -37.995  22.033   2.013  0.00  0.00    -0.421 OA
ATOM      3  O   UNL     1     -38.160  23.907   3.302  0.00  0.00    -0.244 OA
ATOM      4  C   UNL     1     -36.444  17.090  -0.715  0.00  0.00    +0.195 C 
ATOM      5  C   UNL     1     -35.142  17.836  -0.381  0.00  0.00    +0.078 C 
ATOM      6  C   UNL     1     -35.710  18.979   0.367  0.00  0.00    +0.050 C 
ATOM      7  C   UNL     1     -37.080  19.039   0.150  0.00  0.00    +0.141 C 
ATOM      8  C   UNL     1     -35.064  19.934   1.136  0.00  0.00    +0.141 C 
ATOM      9  C   UNL     1     -35.831  20.962   1.698  0.00  0.00    +0.069 C 
ATOM     10  C   UNL     1     -37.860  20.046   0.679  0.00  0.00    +0.074 C 
ATOM     11  C   UNL     1     -37.209  21.002   1.460  0.00  0.00    +0.155 C 
ATOM     12  C   UNL     1     -35.235  22.005   2.518  0.00  0.00    +0.013 C 
ATOM     13  C   UNL     1     -35.983  22.983   3.051  0.00  0.00    +0.079 C 
ATOM     14  C   UNL     1     -37.451  23.033   2.814  0.00  0.00    +0.346 C 
ENDROOT
BRANCH  13  15
ATOM     15  C   UNL     1     -35.323  24.024   3.861  0.00  0.00    +0.040 C 
ATOM     16  C   UNL     1     -35.325  23.962   5.255  0.00  0.00    +0.137 C 
ATOM     17  C   UNL     1     -34.691  25.086   3.214  0.00  0.00    +0.006 C 
ATOM     18  C   UNL     1     -34.695  24.958   6.000  0.00  0.00    +0.073 C 
ATOM     19  C   UNL     1     -34.060  26.083   3.959  0.00  0.00    +0.037 C 
ATOM     20  C   UNL     1     -34.062  26.019   5.352  0.00  0.00    +0.137 C 
BRANCH  16  21
ATOM     21  O   UNL     1     -35.936  22.935   5.915  0.00  0.00    -0.505 OA
ATOM     22  H   UNL     1     -36.344  22.244   5.430  0.00  0.00    +0.292 HD
ENDBRANCH  16  21
BRANCH  20  23
ATOM     23  O   UNL     1     -33.448  26.991   6.078  0.00  0.00    -0.505 OA
ATOM     24  H   UNL     1     -32.755  27.494   5.698  0.00  0.00    +0.292 HD
ENDBRANCH  20  23
ENDBRANCH  13  15
BRANCH   4  25
ATOM     25  C   UNL     1     -36.417  16.462  -2.099  0.00  0.00    +0.125 C 
ATOM     26  C   UNL     1     -35.241  16.991  -2.924  0.00  0.00    +0.033 C 
ATOM     27  C   UNL     1     -37.736  16.710  -2.836  0.00  0.00    +0.033 C 
BRANCH  25  28
ATOM     28  O   UNL     1     -36.267  15.046  -1.961  0.00  0.00    -0.383 OA
ATOM     29  H   UNL     1     -36.496  14.613  -2.799  0.00  0.00    +0.210 HD
ENDBRANCH  25  28
ENDBRANCH   4  25
BRANCH   8  30
ATOM     30  O   UNL     1     -33.719  19.857   1.316  0.00  0.00    -0.472 OA
ATOM     31  C   UNL     1     -32.893  20.461   0.321  0.00  0.00    +0.252 C 
ENDBRANCH   8  30
TORSDOF 6
ENDMDL
MODEL 7
REMARK VINA RESULT:      -6.1      5.210      7.230
REMARK  Name = 5319001
REMARK  6 active torsions:
REMARK  status: ('A' for Active; 'I' for Inactive)
REMARK    1  A    between atoms: C_4  and  C_25
REMARK    2  A    between atoms: C_8  and  O_30
REMARK    3  A    between atoms: C_13  and  C_15
REMARK    4  A    between atoms: C_16  and  O_21
REMARK    5  A    between atoms: C_20  and  O_23
REMARK    6  A    between atoms: C_25  and  O_28
REMARK                            x       y       z     vdW  Elec       q    Type
REMARK                         _______ _______ _______ _____ _____    ______ ____
ROOT
ATOM      1  O   UNL     1     -41.202  26.877   2.838  0.00  0.00    -0.477 OA
ATOM      2  O   UNL     1     -37.551  23.904   3.909  0.00  0.00    -0.421 OA
ATOM      3  O   UNL     1     -35.843  22.466   4.369  0.00  0.00    -0.244 OA
ATOM      4  C   UNL     1     -41.989  26.963   1.621  0.00  0.00    +0.195 C 
ATOM      5  C   UNL     1     -41.128  26.485   0.440  0.00  0.00    +0.078 C 
ATOM      6  C   UNL     1     -40.139  25.674   1.183  0.00  0.00    +0.050 C 
ATOM      7  C   UNL     1     -40.222  25.967   2.537  0.00  0.00    +0.141 C 
ATOM      8  C   UNL     1     -39.190  24.786   0.699  0.00  0.00    +0.141 C 
ATOM      9  C   UNL     1     -38.320  24.182   1.615  0.00  0.00    +0.069 C 
ATOM     10  C   UNL     1     -39.371  25.399   3.462  0.00  0.00    +0.074 C 
ATOM     11  C   UNL     1     -38.423  24.499   2.974  0.00  0.00    +0.155 C 
ATOM     12  C   UNL     1     -37.296  23.238   1.194  0.00  0.00    +0.013 C 
ATOM     13  C   UNL     1     -36.470  22.667   2.084  0.00  0.00    +0.079 C 
ATOM     14  C   UNL     1     -36.574  22.986   3.533  0.00  0.00    +0.346 C 
ENDROOT
BRANCH  13  15
ATOM     15  C   UNL     1     -35.440  21.728   1.600  0.00  0.00    +0.040 C 
ATOM     16  C   UNL     1     -35.505  20.368   1.903  0.00  0.00    +0.137 C 
ATOM     17  C   UNL     1     -34.388  22.219   0.827  0.00  0.00    +0.006 C 
ATOM     18  C   UNL     1     -34.519  19.500   1.434  0.00  0.00    +0.073 C 
ATOM     19  C   UNL     1     -33.401  21.351   0.358  0.00  0.00    +0.037 C 
ATOM     20  C   UNL     1     -33.467  19.992   0.662  0.00  0.00    +0.137 C 
BRANCH  16  21
ATOM     21  O   UNL     1     -36.522  19.860   2.657  0.00  0.00    -0.505 OA
ATOM     22  H   UNL     1     -36.351  19.541   3.521  0.00  0.00    +0.292 HD
ENDBRANCH  16  21
BRANCH  20  23
ATOM     23  O   UNL     1     -32.504  19.146   0.205  0.00  0.00    -0.505 OA
ATOM     24  H   UNL     1     -32.012  18.625   0.809  0.00  0.00    +0.292 HD
ENDBRANCH  20  23
ENDBRANCH  13  15
BRANCH   4  25
ATOM     25  C   UNL     1     -42.474  28.393   1.448  0.00  0.00    +0.125 C 
ATOM     26  C   UNL     1     -43.971  28.433   1.125  0.00  0.00    +0.033 C 
ATOM     27  C   UNL     1     -41.676  29.111   0.358  0.00  0.00    +0.033 C 
BRANCH  25  28
ATOM     28  O   UNL     1     -42.260  29.105   2.670  0.00  0.00    -0.383 OA
ATOM     29  H   UNL     1     -43.115  29.376   3.041  0.00  0.00    +0.210 HD
ENDBRANCH  25  28
ENDBRANCH   4  25
BRANCH   8  30
ATOM     30  O   UNL     1     -39.123  24.532  -0.634  0.00  0.00    -0.472 OA
ATOM     31  C   UNL     1     -39.976  23.508  -1.146  0.00  0.00    +0.252 C 
ENDBRANCH   8  30
TORSDOF 6
ENDMDL
MODEL 8
REMARK VINA RESULT:      -6.0      4.337      5.680
REMARK  Name = 5319001
REMARK  6 active torsions:
REMARK  status: ('A' for Active; 'I' for Inactive)
REMARK    1  A    between atoms: C_4  and  C_25
REMARK    2  A    between atoms: C_8  and  O_30
REMARK    3  A    between atoms: C_13  and  C_15
REMARK    4  A    between atoms: C_16  and  O_21
REMARK    5  A    between atoms: C_20  and  O_23
REMARK    6  A    between atoms: C_25  and  O_28
REMARK                            x       y       z     vdW  Elec       q    Type
REMARK                         _______ _______ _______ _____ _____    ______ ____
ROOT
ATOM      1  O   UNL     1     -33.600  33.455   2.017  0.00  0.00    -0.477 OA
ATOM      2  O   UNL     1     -32.915  29.090   3.966  0.00  0.00    -0.421 OA
ATOM      3  O   UNL     1     -32.650  27.022   4.890  0.00  0.00    -0.244 OA
ATOM      4  C   UNL     1     -34.807  34.027   1.450  0.00  0.00    +0.195 C 
ATOM      5  C   UNL     1     -35.685  32.889   0.903  0.00  0.00    +0.078 C 
ATOM      6  C   UNL     1     -35.140  31.768   1.699  0.00  0.00    +0.050 C 
ATOM      7  C   UNL     1     -33.942  32.154   2.283  0.00  0.00    +0.141 C 
ATOM      8  C   UNL     1     -35.629  30.479   1.851  0.00  0.00    +0.141 C 
ATOM      9  C   UNL     1     -34.885  29.575   2.620  0.00  0.00    +0.069 C 
ATOM     10  C   UNL     1     -33.180  31.283   3.035  0.00  0.00    +0.074 C 
ATOM     11  C   UNL     1     -33.679  29.989   3.194  0.00  0.00    +0.155 C 
ATOM     12  C   UNL     1     -35.325  28.205   2.831  0.00  0.00    +0.013 C 
ATOM     13  C   UNL     1     -34.602  27.350   3.571  0.00  0.00    +0.079 C 
ATOM     14  C   UNL     1     -33.322  27.779   4.196  0.00  0.00    +0.346 C 
ENDROOT
BRANCH  13  15
ATOM     15  C   UNL     1     -35.087  25.967   3.740  0.00  0.00    +0.040 C 
ATOM     16  C   UNL     1     -35.993  25.639   4.750  0.00  0.00    +0.137 C 
ATOM     17  C   UNL     1     -34.625  24.978   2.872  0.00  0.00    +0.006 C 
ATOM     18  C   UNL     1     -36.437  24.324   4.890  0.00  0.00    +0.073 C 
ATOM     19  C   UNL     1     -35.069  23.662   3.012  0.00  0.00    +0.037 C 
ATOM     20  C   UNL     1     -35.975  23.336   4.021  0.00  0.00    +0.137 C 
BRANCH  16  21
ATOM     21  O   UNL     1     -36.461  26.586   5.613  0.00  0.00    -0.505 OA
ATOM     22  H   UNL     1     -35.877  27.232   5.961  0.00  0.00    +0.292 HD
ENDBRANCH  16  21
BRANCH  20  23
ATOM     23  O   UNL     1     -36.407  22.053   4.158  0.00  0.00    -0.505 OA
ATOM     24  H   UNL     1     -36.321  21.451   3.445  0.00  0.00    +0.292 HD
ENDBRANCH  20  23
ENDBRANCH  13  15
BRANCH   4  25
ATOM     25  C   UNL     1     -34.419  35.031   0.377  0.00  0.00    +0.125 C 
ATOM     26  C   UNL     1     -33.322  34.472  -0.533  0.00  0.00    +0.033 C 
ATOM     27  C   UNL     1     -33.966  36.351   1.005  0.00  0.00    +0.033 C 
BRANCH  25  28
ATOM     28  O   UNL     1     -35.567  35.316  -0.427  0.00  0.00    -0.383 OA
ATOM     29  H   UNL     1     -36.330  34.821  -0.089  0.00  0.00    +0.210 HD
ENDBRANCH  25  28
ENDBRANCH   4  25
BRANCH   8  30
ATOM     30  O   UNL     1     -36.797  30.127   1.253  0.00  0.00    -0.472 OA
ATOM     31  C   UNL     1     -36.721  29.634  -0.085  0.00  0.00    +0.252 C 
ENDBRANCH   8  30
TORSDOF 6
ENDMDL
MODEL 9
REMARK VINA RESULT:      -5.9      3.218      6.226
REMARK  Name = 5319001
REMARK  6 active torsions:
REMARK  status: ('A' for Active; 'I' for Inactive)
REMARK    1  A    between atoms: C_4  and  C_25
REMARK    2  A    between atoms: C_8  and  O_30
REMARK    3  A    between atoms: C_13  and  C_15
REMARK    4  A    between atoms: C_16  and  O_21
REMARK    5  A    between atoms: C_20  and  O_23
REMARK    6  A    between atoms: C_25  and  O_28
REMARK                            x       y       z     vdW  Elec       q    Type
REMARK                         _______ _______ _______ _____ _____    ______ ____
ROOT
ATOM      1  O   UNL     1     -35.001  23.724   4.120  0.00  0.00    -0.477 OA
ATOM      2  O   UNL     1     -35.129  19.902   1.172  0.00  0.00    -0.421 OA
ATOM      3  O   UNL     1     -35.246  18.089  -0.205  0.00  0.00    -0.244 OA
ATOM      4  C   UNL     1     -36.102  24.467   4.707  0.00  0.00    +0.195 C 
ATOM      5  C   UNL     1     -37.323  24.361   3.780  0.00  0.00    +0.078 C 
ATOM      6  C   UNL     1     -36.953  23.131   3.044  0.00  0.00    +0.050 C 
ATOM      7  C   UNL     1     -35.613  22.845   3.265  0.00  0.00    +0.141 C 
ATOM      8  C   UNL     1     -37.721  22.353   2.192  0.00  0.00    +0.141 C 
ATOM      9  C   UNL     1     -37.112  21.259   1.564  0.00  0.00    +0.069 C 
ATOM     10  C   UNL     1     -34.982  21.783   2.651  0.00  0.00    +0.074 C 
ATOM     11  C   UNL     1     -35.759  20.995   1.801  0.00  0.00    +0.155 C 
ATOM     12  C   UNL     1     -37.844  20.390   0.656  0.00  0.00    +0.013 C 
ATOM     13  C   UNL     1     -37.248  19.346   0.062  0.00  0.00    +0.079 C 
ATOM     14  C   UNL     1     -35.812  19.046   0.312  0.00  0.00    +0.346 C 
ENDROOT
BRANCH  13  15
ATOM     15  C   UNL     1     -38.033  18.506  -0.862  0.00  0.00    +0.040 C 
ATOM     16  C   UNL     1     -38.244  17.151  -0.603  0.00  0.00    +0.137 C 
ATOM     17  C   UNL     1     -38.569  19.086  -2.012  0.00  0.00    +0.006 C 
ATOM     18  C   UNL     1     -38.991  16.378  -1.492  0.00  0.00    +0.073 C 
ATOM     19  C   UNL     1     -39.316  18.312  -2.902  0.00  0.00    +0.037 C 
ATOM     20  C   UNL     1     -39.527  16.959  -2.641  0.00  0.00    +0.137 C 
BRANCH  16  21
ATOM     21  O   UNL     1     -37.732  16.559   0.514  0.00  0.00    -0.505 OA
ATOM     22  H   UNL     1     -37.336  15.711   0.454  0.00  0.00    +0.292 HD
ENDBRANCH  16  21
BRANCH  20  23
ATOM     23  O   UNL     1     -40.254  16.204  -3.509  0.00  0.00    -0.505 OA
ATOM     24  H   UNL     1     -41.189  16.187  -3.445  0.00  0.00    +0.292 HD
ENDBRANCH  20  23
ENDBRANCH  13  15
BRANCH   4  25
ATOM     25  C   UNL     1     -35.662  25.905   4.930  0.00  0.00    +0.125 C 
ATOM     26  C   UNL     1     -35.439  26.628   3.599  0.00  0.00    +0.033 C 
ATOM     27  C   UNL     1     -34.392  25.961   5.783  0.00  0.00    +0.033 C 
BRANCH  25  28
ATOM     28  O   UNL     1     -36.687  26.595   5.650  0.00  0.00    -0.383 OA
ATOM     29  H   UNL     1     -37.078  27.278   5.082  0.00  0.00    +0.210 HD
ENDBRANCH  25  28
ENDBRANCH   4  25
BRANCH   8  30
ATOM     30  O   UNL     1     -39.026  22.670   1.983  0.00  0.00    -0.472 OA
ATOM     31  C   UNL     1     -39.314  23.578   0.920  0.00  0.00    +0.252 C 
ENDBRANCH   8  30
TORSDOF 6
ENDMDL
