3325
  -OEChem-02061916293D

 35 35  0     0  0  0  0  0  0999 V2000
    0.9743   -2.0460    1.1294 S   0  0  0  0  0  0  0  0  0  0  0  0
    2.4949    2.0420   -0.1266 S   0  0  0  0  0  0  0  0  0  0  0  0
   -3.8046   -1.7708   -0.0591 S   0  0  0  0  0  0  0  0  0  0  0  0
    3.5842    2.6357   -0.8849 O   0  0  0  0  0  0  0  0  0  0  0  0
    2.4554    2.2199    1.3161 O   0  0  0  0  0  0  0  0  0  0  0  0
    2.4327    0.4437   -0.4610 N   0  0  0  0  0  0  0  0  0  0  0  0
   -1.6062   -0.5556   -0.6697 N   0  0  0  0  0  0  0  0  0  0  0  0
    4.5649   -0.0455    0.5428 N   0  0  0  0  0  0  0  0  0  0  0  0
   -3.5831    0.7639   -0.7522 N   0  0  0  0  0  0  0  0  0  0  0  0
    1.0427    2.7352   -0.7407 N   0  0  0  0  0  0  0  0  0  0  0  0
   -4.3883    2.7925    0.2889 N   0  0  0  0  0  0  0  0  0  0  0  0
   -3.2268    1.2489    1.5015 N   0  0  0  0  0  0  0  0  0  0  0  0
    3.2190   -1.8230   -0.4981 C   0  0  0  0  0  0  0  0  0  0  0  0
    2.6166   -2.6490    0.6343 C   0  0  0  0  0  0  0  0  0  0  0  0
    0.1248   -2.2817   -0.4480 C   0  0  0  0  0  0  0  0  0  0  0  0
    3.3984   -0.3562   -0.1167 C   0  0  0  0  0  0  0  0  0  0  0  0
   -1.3063   -1.8612   -0.3678 C   0  0  0  0  0  0  0  0  0  0  0  0
   -2.3486   -2.6761   -0.0157 C   0  0  0  0  0  0  0  0  0  0  0  0
   -2.9040   -0.3916   -0.5400 C   0  0  0  0  0  0  0  0  0  0  0  0
   -3.7398    1.5750    0.2675 C   0  0  0  0  0  0  0  0  0  0  0  0
    2.6516   -1.9001   -1.4297 H   0  0  0  0  0  0  0  0  0  0  0  0
    4.2114   -2.2316   -0.7295 H   0  0  0  0  0  0  0  0  0  0  0  0
    2.5401   -3.7009    0.3411 H   0  0  0  0  0  0  0  0  0  0  0  0
    3.2616   -2.6015    1.5181 H   0  0  0  0  0  0  0  0  0  0  0  0
    0.1888   -3.3353   -0.7415 H   0  0  0  0  0  0  0  0  0  0  0  0
    0.5931   -1.6841   -1.2338 H   0  0  0  0  0  0  0  0  0  0  0  0
   -2.3387   -3.7218    0.2570 H   0  0  0  0  0  0  0  0  0  0  0  0
    5.2550   -0.7547    0.7671 H   0  0  0  0  0  0  0  0  0  0  0  0
    4.7748    0.9027    0.8348 H   0  0  0  0  0  0  0  0  0  0  0  0
    0.1716    2.4618   -0.2678 H   0  0  0  0  0  0  0  0  0  0  0  0
    0.9431    2.7529   -1.7639 H   0  0  0  0  0  0  0  0  0  0  0  0
   -4.8196    3.1700   -0.5478 H   0  0  0  0  0  0  0  0  0  0  0  0
   -4.4517    3.3444    1.1373 H   0  0  0  0  0  0  0  0  0  0  0  0
   -3.3465    1.8755    2.2905 H   0  0  0  0  0  0  0  0  0  0  0  0
   -2.7156    0.3936    1.6874 H   0  0  0  0  0  0  0  0  0  0  0  0
  1 14  1  0  0  0  0
  1 15  1  0  0  0  0
  2  4  2  0  0  0  0
  2  5  2  0  0  0  0
  2  6  1  0  0  0  0
  2 10  1  0  0  0  0
  3 18  1  0  0  0  0
  3 19  1  0  0  0  0
  6 16  2  0  0  0  0
  7 17  1  0  0  0  0
  7 19  2  0  0  0  0
  8 16  1  0  0  0  0
  8 28  1  0  0  0  0
  8 29  1  0  0  0  0
  9 19  1  0  0  0  0
  9 20  2  0  0  0  0
 10 30  1  0  0  0  0
 10 31  1  0  0  0  0
 11 20  1  0  0  0  0
 11 32  1  0  0  0  0
 11 33  1  0  0  0  0
 12 20  1  0  0  0  0
 12 34  1  0  0  0  0
 12 35  1  0  0  0  0
 13 14  1  0  0  0  0
 13 16  1  0  0  0  0
 13 21  1  0  0  0  0
 13 22  1  0  0  0  0
 14 23  1  0  0  0  0
 14 24  1  0  0  0  0
 15 17  1  0  0  0  0
 15 25  1  0  0  0  0
 15 26  1  0  0  0  0
 17 18  2  0  0  0  0
 18 27  1  0  0  0  0
M  END
> <DATABASE_ID>
DB00927

> <DATABASE_NAME>
drugbank

> <ORIGINAL_SOURCE>
PUBCHEM

> <ORIGINAL_SOURCE_URL>
https://pubchem.ncbi.nlm.nih.gov/rest/pug/compound/inchikey/XUFQPHANEAPEMJ-UHFFFAOYSA-N/SDF?record_type=3d

> <SMILES>
NC(N)=NC1=NC(CSCCC(N)=NS(N)(=O)=O)=CS1

> <INCHI_IDENTIFIER>
InChI=1S/C8H15N7O2S3/c9-6(15-20(12,16)17)1-2-18-3-5-4-19-8(13-5)14-7(10)11/h4H,1-3H2,(H2,9,15)(H2,12,16,17)(H4,10,11,13,14)

> <INCHI_KEY>
XUFQPHANEAPEMJ-UHFFFAOYSA-N

> <FORMULA>
C8H15N7O2S3

> <MOLECULAR_WEIGHT>
337.445

> <EXACT_MASS>
337.044934829

> <JCHEM_ACCEPTOR_COUNT>
8

> <JCHEM_ATOM_COUNT>
35

> <JCHEM_AVERAGE_POLARIZABILITY>
31.660790323618677

> <JCHEM_BIOAVAILABILITY>
1

> <JCHEM_DONOR_COUNT>
4

> <JCHEM_FORMAL_CHARGE>
0

> <JCHEM_GHOSE_FILTER>
0

> <JCHEM_IUPAC>
3-[({2-[(diaminomethylidene)amino]-1,3-thiazol-4-yl}methyl)sulfanyl]-N'-sulfamoylpropanimidamide

> <ALOGPS_LOGP>
-0.20

> <JCHEM_LOGP>
-1.9500818776783027

> <ALOGPS_LOGS>
-3.10

> <JCHEM_MDDR_LIKE_RULE>
0

> <JCHEM_NUMBER_OF_RINGS>
1

> <JCHEM_PHYSIOLOGICAL_CHARGE>
1

> <JCHEM_PKA>
19.96080663134764

> <JCHEM_PKA_STRONGEST_ACIDIC>
9.287199600783744

> <JCHEM_PKA_STRONGEST_BASIC>
8.378924312799668

> <JCHEM_POLAR_SURFACE_AREA>
175.83

> <JCHEM_REFRACTIVITY>
80.46199999999999

> <JCHEM_ROTATABLE_BOND_COUNT>
6

> <JCHEM_RULE_OF_FIVE>
1

> <ALOGPS_SOLUBILITY>
2.71e-01 g/l

> <JCHEM_TRADITIONAL_IUPAC>
paricalcitol

> <JCHEM_VEBER_RULE>
0

> <DRUGBANK_ID>
DB00927

> <SECONDARY_ACCESSION_NUMBERS>
APRD00296

> <DRUG_GROUPS>
approved

> <GENERIC_NAME>
Famotidine

> <SYNONYMS>
(1-Amino-3-(((2-((diaminomethylene)amino)-4-thiazolyl)methyl)thio)propylidene)sulfamide; 3-(((2-((Aminoiminomethyl)amino)-4-thiazolyl)methyl)thio)-N-(aminosulfonyl)propanimidamide; 3-(((2-((Diaminomethylene)amino)-4-thiazolyl)methyl)thio)-N(sup 2)-sulfamoylpropionamidine; Famotidina; Famotidine; Famotidinum; N-Sulfamoyl-3-((2-guanidinothiazol-4-yl)methylthio)propionamide

> <PRODUCTS>
7 Select Acid Controller; Acid Control; Acid Control Original Strength; Acid Controller; Acid Controller Complete; Acid Controller Complete dual action; Acid Controller Maximum Strength; Acid Controller Original Strength; Acid Reducer; Acid Reducer Complete; Acid Reducer Maximum Strength; Acid Reducer Original Strength; Acid Reducer Plus Antacid; Acid reducer original strength; Act; Apo-famotidine; Apo-famotidine Injectable; Apo-famotidine Tab 20mg USP; Apo-famotidine Tab 40mg USP; Basic Care Acid Reducer; Basic Care Dual Action Complete; Basic Care famotidine; Bci Famotidine; Berkley and Jensen Acid Controller; Berkley and Jensen Acid Controller Complete; Berkley and Jensen Famotidine; Calmicid AC Acid Reducer; Calmicid AC Maximum Strength Acid Reducer; Care One Acid Reducer Original Strength; Care One Acid Reducer and Antacid Dual Action; Care One Acid Reducer plus Antacid Dual Action; CareOne Acid Reducer; CareOne Acid Reducer Complete; CareOne Acid Relief; Complete; Complete Dual Action; ConRx Acid Reducer; DG Health Dual Action Complete; DG Health acid reducer complete; DUO Fusion; Dg Health Heartburn Prevention; Dg Health Heartburn Prevention Original Strength; Dual Action; Dual Action Complete; Duexis; Equaline Complete Dual Action; Equaline Heartburn Prevention; Equate Acid Reducer Complete; Equate Famotidine; Family Wellness Acid Controller Complete; Family Wellness Acid Reducer; Famotidine; Famotidine - Acid Controller; Famotidine 10mg; Famotidine IV Injection; Famotidine Injection; Famotidine Omega -(with Preservative,benzyl Alcohol); Famotidine Omega -(without Preservative); Famotidine Tablets; Famotidine original strength; Famotidine-20; Famotidine-40; Fluxid; Good Neighbor Pharmacy Acid Reducer; Good Neighbor Pharmacy Acid Reducer Maximum Strength; Good Neighbor Pharmacy Complete; Good Neighbor Pharmacy Dual Action Complete; Good Neighbor Pharmacy acid reducer; Good Sense Acid Reducer; Good Sense Complete; Good Sense Dual Action Complete; Harris Teeter Acid Reducer; Harris Teeter Acid Reducer Complete; Health Mart Complete; Health Mart Dual Action Complete; Health Mart Famotidine; Healthy Accents Famotidine; Healthy Accents Famotidine Calcium Carbonate Magnesium Hydroxide; Healthy Accents Famotidine maximum strength; Heartburn Prevention; Heartburn Prevention Acid Reducer; Heartburn Prevention Original Strength; Heartburn Relief; Heartburn Relief Original Strength; Humana Pharmacy Acid Reducer; Kirkland Signature Acid Controller; Leader Acid Reducer Complete; Leader Acid Reducer Maximum Strength; Leader Acid Reducer Original Strength; Maalox H2 Acid Controller; Major Heartburn Relief Maximum Strength; Maximum Strength; Maximum Strength Acid Reducer; Maximum Strength Pepcid Ac; Members Mark Famotidine; Mylan-famotidine; Ntp-famotidine; Nu-famotidine Tab 20mg; Nu-famotidine Tab 40mg; PEPCID AC Maximum Strength; Penta-famotidine; Pepcid; Pepcid AC; Pepcid AC MAXIMUM STRENGTH; Pepcid AC Original Strength; Pepcid Ac (chewable Tab) - 10mg; Pepcid Complete; Pepcid I.V. 10mg/ml; Pepcid Tab 20mg; Pepcid Tab 40mg; Peptic Guard; Preferred Plus Complete; Premier Value Famotidine; Ratio-famotidine 20mg; Ratio-famotidine 40mg; Rhoxal-famotidine; Riva-famotidine 20 mg; Riva-famotidine 40 mg; Rx Act Heartburn Prevention maximum strength; ShopRite Acid Reducer; ShopRite Complete; ShopRite Dual Action Complete; Signature Care Acid Controller; Signature Care Acid Controller Complete; Signature Care Acid Controller maximum strength; Signature Care Acid Reducer Complete; Simply Right Famotidine; Simply Right Famotidine Complete; Smart Sense Acid Reducer; Smart Sense Acid Reducer Maximum Strength; Smart Sense Complete; Smart Sense Dual Action Complete; Smart Sense Famotidine; Sound Body Acid Reducer; SunMark Acid Reducer maximum strength; Sunmark Acid Reducer; Sunmark Dual Action Complete; Sunmark complete; Teva-famotidine; TopCare Acid Reducer; TopCare Complete acid reducer plus antacid; Topcare Complete; Topcare Dual Action Complete; Tums Dual Action; Ulcidine; Up and Up Acid Controller Complete Dual Action; Up and Up Acid Reducer Original Strength; Up and Up Famotidine; Up and Up Famotidine Complete; Up and Up acid reducer original strength; Up and Up dual action acid controller complete; equate Acid Controller Original Strength; smart sense Complete

> <INTERNATIONAL_BRANDS>
Amfamox; Antodine; Confobos; Cronol; Digervin; Dispromil; Duovel; Durater; Famocid; Famosan; Famotep; Famox; Famoxal; Famtac; Famulcer; Fanosin; Gaster; Lecedil; Motiax; Mylanta AR; Notidin; Nulceran; Panalba; Pepcid RPD; Pepcidin; Pepcidine; Pepdine; Pepfamin; Quamatel; Renapepsa; Rubacina; Sedanium-R; Supertidine; Tairal; Tipodex; Ulfagel; Ulfamid; Ulgarine; Vagostal

$$$$
