6560168
  -OEChem-10051719183D

 41 43  0     1  0  0  0  0  0999 V2000
   -0.9913    1.8414    0.2301 S   0  0  0  0  0  0  0  0  0  0  0  0
   -2.3875   -2.5913    0.0566 O   0  0  0  0  0  0  0  0  0  0  0  0
    2.1302   -0.7534    1.5603 O   0  0  0  0  0  0  0  0  0  0  0  0
   -4.7899   -0.8540   -1.7167 O   0  5  0  0  0  0  0  0  0  0  0  0
   -5.6988   -0.8366    0.3826 O   0  0  0  0  0  0  0  0  0  0  0  0
   -2.5747   -0.2754    0.4455 N   0  0  0  0  0  0  0  0  0  0  0  0
    0.3990   -0.8891    0.0208 N   0  0  0  0  0  0  0  0  0  0  0  0
    2.9401   -2.2233   -1.2380 N   0  3  0  0  0  0  0  0  0  0  0  0
   -1.5216    0.3983    1.1798 C   0  0  1  0  0  0  0  0  0  0  0  0
   -0.6965   -0.8946    0.9891 C   0  0  1  0  0  0  0  0  0  0  0  0
   -2.0166   -1.5039    0.4316 C   0  0  0  0  0  0  0  0  0  0  0  0
   -3.7008    0.3313   -0.0084 C   0  0  0  0  0  0  0  0  0  0  0  0
   -2.6421    2.6202    0.2822 C   0  0  0  0  0  0  0  0  0  0  0  0
   -3.7949    1.6801   -0.0604 C   0  0  0  0  0  0  0  0  0  0  0  0
    1.7407   -0.8178    0.3957 C   0  0  0  0  0  0  0  0  0  0  0  0
    2.6913   -0.8155   -0.7915 C   0  0  1  0  0  0  0  0  0  0  0  0
   -5.0139    2.4414   -0.5268 C   0  0  0  0  0  0  0  0  0  0  0  0
   -4.8489   -0.5439   -0.4983 C   0  0  0  0  0  0  0  0  0  0  0  0
    3.9673   -0.0673   -0.4763 C   0  0  0  0  0  0  0  0  0  0  0  0
    4.0364    1.2912   -0.7345 C   0  0  0  0  0  0  0  0  0  0  0  0
    5.0399   -0.7563    0.0643 C   0  0  0  0  0  0  0  0  0  0  0  0
    5.2131    1.9814   -0.4439 C   0  0  0  0  0  0  0  0  0  0  0  0
    6.2165   -0.0660    0.3551 C   0  0  0  0  0  0  0  0  0  0  0  0
    6.3031    1.3029    0.1010 C   0  0  0  0  0  0  0  0  0  0  0  0
   -1.7910    0.6031    2.2227 H   0  0  0  0  0  0  0  0  0  0  0  0
   -0.4047   -1.3655    1.9362 H   0  0  0  0  0  0  0  0  0  0  0  0
    0.1876   -0.9375   -0.9733 H   0  0  0  0  0  0  0  0  0  0  0  0
   -2.6099    3.4477   -0.4347 H   0  0  0  0  0  0  0  0  0  0  0  0
   -2.8045    3.0474    1.2778 H   0  0  0  0  0  0  0  0  0  0  0  0
    2.2065   -0.3394   -1.6526 H   0  0  0  0  0  0  0  0  0  0  0  0
   -5.8697    1.7964   -0.7422 H   0  0  0  0  0  0  0  0  0  0  0  0
   -4.7850    3.0008   -1.4399 H   0  0  0  0  0  0  0  0  0  0  0  0
   -5.3300    3.1506    0.2457 H   0  0  0  0  0  0  0  0  0  0  0  0
    2.0730   -2.6525   -1.5888 H   0  0  0  0  0  0  0  0  0  0  0  0
    3.2809   -2.8239   -0.4756 H   0  0  0  0  0  0  0  0  0  0  0  0
    3.6265   -2.2636   -2.0036 H   0  0  0  0  0  0  0  0  0  0  0  0
    3.1918    1.8285   -1.1561 H   0  0  0  0  0  0  0  0  0  0  0  0
    4.9996   -1.8166    0.2907 H   0  0  0  0  0  0  0  0  0  0  0  0
    5.2803    3.0474   -0.6406 H   0  0  0  0  0  0  0  0  0  0  0  0
    7.0642   -0.5930    0.7834 H   0  0  0  0  0  0  0  0  0  0  0  0
    7.2188    1.8406    0.3286 H   0  0  0  0  0  0  0  0  0  0  0  0
  1  9  1  0  0  0  0
  1 13  1  0  0  0  0
  2 11  2  0  0  0  0
  3 15  2  0  0  0  0
  4 18  1  0  0  0  0
  5 18  2  0  0  0  0
  6  9  1  0  0  0  0
  6 11  1  0  0  0  0
  6 12  1  0  0  0  0
  7 10  1  0  0  0  0
  7 15  1  0  0  0  0
  7 27  1  0  0  0  0
  8 16  1  0  0  0  0
  8 34  1  0  0  0  0
  8 35  1  0  0  0  0
  8 36  1  0  0  0  0
  9 10  1  0  0  0  0
  9 25  1  0  0  0  0
 10 11  1  0  0  0  0
 10 26  1  0  0  0  0
 12 14  2  0  0  0  0
 12 18  1  0  0  0  0
 13 14  1  0  0  0  0
 13 28  1  0  0  0  0
 13 29  1  0  0  0  0
 14 17  1  0  0  0  0
 15 16  1  0  0  0  0
 16 19  1  0  0  0  0
 16 30  1  0  0  0  0
 17 31  1  0  0  0  0
 17 32  1  0  0  0  0
 17 33  1  0  0  0  0
 19 20  2  0  0  0  0
 19 21  1  0  0  0  0
 20 22  1  0  0  0  0
 20 37  1  0  0  0  0
 21 23  2  0  0  0  0
 21 38  1  0  0  0  0
 22 24  2  0  0  0  0
 22 39  1  0  0  0  0
 23 24  1  0  0  0  0
 23 40  1  0  0  0  0
 24 41  1  0  0  0  0
M  CHG  2   4  -1   8   1
M  END
> <DATABASE_ID>
DB00567

> <DATABASE_NAME>
drugbank

> <ORIGINAL_SOURCE>
PUBCHEM

> <ORIGINAL_SOURCE_URL>
https://pubchem.ncbi.nlm.nih.gov/rest/pug/compound/inchikey/ZAIPMKNFIOOWCQ-UEKVPHQBSA-N/SDF?record_type=3d

> <SMILES>
[H][C@]12SCC(C)=C(N1C(=O)[C@H]2NC(=O)[C@H](N)C1=CC=CC=C1)C(O)=O

> <INCHI_IDENTIFIER>
InChI=1S/C16H17N3O4S/c1-8-7-24-15-11(14(21)19(15)12(8)16(22)23)18-13(20)10(17)9-5-3-2-4-6-9/h2-6,10-11,15H,7,17H2,1H3,(H,18,20)(H,22,23)/t10-,11-,15-/m1/s1

> <INCHI_KEY>
ZAIPMKNFIOOWCQ-UEKVPHQBSA-N

> <FORMULA>
C16H17N3O4S

> <MOLECULAR_WEIGHT>
347.389

> <EXACT_MASS>
347.093976737

> <JCHEM_ACCEPTOR_COUNT>
5

> <JCHEM_AVERAGE_POLARIZABILITY>
32.517372137229785

> <JCHEM_BIOAVAILABILITY>
1

> <JCHEM_DONOR_COUNT>
3

> <JCHEM_FORMAL_CHARGE>
0

> <JCHEM_GHOSE_FILTER>
0

> <JCHEM_IUPAC>
(6R,7R)-7-[(2R)-2-amino-2-phenylacetamido]-3-methyl-8-oxo-5-thia-1-azabicyclo[4.2.0]oct-2-ene-2-carboxylic acid

> <ALOGPS_LOGP>
0.55

> <JCHEM_LOGP>
-2.145040938549694

> <ALOGPS_LOGS>
-3.07

> <JCHEM_MDDR_LIKE_RULE>
0

> <JCHEM_NUMBER_OF_RINGS>
3

> <JCHEM_PHYSIOLOGICAL_CHARGE>
0

> <JCHEM_PKA>
11.912251938144717

> <JCHEM_PKA_STRONGEST_ACIDIC>
3.4520106778278037

> <JCHEM_PKA_STRONGEST_BASIC>
7.438374274238598

> <JCHEM_POLAR_SURFACE_AREA>
112.72999999999999

> <JCHEM_REFRACTIVITY>
88.97360000000002

> <JCHEM_ROTATABLE_BOND_COUNT>
4

> <JCHEM_RULE_OF_FIVE>
1

> <ALOGPS_SOLUBILITY>
2.97e-01 g/l

> <JCHEM_TRADITIONAL_IUPAC>
cephalexin

> <JCHEM_VEBER_RULE>
0

> <DRUGBANK_ID>
DB00567

> <SECONDARY_ACCESSION_NUMBERS>
APRD00250

> <DRUG_GROUPS>
approved; investigational; vet_approved

> <GENERIC_NAME>
Cephalexin

> <SYNONYMS>
(6R,7R)-7-{[(2R)-2-amino-2-phenylacetyl]amino}-3-methyl-8-oxo-5-thia-1-azabicyclo[4.2.0]oct-2-ene-2-carboxylic acid; 7-(D-alpha-Aminophenylacetamido)desacetoxycephalosporanic acid; 7-beta-(D-alpha-Amino-alpha-phenylacetylamino)-3-methyl-3-cephem-4-carboxylic acid; Anhydrous cefalexin; Anhydrous cephalexin; Cefalexin; Cefalexin anhydrous; Cefalexina; CÃ©falexine; Cefalexinum; Cephalexin anhydrous

> <PRODUCTS>
Apo-cephalex; Auro-cephalexin; Cephalexin; Cephalexin Oral Susp; Cephalexin Tab 250mg; Cephalexin USP; Cephalexin-500; Daxbia; Dom-cephalexin - Tab 250mg; Dom-cephalexin - Tab 500mg; Dom-cephalexin 125 - Sus 125mg/5ml; Dom-cephalexin 250 - Sus 250mg/5ml; Keflex; Lupin-cephalexin; Nu-cephalex Tab 250mg; Nu-cephalex Tab 500mg; PMS-cephalexin - Tab 250mg; PMS-cephalexin - Tab 500mg; PMS-cephalexin 125 - Sus 125mg/5ml; PMS-cephalexin 250 - Sus 250mg/5ml; Panixine Disperdose; Penta-cephalexin - 250mg; Penta-cephalexin - 500mg; Stcc-cephalexin -tab 250mg; Stcc-cephalexin -tab 500mg; Stcc-cephalexin 125 - Orl Sus 125mg/5ml; Stcc-cephalexin 250 - Sus Orl 250mg/5ml; Teva-cephalexin; Teva-cephalexin 125; Teva-cephalexin 250

> <INTERNATIONAL_BRANDS>
Alcephin; Alexin; Alsporin; Cefadin; Cefalin; Ceforal; Cefovit; Celexin; Cephin; Ceporexin; Felexin; Ibilex; Keforal; L-Keflex; Larixin; Lonflex; Madlexin; Nufex; Oriphex; Ospexin; Palitrex; Pyassan; Sanaxin; Sencephalin; Sepexin; Servispor; Sialexin; Sporicef; Sporidex; Syncl; Tepaxin; Uphalexin; Voxxim; Winlex

> <SALTS>
Cefalexin hydrochloride; Cefalexin monohydrate; Cefalexin sodium

$$$$
