3559
  -OEChem-10051719163D

 49 51  0     0  0  0  0  0  0999 V2000
    9.1803   -0.0588    0.2206 Cl  0  0  0  0  0  0  0  0  0  0  0  0
   -8.7674    1.3659    0.4286 F   0  0  0  0  0  0  0  0  0  0  0  0
    2.9355    1.3073   -1.2919 O   0  0  0  0  0  0  0  0  0  0  0  0
   -3.1855   -0.6296   -1.6256 O   0  0  0  0  0  0  0  0  0  0  0  0
    0.4668   -0.3825    0.7324 N   0  0  0  0  0  0  0  0  0  0  0  0
    3.1737    0.3608   -0.2394 C   0  0  0  0  0  0  0  0  0  0  0  0
    2.4552   -0.9541   -0.6160 C   0  0  0  0  0  0  0  0  0  0  0  0
    2.5665    0.8940    1.0788 C   0  0  0  0  0  0  0  0  0  0  0  0
    0.9271   -0.8337   -0.5852 C   0  0  0  0  0  0  0  0  0  0  0  0
    1.0327    0.9277    1.0694 C   0  0  0  0  0  0  0  0  0  0  0  0
   -0.9945   -0.3371    0.7774 C   0  0  0  0  0  0  0  0  0  0  0  0
    4.6953    0.2547   -0.1243 C   0  0  0  0  0  0  0  0  0  0  0  0
   -1.5758   -1.7227    0.4890 C   0  0  0  0  0  0  0  0  0  0  0  0
    5.3272   -0.9664   -0.3544 C   0  0  0  0  0  0  0  0  0  0  0  0
    5.4476    1.3792    0.2118 C   0  0  0  0  0  0  0  0  0  0  0  0
   -3.1067   -1.7286    0.5216 C   0  0  0  0  0  0  0  0  0  0  0  0
    6.7146   -1.0632   -0.2481 C   0  0  0  0  0  0  0  0  0  0  0  0
    6.8351    1.2823    0.3180 C   0  0  0  0  0  0  0  0  0  0  0  0
   -3.7373   -0.8510   -0.5505 C   0  0  0  0  0  0  0  0  0  0  0  0
    7.4685    0.0611    0.0882 C   0  0  0  0  0  0  0  0  0  0  0  0
   -5.0807   -0.2595   -0.2898 C   0  0  0  0  0  0  0  0  0  0  0  0
   -5.9585   -0.9445    0.5204 C   0  0  0  0  0  0  0  0  0  0  0  0
   -5.3937    0.9506   -0.8678 C   0  0  0  0  0  0  0  0  0  0  0  0
   -7.2149   -0.3905    0.7654 C   0  0  0  0  0  0  0  0  0  0  0  0
   -6.6502    1.5046   -0.6226 C   0  0  0  0  0  0  0  0  0  0  0  0
   -7.5608    0.8341    0.1939 C   0  0  0  0  0  0  0  0  0  0  0  0
    2.7352   -1.7553    0.0812 H   0  0  0  0  0  0  0  0  0  0  0  0
    2.7465   -1.2700   -1.6263 H   0  0  0  0  0  0  0  0  0  0  0  0
    2.9094    1.9158    1.2819 H   0  0  0  0  0  0  0  0  0  0  0  0
    2.9015    0.2697    1.9186 H   0  0  0  0  0  0  0  0  0  0  0  0
    0.5799   -1.8422   -0.8221 H   0  0  0  0  0  0  0  0  0  0  0  0
    0.5750   -0.1698   -1.3844 H   0  0  0  0  0  0  0  0  0  0  0  0
    0.6988    1.2257    2.0712 H   0  0  0  0  0  0  0  0  0  0  0  0
    0.6789    1.7007    0.3751 H   0  0  0  0  0  0  0  0  0  0  0  0
   -1.3218   -0.0251    1.7771 H   0  0  0  0  0  0  0  0  0  0  0  0
   -1.3792    0.4030    0.0653 H   0  0  0  0  0  0  0  0  0  0  0  0
   -1.2024   -2.4451    1.2255 H   0  0  0  0  0  0  0  0  0  0  0  0
   -1.3034   -2.0950   -0.5019 H   0  0  0  0  0  0  0  0  0  0  0  0
    1.9840    1.4897   -1.3469 H   0  0  0  0  0  0  0  0  0  0  0  0
    4.7909   -1.8683   -0.6268 H   0  0  0  0  0  0  0  0  0  0  0  0
    4.9772    2.3433    0.3830 H   0  0  0  0  0  0  0  0  0  0  0  0
   -3.4315   -1.3923    1.5127 H   0  0  0  0  0  0  0  0  0  0  0  0
   -3.4672   -2.7523    0.3692 H   0  0  0  0  0  0  0  0  0  0  0  0
    7.1956   -2.0207   -0.4315 H   0  0  0  0  0  0  0  0  0  0  0  0
    7.4102    2.1673    0.5782 H   0  0  0  0  0  0  0  0  0  0  0  0
   -5.7205   -1.9060    0.9635 H   0  0  0  0  0  0  0  0  0  0  0  0
   -4.6925    1.4858   -1.5007 H   0  0  0  0  0  0  0  0  0  0  0  0
   -7.9259   -0.9138    1.3979 H   0  0  0  0  0  0  0  0  0  0  0  0
   -6.9195    2.4585   -1.0664 H   0  0  0  0  0  0  0  0  0  0  0  0
  1 20  1  0  0  0  0
  2 26  1  0  0  0  0
  3  6  1  0  0  0  0
  3 39  1  0  0  0  0
  4 19  2  0  0  0  0
  5  9  1  0  0  0  0
  5 10  1  0  0  0  0
  5 11  1  0  0  0  0
  6  7  1  0  0  0  0
  6  8  1  0  0  0  0
  6 12  1  0  0  0  0
  7  9  1  0  0  0  0
  7 27  1  0  0  0  0
  7 28  1  0  0  0  0
  8 10  1  0  0  0  0
  8 29  1  0  0  0  0
  8 30  1  0  0  0  0
  9 31  1  0  0  0  0
  9 32  1  0  0  0  0
 10 33  1  0  0  0  0
 10 34  1  0  0  0  0
 11 13  1  0  0  0  0
 11 35  1  0  0  0  0
 11 36  1  0  0  0  0
 12 14  2  0  0  0  0
 12 15  1  0  0  0  0
 13 16  1  0  0  0  0
 13 37  1  0  0  0  0
 13 38  1  0  0  0  0
 14 17  1  0  0  0  0
 14 40  1  0  0  0  0
 15 18  2  0  0  0  0
 15 41  1  0  0  0  0
 16 19  1  0  0  0  0
 16 42  1  0  0  0  0
 16 43  1  0  0  0  0
 17 20  2  0  0  0  0
 17 44  1  0  0  0  0
 18 20  1  0  0  0  0
 18 45  1  0  0  0  0
 19 21  1  0  0  0  0
 21 22  2  0  0  0  0
 21 23  1  0  0  0  0
 22 24  1  0  0  0  0
 22 46  1  0  0  0  0
 23 25  2  0  0  0  0
 23 47  1  0  0  0  0
 24 26  2  0  0  0  0
 24 48  1  0  0  0  0
 25 26  1  0  0  0  0
 25 49  1  0  0  0  0
M  END
> <DATABASE_ID>
DB00502

> <DATABASE_NAME>
drugbank

> <ORIGINAL_SOURCE>
PUBCHEM

> <ORIGINAL_SOURCE_URL>
https://pubchem.ncbi.nlm.nih.gov/rest/pug/compound/inchikey/LNEPOXFFQSENCJ-UHFFFAOYSA-N/SDF?record_type=3d

> <SMILES>
OC1(CCN(CCCC(=O)C2=CC=C(F)C=C2)CC1)C1=CC=C(Cl)C=C1

> <INCHI_IDENTIFIER>
InChI=1S/C21H23ClFNO2/c22-18-7-5-17(6-8-18)21(26)11-14-24(15-12-21)13-1-2-20(25)16-3-9-19(23)10-4-16/h3-10,26H,1-2,11-15H2

> <INCHI_KEY>
LNEPOXFFQSENCJ-UHFFFAOYSA-N

> <FORMULA>
C21H23ClFNO2

> <MOLECULAR_WEIGHT>
375.864

> <EXACT_MASS>
375.140134897

> <JCHEM_ACCEPTOR_COUNT>
3

> <JCHEM_AVERAGE_POLARIZABILITY>
39.147554540287445

> <JCHEM_BIOAVAILABILITY>
1

> <JCHEM_DONOR_COUNT>
1

> <JCHEM_FORMAL_CHARGE>
0

> <JCHEM_GHOSE_FILTER>
1

> <JCHEM_IUPAC>
4-[4-(4-chlorophenyl)-4-hydroxypiperidin-1-yl]-1-(4-fluorophenyl)butan-1-one

> <ALOGPS_LOGP>
3.70

> <JCHEM_LOGP>
3.6611138006666666

> <ALOGPS_LOGS>
-4.93

> <JCHEM_MDDR_LIKE_RULE>
1

> <JCHEM_NUMBER_OF_RINGS>
3

> <JCHEM_PHYSIOLOGICAL_CHARGE>
1

> <JCHEM_PKA>
16.398188334958146

> <JCHEM_PKA_STRONGEST_ACIDIC>
13.963255005315197

> <JCHEM_PKA_STRONGEST_BASIC>
8.045287776980366

> <JCHEM_POLAR_SURFACE_AREA>
40.54

> <JCHEM_REFRACTIVITY>
102.59190000000001

> <JCHEM_ROTATABLE_BOND_COUNT>
6

> <JCHEM_RULE_OF_FIVE>
1

> <ALOGPS_SOLUBILITY>
4.46e-03 g/l

> <JCHEM_TRADITIONAL_IUPAC>
haloperidol

> <JCHEM_VEBER_RULE>
0

> <DRUGBANK_ID>
DB00502

> <SECONDARY_ACCESSION_NUMBERS>
APRD00538

> <DRUG_GROUPS>
approved

> <GENERIC_NAME>
Haloperidol

> <SYNONYMS>
1-(3-p-fluorobenzoylpropyl)-4-p-chlorophenyl-4-hydroxypiperidine; 4-(4-(para-chlorophenyl)-4-hydroxypiperidino)-4'-fluorobutyrophenone; 4-[4-(4-chlorophenyl)-4-hydroxy-1-piperidyl]-1-(4-fluorophenyl)-butan-1-one; 4'-fluoro-4-(4-(p-chlorophenyl)-4-hydroxypiperidinyl)butyrophenone; 4'-fluoro-4-(4-hydroxy-4-(4'-chlorophenyl)piperidino)butyrophenone; Haloperidol; Haloperidolum; Î³-(4-(p-chlorophenyl)-4-hydroxpiperidino)-p-fluorbutyrophenone

> <PRODUCTS>
Apo Haloperidol Liq 2mg/ml; Apo Haloperidol Tab 0.5mg; Apo Haloperidol Tab 1mg; Apo-haloperidol LA Injectable; Apo-haloperidol Tab 10mg; Apo-haloperidol Tab 2mg; Apo-haloperidol Tab 5mg; Haldol; Haldol Decanoate; Haldol Injection 5mg/ml; Haldol LA Inj 100mg/ml; Haldol LA Inj 50mg/ml; Haloperidol; Haloperidol Decanoate; Haloperidol Decanoate Inj. Liq Im 100mg/ml; Haloperidol Decanoate Inj. Liq Im 50mg/ml; Haloperidol Decanoate Injection; Haloperidol Inj 5mg/ml USP; Haloperidol Injection; Haloperidol Injection, USP; Haloperidol LA; Haloperidol Lactate; Haloperidol Long Acting; Haloperidol Tab 0.5mg; Haloperidol Tab 1mg; Haloperidol Tab 2mg; Haloperidol Tab 5mg; Haloperidol decanoate; Haloperidol-10 Tab 10mg; Haloperidol-LA Omega; Novo-peridol Oral Soln 2mg/ml; Nu-haloperidol; PMS-haloperidol Soln 2mg/ml; PMS-haloperidol-LA; Ratio-haloperidol 2mg/ml; Ratio-haloperidol Tab 0.5mg; Ratio-haloperidol Tab 10mg; Ratio-haloperidol Tab 1mg; Ratio-haloperidol Tab 2mg; Ratio-haloperidol Tab 5mg; Rho-haloperidol Decanoate Inj.-im 100mg/ml; Rho-haloperidol Decanoate Inj.-im 50mg/ml; Teva-haloperidol

> <INTERNATIONAL_BRANDS>
Aloperidin; Bioperidolo; Brotopon; Dozic; Duraperidol; Einalon S; Eukystol; Halosten; Keselan; Linton; Peluces; Serenace; Sigaperidol

> <SALTS>
Haloperidol decanoate; Haloperidol lactate

$$$$
