60825
  -OEChem-10051719213D

 26 27  0     1  0  0  0  0  0999 V2000
   -3.1049   -1.2086   -0.8358 S   0  0  0  0  0  0  0  0  0  0  0  0
   -1.5844    0.2040    0.8145 O   0  0  0  0  0  0  0  0  0  0  0  0
   -3.4197    1.8189   -0.5143 O   0  0  0  0  0  0  0  0  0  0  0  0
    1.5655   -2.3556    0.3684 O   0  0  0  0  0  0  0  0  0  0  0  0
    0.5818   -0.2866    0.1062 N   0  0  0  0  0  0  0  0  0  0  0  0
    2.9565   -0.5831    0.0947 N   0  0  0  0  0  0  0  0  0  0  0  0
    4.3762    1.2376   -0.1846 N   0  0  0  0  0  0  0  0  0  0  0  0
   -0.7575   -0.7937    0.2047 C   0  0  2  0  0  0  0  0  0  0  0  0
   -1.3380   -1.1114   -1.1652 C   0  0  0  0  0  0  0  0  0  0  0  0
   -2.9513   -0.2048    0.6657 C   0  0  1  0  0  0  0  0  0  0  0  0
   -3.8265    1.0329    0.5942 C   0  0  0  0  0  0  0  0  0  0  0  0
    0.7451    1.0664   -0.0812 C   0  0  0  0  0  0  0  0  0  0  0  0
    1.6940   -1.1418    0.1989 C   0  0  0  0  0  0  0  0  0  0  0  0
    1.9504    1.6231   -0.1826 C   0  0  0  0  0  0  0  0  0  0  0  0
    3.1128    0.7025   -0.0836 C   0  0  0  0  0  0  0  0  0  0  0  0
   -0.7605   -1.6854    0.8466 H   0  0  0  0  0  0  0  0  0  0  0  0
   -1.1695   -0.3028   -1.8839 H   0  0  0  0  0  0  0  0  0  0  0  0
   -0.9424   -2.0410   -1.5834 H   0  0  0  0  0  0  0  0  0  0  0  0
   -3.2263   -0.8142    1.5329 H   0  0  0  0  0  0  0  0  0  0  0  0
   -3.7086    1.6448    1.4946 H   0  0  0  0  0  0  0  0  0  0  0  0
   -4.8860    0.7822    0.4824 H   0  0  0  0  0  0  0  0  0  0  0  0
   -0.1347    1.6920   -0.1741 H   0  0  0  0  0  0  0  0  0  0  0  0
    2.1014    2.6825   -0.3411 H   0  0  0  0  0  0  0  0  0  0  0  0
   -2.4819    2.0423   -0.3881 H   0  0  0  0  0  0  0  0  0  0  0  0
    4.5301    2.2310   -0.3228 H   0  0  0  0  0  0  0  0  0  0  0  0
    5.1982    0.6467   -0.1225 H   0  0  0  0  0  0  0  0  0  0  0  0
  1  9  1  0  0  0  0
  1 10  1  0  0  0  0
  2  8  1  0  0  0  0
  2 10  1  0  0  0  0
  3 11  1  0  0  0  0
  3 24  1  0  0  0  0
  4 13  2  0  0  0  0
  5  8  1  0  0  0  0
  5 12  1  0  0  0  0
  5 13  1  0  0  0  0
  6 13  1  0  0  0  0
  6 15  2  0  0  0  0
  7 15  1  0  0  0  0
  7 25  1  0  0  0  0
  7 26  1  0  0  0  0
  8  9  1  0  0  0  0
  8 16  1  0  0  0  0
  9 17  1  0  0  0  0
  9 18  1  0  0  0  0
 10 11  1  0  0  0  0
 10 19  1  0  0  0  0
 11 20  1  0  0  0  0
 11 21  1  0  0  0  0
 12 14  2  0  0  0  0
 12 22  1  0  0  0  0
 14 15  1  0  0  0  0
 14 23  1  0  0  0  0
M  END
> <DATABASE_ID>
DB00709

> <DATABASE_NAME>
drugbank

> <ORIGINAL_SOURCE>
PUBCHEM

> <ORIGINAL_SOURCE_URL>
https://pubchem.ncbi.nlm.nih.gov/rest/pug/compound/inchikey/JTEGQNOMFQHVDC-NKWVEPMBSA-N/SDF?record_type=3d

> <SMILES>
NC1=NC(=O)N(C=C1)[C@@H]1CS[C@H](CO)O1

> <INCHI_IDENTIFIER>
InChI=1S/C8H11N3O3S/c9-5-1-2-11(8(13)10-5)6-4-15-7(3-12)14-6/h1-2,6-7,12H,3-4H2,(H2,9,10,13)/t6-,7+/m0/s1

> <INCHI_KEY>
JTEGQNOMFQHVDC-NKWVEPMBSA-N

> <FORMULA>
C8H11N3O3S

> <MOLECULAR_WEIGHT>
229.256

> <EXACT_MASS>
229.052111923

> <JCHEM_ACCEPTOR_COUNT>
5

> <JCHEM_AVERAGE_POLARIZABILITY>
21.69986366490535

> <JCHEM_BIOAVAILABILITY>
1

> <JCHEM_DONOR_COUNT>
2

> <JCHEM_FORMAL_CHARGE>
0

> <JCHEM_GHOSE_FILTER>
0

> <JCHEM_IUPAC>
4-amino-1-[(2R,5S)-2-(hydroxymethyl)-1,3-oxathiolan-5-yl]-1,2-dihydropyrimidin-2-one

> <ALOGPS_LOGP>
-1.29

> <JCHEM_LOGP>
-1.0951075880000003

> <ALOGPS_LOGS>
-1.92

> <JCHEM_MDDR_LIKE_RULE>
0

> <JCHEM_NUMBER_OF_RINGS>
2

> <JCHEM_PHYSIOLOGICAL_CHARGE>
0

> <JCHEM_PKA_STRONGEST_ACIDIC>
14.294605913828615

> <JCHEM_PKA_STRONGEST_BASIC>
-0.16058074296490987

> <JCHEM_POLAR_SURFACE_AREA>
88.15

> <JCHEM_REFRACTIVITY>
55.1645

> <JCHEM_ROTATABLE_BOND_COUNT>
2

> <JCHEM_RULE_OF_FIVE>
1

> <ALOGPS_SOLUBILITY>
2.76e+00 g/l

> <JCHEM_TRADITIONAL_IUPAC>
lamivudine

> <JCHEM_VEBER_RULE>
0

> <DRUGBANK_ID>
DB00709

> <SECONDARY_ACCESSION_NUMBERS>
APRD00681

> <DRUG_GROUPS>
approved; investigational

> <GENERIC_NAME>
Lamivudine

> <SYNONYMS>
(-)-1-((2R,5S)-2-(Hydroxymethyl)-1,3-oxathiolan-5-yl)cytosine; (-)-2'-Deoxy-3'-thiacytidine; 2',3'-Dideoxy-3'-thiacytidine; 3'-Thia-2',3'-dideoxycytidine; 3TC; beta-L-2',3'-Dideoxy-3'-thiacytidine; beta-L-3'-Thia-2',3'-dideoxycytidine; Lamivudin; Lamivudina; Lamivudine; Lamivudinum

> <PRODUCTS>
3tc; Abacavir Sulfate, Lamivudine and Zidovudine; Abacavir and Lamivudine; Abacavir and lamivudine; Abacavir, Lamivudine and Zidovudine; Apo-abacavir-lamivudine; Apo-abacavir-lamivudine-zidovudine; Apo-lamivudine; Apo-lamivudine Hbv; Apo-lamivudine-zidovudine; Apo-zidovudine-lamivudine-nevirapine; Auro-abacavir/lamivudine; Auro-lamivudine; Auro-lamivudine/zidovudine; Cimduo; Combivir; Delstrigo; Dovato; Dutrebis; Efavirenz, Lamivudine and Tenofovir Disoproxil Fumarate; Epivir; Epivir Hbv; Epzicom; Heptovir; Kivexa; LAMIVUDINE and ZIDOVUDINE; Lamivudine; Lamivudine Oral Solution; Lamivudine Teva; Lamivudine Teva Pharma B.V.; Lamivudine Zidovudine; Lamivudine and Zidovudine; Lamivudine, Nevirapine, and Zidovudine; Lamivudine/zidovudine Teva; Mylan-abacavir/lamivudine; PMS-abacavir-lamivudine; Symfi; Symfi Lo; Temixys; Teva-abacavir/lamivudine; Teva-lamivudine/zidovudine; Triumeq; Trizivir; lamiVUDine and ZIDOVUDINE

> <INTERNATIONAL_BRANDS>
Amilitrap; Antiheb; Avilam; Avolam; Epivir-HBV; Flamivud; Ganvirel; Hepavir; Hepitec; Heptavir; Heptodin; Heptodine; Lamda; Lamibergen; Lamidac; Lamitec; Lamivir; Zeffix

$$$$
