31307
  -OEChem-10051719193D

 55 58  0     1  0  0  0  0  0999 V2000
   -1.3375    0.0962   -1.2736 F   0  0  0  0  0  0  0  0  0  0  0  0
    2.9861   -0.2426   -1.8148 O   0  0  0  0  0  0  0  0  0  0  0  0
   -0.2973    2.2020    1.4631 O   0  0  0  0  0  0  0  0  0  0  0  0
    3.7761   -2.6450   -0.9762 O   0  0  0  0  0  0  0  0  0  0  0  0
    5.2960   -0.0665    0.4995 O   0  0  0  0  0  0  0  0  0  0  0  0
    5.6151    2.3657   -0.7588 O   0  0  0  0  0  0  0  0  0  0  0  0
   -6.1940    0.1425   -1.6319 O   0  0  0  0  0  0  0  0  0  0  0  0
    1.8115    0.1441    0.3050 C   0  0  1  0  0  0  0  0  0  0  0  0
    0.9009   -1.0723    0.0220 C   0  0  2  0  0  0  0  0  0  0  0  0
   -0.4911   -0.9496    0.6589 C   0  0  1  0  0  0  0  0  0  0  0  0
   -1.2080    0.3235    0.0891 C   0  0  1  0  0  0  0  0  0  0  0  0
    3.1071   -0.3467   -0.3999 C   0  0  1  0  0  0  0  0  0  0  0  0
    1.1313    1.3799   -0.3167 C   0  0  0  0  0  0  0  0  0  0  0  0
    1.7734   -2.2789    0.3781 C   0  0  0  0  0  0  0  0  0  0  0  0
   -0.3159    1.5986    0.1799 C   0  0  2  0  0  0  0  0  0  0  0  0
    3.2109   -1.8281    0.0382 C   0  0  1  0  0  0  0  0  0  0  0  0
   -2.6837    0.4614    0.6361 C   0  0  1  0  0  0  0  0  0  0  0  0
   -1.3170   -2.2209    0.3867 C   0  0  0  0  0  0  0  0  0  0  0  0
    2.1030    0.3682    1.8148 C   0  0  0  0  0  0  0  0  0  0  0  0
   -2.7475   -2.1032    0.8987 C   0  0  0  0  0  0  0  0  0  0  0  0
   -3.4029   -0.8625    0.3475 C   0  0  0  0  0  0  0  0  0  0  0  0
    4.3330    0.4498   -0.0657 C   0  0  0  0  0  0  0  0  0  0  0  0
   -2.7837    0.7302    2.1550 C   0  0  0  0  0  0  0  0  0  0  0  0
   -3.3877    1.6279   -0.0417 C   0  0  0  0  0  0  0  0  0  0  0  0
   -4.5253   -0.9583   -0.3822 C   0  0  0  0  0  0  0  0  0  0  0  0
    4.3119    1.9108   -0.4616 C   0  0  0  0  0  0  0  0  0  0  0  0
   -4.5047    1.5388   -0.7703 C   0  0  0  0  0  0  0  0  0  0  0  0
   -5.1598    0.2347   -0.9792 C   0  0  0  0  0  0  0  0  0  0  0  0
    0.7362   -1.1386   -1.0660 H   0  0  0  0  0  0  0  0  0  0  0  0
   -0.3843   -0.8539    1.7443 H   0  0  0  0  0  0  0  0  0  0  0  0
    1.0956    1.2794   -1.4085 H   0  0  0  0  0  0  0  0  0  0  0  0
    1.7059    2.2842   -0.0956 H   0  0  0  0  0  0  0  0  0  0  0  0
    1.6944   -2.5050    1.4478 H   0  0  0  0  0  0  0  0  0  0  0  0
    1.4719   -3.1726   -0.1779 H   0  0  0  0  0  0  0  0  0  0  0  0
   -0.7317    2.3493   -0.5050 H   0  0  0  0  0  0  0  0  0  0  0  0
    3.8291   -1.9541    0.9344 H   0  0  0  0  0  0  0  0  0  0  0  0
   -0.8442   -3.0856    0.8672 H   0  0  0  0  0  0  0  0  0  0  0  0
   -1.3339   -2.4310   -0.6910 H   0  0  0  0  0  0  0  0  0  0  0  0
    1.1899    0.4671    2.4061 H   0  0  0  0  0  0  0  0  0  0  0  0
    2.6723   -0.4491    2.2675 H   0  0  0  0  0  0  0  0  0  0  0  0
    2.6779    1.2867    1.9725 H   0  0  0  0  0  0  0  0  0  0  0  0
   -2.7544   -2.0716    1.9942 H   0  0  0  0  0  0  0  0  0  0  0  0
   -3.3004   -3.0074    0.6162 H   0  0  0  0  0  0  0  0  0  0  0  0
   -3.8058    0.5602    2.5193 H   0  0  0  0  0  0  0  0  0  0  0  0
   -2.1253    0.0819    2.7406 H   0  0  0  0  0  0  0  0  0  0  0  0
   -2.5400    1.7635    2.4199 H   0  0  0  0  0  0  0  0  0  0  0  0
   -2.9635    2.6202    0.0948 H   0  0  0  0  0  0  0  0  0  0  0  0
    3.7079   -0.7572   -2.2150 H   0  0  0  0  0  0  0  0  0  0  0  0
   -0.9941    2.8791    1.4820 H   0  0  0  0  0  0  0  0  0  0  0  0
    3.7661   -3.5619   -0.6527 H   0  0  0  0  0  0  0  0  0  0  0  0
   -5.0024   -1.9135   -0.5745 H   0  0  0  0  0  0  0  0  0  0  0  0
    3.9275    2.5028    0.3716 H   0  0  0  0  0  0  0  0  0  0  0  0
    3.6966    2.0825   -1.3471 H   0  0  0  0  0  0  0  0  0  0  0  0
   -4.9595    2.4163   -1.2150 H   0  0  0  0  0  0  0  0  0  0  0  0
    5.9182    1.8891   -1.5506 H   0  0  0  0  0  0  0  0  0  0  0  0
  1 11  1  0  0  0  0
  2 12  1  0  0  0  0
  2 48  1  0  0  0  0
  3 15  1  0  0  0  0
  3 49  1  0  0  0  0
  4 16  1  0  0  0  0
  4 50  1  0  0  0  0
  5 22  2  0  0  0  0
  6 26  1  0  0  0  0
  6 55  1  0  0  0  0
  7 28  2  0  0  0  0
  8  9  1  0  0  0  0
  8 12  1  0  0  0  0
  8 13  1  0  0  0  0
  8 19  1  0  0  0  0
  9 10  1  0  0  0  0
  9 14  1  0  0  0  0
  9 29  1  0  0  0  0
 10 11  1  0  0  0  0
 10 18  1  0  0  0  0
 10 30  1  0  0  0  0
 11 15  1  0  0  0  0
 11 17  1  0  0  0  0
 12 16  1  0  0  0  0
 12 22  1  0  0  0  0
 13 15  1  0  0  0  0
 13 31  1  0  0  0  0
 13 32  1  0  0  0  0
 14 16  1  0  0  0  0
 14 33  1  0  0  0  0
 14 34  1  0  0  0  0
 15 35  1  0  0  0  0
 16 36  1  0  0  0  0
 17 21  1  0  0  0  0
 17 23  1  0  0  0  0
 17 24  1  0  0  0  0
 18 20  1  0  0  0  0
 18 37  1  0  0  0  0
 18 38  1  0  0  0  0
 19 39  1  0  0  0  0
 19 40  1  0  0  0  0
 19 41  1  0  0  0  0
 20 21  1  0  0  0  0
 20 42  1  0  0  0  0
 20 43  1  0  0  0  0
 21 25  2  0  0  0  0
 22 26  1  0  0  0  0
 23 44  1  0  0  0  0
 23 45  1  0  0  0  0
 23 46  1  0  0  0  0
 24 27  2  0  0  0  0
 24 47  1  0  0  0  0
 25 28  1  0  0  0  0
 25 51  1  0  0  0  0
 26 52  1  0  0  0  0
 26 53  1  0  0  0  0
 27 28  1  0  0  0  0
 27 54  1  0  0  0  0
M  END
> <DATABASE_ID>
DB00620

> <DATABASE_NAME>
drugbank

> <ORIGINAL_SOURCE>
PUBCHEM

> <ORIGINAL_SOURCE_URL>
https://pubchem.ncbi.nlm.nih.gov/rest/pug/compound/inchikey/GFNANZIMVAIWHM-OBYCQNJPSA-N/SDF?record_type=3d

> <SMILES>
[H][C@@]12C[C@@H](O)[C@](O)(C(=O)CO)[C@@]1(C)C[C@H](O)[C@@]1(F)[C@@]2([H])CCC2=CC(=O)C=C[C@]12C

> <INCHI_IDENTIFIER>
InChI=1S/C21H27FO6/c1-18-6-5-12(24)7-11(18)3-4-13-14-8-15(25)21(28,17(27)10-23)19(14,2)9-16(26)20(13,18)22/h5-7,13-16,23,25-26,28H,3-4,8-10H2,1-2H3/t13-,14-,15+,16-,18-,19-,20-,21-/m0/s1

> <INCHI_KEY>
GFNANZIMVAIWHM-OBYCQNJPSA-N

> <FORMULA>
C21H27FO6

> <MOLECULAR_WEIGHT>
394.4339

> <EXACT_MASS>
394.179166801

> <JCHEM_ACCEPTOR_COUNT>
6

> <JCHEM_AVERAGE_POLARIZABILITY>
39.79413250441519

> <JCHEM_BIOAVAILABILITY>
1

> <JCHEM_DONOR_COUNT>
4

> <JCHEM_FORMAL_CHARGE>
0

> <JCHEM_GHOSE_FILTER>
1

> <JCHEM_IUPAC>
(1R,2S,10S,11S,13R,14S,15S,17S)-1-fluoro-13,14,17-trihydroxy-14-(2-hydroxyacetyl)-2,15-dimethyltetracyclo[8.7.0.0²,⁷.0¹¹,¹⁵]heptadeca-3,6-dien-5-one

> <ALOGPS_LOGP>
0.84

> <JCHEM_LOGP>
0.241693246333333

> <ALOGPS_LOGS>
-2.67

> <JCHEM_MDDR_LIKE_RULE>
0

> <JCHEM_NUMBER_OF_RINGS>
4

> <JCHEM_PHYSIOLOGICAL_CHARGE>
0

> <JCHEM_PKA>
13.40199652732899

> <JCHEM_PKA_STRONGEST_ACIDIC>
11.751342957737346

> <JCHEM_PKA_STRONGEST_BASIC>
-3.3242114589177625

> <JCHEM_POLAR_SURFACE_AREA>
115.06

> <JCHEM_REFRACTIVITY>
99.38279999999999

> <JCHEM_ROTATABLE_BOND_COUNT>
2

> <JCHEM_RULE_OF_FIVE>
1

> <ALOGPS_SOLUBILITY>
8.47e-01 g/l

> <JCHEM_TRADITIONAL_IUPAC>
triamcinolone

> <JCHEM_VEBER_RULE>
0

> <DRUGBANK_ID>
DB00620

> <SECONDARY_ACCESSION_NUMBERS>
APRD00422

> <DRUG_GROUPS>
approved; vet_approved

> <GENERIC_NAME>
Triamcinolone

> <SYNONYMS>
11β,16α,17α,21-tetrahydroxy-9α-fluoro-1,4-pregnadiene-3,20-dione; 9-fluoro-11β,16α,17,21-tetrahydroxypregna-1,4-diene-3,20-dione; 9α-fluoro-11β,16α,17,21-tetrahydroxypregna-1,4-diene-3,20-dione; 9α-fluoro-11β,16α,17α,21-tetrahydroxypregna-1,4-diene-3,20-dione; 9α-fluoro-16α-hydroxyprednisolone; Fluoxyprednisolone; Tiamcinolonum; Triamcinolona; Triamcinolone; Triamcinolonum

> <PRODUCTS>
24 Hour Nasal Allergy; AllerNaze; Allergy Nasal; Apo-triamcinolone AQ; Aristocort; Aristocort - Syr Orl 0.4mg/ml; Aristocort - Tab 4mg; Aristocort C; Aristocort C Crm 0.5%; Aristocort D - Crm Top 0.025%; Aristocort D Crm 0.025%; Aristocort Forte - Liq Ia Im Isy 40mg/ml; Aristocort Forte Inj 40mg/ml; Aristocort Inj Intralesional 25mg/ml; Aristocort Inj Intralesional-25mg/ml; Aristocort R; Aristocort R Crm 0.1%; Aristocort R Ont 0.1%; Aristocort Syr 2mg/5ml; Aristocort Tab 2mg; Aristocort Tab 4mg; Aristocort-tab 2mg; Aristoform R Crm 0.1%; Aristospan; Aristospan Sus 20mg/ml; Arze-ject-A; Azmacort; Basic Care Nasal Allergy; Bt; Bupivilog Kit; Calcipotriene 0.005% / Triamcinolone Acetonide 0.1%; CareOne Allergy Relief; Childrens Nasacort Allergy 24HR; Childrens Nasal Allergy; Cortaren Corticosteroid/Anti-Inflammatory System; DermacinRx Cinlone-I CPI; DermacinRx Cinlone-II CPI; DermacinRx SilaPak; DermacinRx Silazone Pak; DermacinRx Trizapak; Dermasilkrx SDSpak; Dermasorb TA Complete Kit; Dermawerx SDS Pak; Dermazone; Ellzia Pak; Equaline nasal allergy; Equate Nasal Allergy; Good Neighbor Pharmacy 24 Hour Nasal Allergy; Good Sense Nasal Allergy; Harris Teeter Nasal Allergy; Health Mart 24 hour nasal allergy; Healthy Accents Nasal Allergy; Hydroquinone 4% / Tretinoin 0.025% / Triamcinolone Acetonide 0.025%; Hydroquinone 5% / Tretinoin 0.025% / Triamcinolone Acetonide 0.025%; Hydroquinone 6% / Tretinoin 0.05% / Triamcinolone 0.025%; Interarticular Joint Kit; JTT Physicians Joint, Tunnel and Trigger; Juulissa Pharmapak; K10-lido; K40-lido; Kenacomb Cream; Kenacomb Mild Cream; Kenacomb Mild Ointment; Kenacomb Ointment; Kenacomb Ont; Kenalog; Kenalog Cream 0.1%; Kenalog In Orabase 0.1%; Kenalog Ointment 0.1%; Kenalog Ont 0.1%; Kenalog-10; Kenalog-10 Injection 10mg/ml; Kenalog-40; Kenalog-40 Injection 40mg/ml; Kenalog-80; Leader Nasal Allergy; Levocetirizine Dihydrochloride 2% / Mupirocin 2% / Triamcinolone Acetonide 0.025%; Lidolog Kit; Lt; MLK F1 Kit; MLK F3 Kit; MLK F4 Kit; MLK Kit F2; Mecomb Crm 0.1%; Mlp A-1; Mlp A-2; Mycolog-II; NASAL Allergy 24 Hour; NEWSDS pak; Naltrexone; Nasacort; Nasacort AQ; Nasacort Allergy 24HR; Nasacort HFA; Nasal Allergy; Nasal Spray Allergy 24hr; Niacinamide 4% / Triamcinolone Acetonide 0.1%; NuTriaRX CreamPak; Nystatin and Triamcinolone; Nystatin and Triamcinolone Acetonide; Omnitrenidol; Oracort Dental Paste 0.1%; Oralone; Oramedy; P-Care K40; P-Care K40G; P-Care K40MX; P-Care K80; P-Care K80G; P-Care K80MX; Pediaderm TA; Pentoxifylline 0.5% / Triamcinolone Acetonide 0.1%; Physician EZ Use Joint Tunnel and Trigger Kit; Point Of Care Kit KM; Pro-C-Dure 1 Kit; Pro-C-Dure 2 Kit; Pro-C-Dure 3 Kit; Pro-C-Dure 4 Kit; Pro-C-Dure 5 Kit; Pro-C-Dure 6 Kit; Protherix; ReadySharp Triamcinolone; ReadySharp-K; SanaDermRx SKin Repair; Scarzen; Scheinpharm Triamcine-A Inject.sus-40mg/ml; Shoprite Nasal Allergy; Signature Care Nasal Allergy; Sila III; SilaLite Pak; Silazone-II; Smart Sense Nasal Allergy; Sure ResultTAC Pak; Syynerra Pak; Teva-triacomb; Theraderm Cream; Topcare Nasal Allergy; Treziopak; Tri-Sila; Triaderm Crm 0.025%; Triaderm Crm 0.1%; Triaderm Ont 0.025%; Triaderm Ont 0.1%; Triamcinolone Acetonide; Triamcinolone Acetonide Glucocorticoid; Triamcinolone Acetonide Injectable Suspension USP; Triamcinolone Acetonide Nasal; Triamcinolone Acetonide Suspension; Triamcinolone Diacetate Sus 40mg/ml; Triamcinolone Diacetate Suspension; Triamcinolone Hexacetonide Injectable Suspension; Triamcinolone acetonide; Triamcinolone-Moxifloxacin PF; Trianex; Trianex 0.05%; Triderm; Triesence; Triloan II SUIK; Triloan SUIK; Trivaris; Trivix; Up and Up Nasal Allergy; Viaderm Kc Crm; Viaderm Kc Ont; WhyteDerm TDPak; WhyteDerm Trilasil Pak; Yaliira Pak; Zilretta

> <INTERNATIONAL_BRANDS>
Delphicort; Flutex; Kenacort; Omcilon-A; Oracort; Tri-Nasal; Triacet; Triacort; Triaderm; Tricortone; Trilone; Tristoject

> <SALTS>
Triamcinolone acetonide; Triamcinolone diacetate; Triamcinolone hexacetonide

$$$$
