175805
  -OEChem-10051719113D

 46 47  0     1  0  0  0  0  0999 V2000
   -0.2190    0.1350   -1.4439 O   0  0  0  0  0  0  0  0  0  0  0  0
   -2.5966    0.0441   -0.1878 N   0  0  1  0  0  0  0  0  0  0  0  0
    0.8841   -0.4060    0.5629 N   0  0  0  0  0  0  0  0  0  0  0  0
   -1.4714   -0.7189    0.3834 C   0  0  1  0  0  0  0  0  0  0  0  0
   -1.6133   -2.2265    0.1328 C   0  0  0  0  0  0  0  0  0  0  0  0
   -3.8856   -0.4452    0.3337 C   0  0  0  0  0  0  0  0  0  0  0  0
   -2.9478   -2.7570    0.6375 C   0  0  0  0  0  0  0  0  0  0  0  0
   -4.0884   -1.9339    0.0564 C   0  0  0  0  0  0  0  0  0  0  0  0
   -2.4845    1.4812    0.0922 C   0  0  0  0  0  0  0  0  0  0  0  0
   -0.2063   -0.2750   -0.2878 C   0  0  0  0  0  0  0  0  0  0  0  0
   -3.6036    2.2466   -0.6092 C   0  0  0  0  0  0  0  0  0  0  0  0
   -3.4974    3.7419   -0.3523 C   0  0  0  0  0  0  0  0  0  0  0  0
    2.2353   -0.0899    0.2857 C   0  0  0  0  0  0  0  0  0  0  0  0
    3.0661   -1.0615   -0.2527 C   0  0  0  0  0  0  0  0  0  0  0  0
    2.7066    1.1860    0.5579 C   0  0  0  0  0  0  0  0  0  0  0  0
    4.3983   -0.7503   -0.5250 C   0  0  0  0  0  0  0  0  0  0  0  0
    4.0389    1.4971    0.2856 C   0  0  0  0  0  0  0  0  0  0  0  0
    2.5748   -2.4410   -0.5513 C   0  0  0  0  0  0  0  0  0  0  0  0
    1.8252    2.2445    1.1378 C   0  0  0  0  0  0  0  0  0  0  0  0
    4.8846    0.5289   -0.2559 C   0  0  0  0  0  0  0  0  0  0  0  0
   -1.4139   -0.5347    1.4652 H   0  0  0  0  0  0  0  0  0  0  0  0
   -0.7982   -2.7716    0.6247 H   0  0  0  0  0  0  0  0  0  0  0  0
   -1.5219   -2.4436   -0.9405 H   0  0  0  0  0  0  0  0  0  0  0  0
   -4.7355    0.0355   -0.1560 H   0  0  0  0  0  0  0  0  0  0  0  0
   -3.9699   -0.2582    1.4125 H   0  0  0  0  0  0  0  0  0  0  0  0
   -2.9748   -2.7058    1.7328 H   0  0  0  0  0  0  0  0  0  0  0  0
   -3.0637   -3.8104    0.3600 H   0  0  0  0  0  0  0  0  0  0  0  0
   -4.1515   -2.1043   -1.0258 H   0  0  0  0  0  0  0  0  0  0  0  0
   -5.0393   -2.2658    0.4887 H   0  0  0  0  0  0  0  0  0  0  0  0
   -2.5193    1.6726    1.1731 H   0  0  0  0  0  0  0  0  0  0  0  0
   -1.5336    1.8889   -0.2671 H   0  0  0  0  0  0  0  0  0  0  0  0
   -3.5730    2.0624   -1.6898 H   0  0  0  0  0  0  0  0  0  0  0  0
   -4.5973    1.9663   -0.2512 H   0  0  0  0  0  0  0  0  0  0  0  0
    0.7436   -0.8847    1.4499 H   0  0  0  0  0  0  0  0  0  0  0  0
   -3.5670    3.9631    0.7176 H   0  0  0  0  0  0  0  0  0  0  0  0
   -2.5464    4.1370   -0.7239 H   0  0  0  0  0  0  0  0  0  0  0  0
   -4.3067    4.2740   -0.8625 H   0  0  0  0  0  0  0  0  0  0  0  0
    5.0710   -1.4920   -0.9474 H   0  0  0  0  0  0  0  0  0  0  0  0
    4.4344    2.4890    0.4879 H   0  0  0  0  0  0  0  0  0  0  0  0
    1.8141   -2.4134   -1.3383 H   0  0  0  0  0  0  0  0  0  0  0  0
    3.3821   -3.0956   -0.8975 H   0  0  0  0  0  0  0  0  0  0  0  0
    2.1495   -2.9015    0.3468 H   0  0  0  0  0  0  0  0  0  0  0  0
    1.0468    2.5264    0.4214 H   0  0  0  0  0  0  0  0  0  0  0  0
    1.3555    1.8927    2.0624 H   0  0  0  0  0  0  0  0  0  0  0  0
    2.3873    3.1509    1.3881 H   0  0  0  0  0  0  0  0  0  0  0  0
    5.9217    0.7714   -0.4683 H   0  0  0  0  0  0  0  0  0  0  0  0
  1 10  2  0  0  0  0
  2  4  1  0  0  0  0
  2  6  1  0  0  0  0
  2  9  1  0  0  0  0
  3 10  1  0  0  0  0
  3 13  1  0  0  0  0
  3 34  1  0  0  0  0
  4  5  1  0  0  0  0
  4 10  1  0  0  0  0
  4 21  1  0  0  0  0
  5  7  1  0  0  0  0
  5 22  1  0  0  0  0
  5 23  1  0  0  0  0
  6  8  1  0  0  0  0
  6 24  1  0  0  0  0
  6 25  1  0  0  0  0
  7  8  1  0  0  0  0
  7 26  1  0  0  0  0
  7 27  1  0  0  0  0
  8 28  1  0  0  0  0
  8 29  1  0  0  0  0
  9 11  1  0  0  0  0
  9 30  1  0  0  0  0
  9 31  1  0  0  0  0
 11 12  1  0  0  0  0
 11 32  1  0  0  0  0
 11 33  1  0  0  0  0
 12 35  1  0  0  0  0
 12 36  1  0  0  0  0
 12 37  1  0  0  0  0
 13 14  2  0  0  0  0
 13 15  1  0  0  0  0
 14 16  1  0  0  0  0
 14 18  1  0  0  0  0
 15 17  2  0  0  0  0
 15 19  1  0  0  0  0
 16 20  2  0  0  0  0
 16 38  1  0  0  0  0
 17 20  1  0  0  0  0
 17 39  1  0  0  0  0
 18 40  1  0  0  0  0
 18 41  1  0  0  0  0
 18 42  1  0  0  0  0
 19 43  1  0  0  0  0
 19 44  1  0  0  0  0
 19 45  1  0  0  0  0
 20 46  1  0  0  0  0
M  END
> <DATABASE_ID>
DB00296

> <DATABASE_NAME>
drugbank

> <ORIGINAL_SOURCE>
PUBCHEM

> <ORIGINAL_SOURCE_URL>
https://pubchem.ncbi.nlm.nih.gov/rest/pug/compound/inchikey/ZKMNUMMKYBVTFN-HNNXBMFYSA-N/SDF?record_type=3d

> <SMILES>
CCCN1CCCC[C@H]1C(=O)NC1=C(C)C=CC=C1C

> <INCHI_IDENTIFIER>
InChI=1S/C17H26N2O/c1-4-11-19-12-6-5-10-15(19)17(20)18-16-13(2)8-7-9-14(16)3/h7-9,15H,4-6,10-12H2,1-3H3,(H,18,20)/t15-/m0/s1

> <INCHI_KEY>
ZKMNUMMKYBVTFN-HNNXBMFYSA-N

> <FORMULA>
C17H26N2O

> <MOLECULAR_WEIGHT>
274.4011

> <EXACT_MASS>
274.204513464

> <JCHEM_ACCEPTOR_COUNT>
2

> <JCHEM_AVERAGE_POLARIZABILITY>
32.665408838794555

> <JCHEM_BIOAVAILABILITY>
1

> <JCHEM_DONOR_COUNT>
1

> <JCHEM_FORMAL_CHARGE>
0

> <JCHEM_GHOSE_FILTER>
1

> <JCHEM_IUPAC>
(2S)-N-(2,6-dimethylphenyl)-1-propylpiperidine-2-carboxamide

> <ALOGPS_LOGP>
2.91

> <JCHEM_LOGP>
4.070950219333334

> <ALOGPS_LOGS>
-3.04

> <JCHEM_MDDR_LIKE_RULE>
0

> <JCHEM_NUMBER_OF_RINGS>
2

> <JCHEM_PHYSIOLOGICAL_CHARGE>
1

> <JCHEM_PKA_STRONGEST_ACIDIC>
13.623525622831593

> <JCHEM_PKA_STRONGEST_BASIC>
7.818046257329233

> <JCHEM_POLAR_SURFACE_AREA>
32.34

> <JCHEM_REFRACTIVITY>
85.5923

> <JCHEM_ROTATABLE_BOND_COUNT>
4

> <JCHEM_RULE_OF_FIVE>
1

> <ALOGPS_SOLUBILITY>
2.53e-01 g/l

> <JCHEM_TRADITIONAL_IUPAC>
ropivacaine

> <JCHEM_VEBER_RULE>
1

> <DRUGBANK_ID>
DB00296

> <SECONDARY_ACCESSION_NUMBERS>
APRD00492

> <DRUG_GROUPS>
approved

> <GENERIC_NAME>
Ropivacaine

> <SYNONYMS>
(S)-(âˆ’)-1-propyl-2',6'-pipecoloxylidide; (S)-ropivacaine; L-N-n-propylpipecolic acid-2,6-xylidide; Ropivacaina; Ropivacaine; Ropivacainum

> <PRODUCTS>
Dexopin; Naropin; Naropin Inj 7.5mg/ml; ReadyfusOR Ropivacaine Fixed Rate Delivery System; Ropidex; Ropivacaine HCl; Ropivacaine Hydrochloride; Ropivacaine Hydrochloride Injection; Ropivacaine Hydrochloride Injection USP; Ropivacaine Hydrochloride Injection, USP

> <SALTS>
Ropivacaine hydrochloride; Ropivacaine hydrochloride anhydrous

$$$$
