6194
  -OEChem-10051719233D

 26 26  0     0  0  0  0  0  0999 V2000
    3.7185   -2.8460    0.2369 Cl  0  0  0  0  0  0  0  0  0  0  0  0
    1.4704    3.0964    0.9348 Cl  0  0  0  0  0  0  0  0  0  0  0  0
   -0.2440    0.0650    2.1235 O   0  0  0  0  0  0  0  0  0  0  0  0
   -4.2109   -0.7007   -0.1012 O   0  0  0  0  0  0  0  0  0  0  0  0
    1.1586    0.2514   -0.2441 N   0  0  0  0  0  0  0  0  0  0  0  0
   -2.2319   -0.3187    1.0218 N   0  0  0  0  0  0  0  0  0  0  0  0
   -2.2802   -0.3889   -1.3122 N   0  0  0  0  0  0  0  0  0  0  0  0
    2.0889   -0.6601    0.4121 C   0  0  0  0  0  0  0  0  0  0  0  0
    1.7574    1.2805   -1.0863 C   0  0  0  0  0  0  0  0  0  0  0  0
   -0.1827    0.0125   -0.2560 C   0  0  0  0  0  0  0  0  0  0  0  0
    2.5730   -1.7325   -0.5512 C   0  0  0  0  0  0  0  0  0  0  0  0
    1.1817    2.6510   -0.7656 C   0  0  0  0  0  0  0  0  0  0  0  0
   -0.8655   -0.0737    1.0724 C   0  0  0  0  0  0  0  0  0  0  0  0
   -0.9343   -0.1503   -1.3527 C   0  0  0  0  0  0  0  0  0  0  0  0
   -2.9989   -0.4860   -0.1322 C   0  0  0  0  0  0  0  0  0  0  0  0
    2.9419   -0.0957    0.8104 H   0  0  0  0  0  0  0  0  0  0  0  0
    1.6314   -1.1507    1.2783 H   0  0  0  0  0  0  0  0  0  0  0  0
    2.8464    1.3137   -0.9522 H   0  0  0  0  0  0  0  0  0  0  0  0
    1.5924    1.0467   -2.1450 H   0  0  0  0  0  0  0  0  0  0  0  0
    1.7380   -2.3323   -0.9268 H   0  0  0  0  0  0  0  0  0  0  0  0
    3.0851   -1.2929   -1.4127 H   0  0  0  0  0  0  0  0  0  0  0  0
    1.6585    3.4143   -1.3880 H   0  0  0  0  0  0  0  0  0  0  0  0
    0.1032    2.7018   -0.9417 H   0  0  0  0  0  0  0  0  0  0  0  0
   -0.5171   -0.1081   -2.3523 H   0  0  0  0  0  0  0  0  0  0  0  0
   -2.7209   -0.3822    1.9103 H   0  0  0  0  0  0  0  0  0  0  0  0
   -2.7685   -0.5003   -2.1959 H   0  0  0  0  0  0  0  0  0  0  0  0
  1 11  1  0  0  0  0
  2 12  1  0  0  0  0
  3 13  2  0  0  0  0
  4 15  2  0  0  0  0
  5  8  1  0  0  0  0
  5  9  1  0  0  0  0
  5 10  1  0  0  0  0
  6 13  1  0  0  0  0
  6 15  1  0  0  0  0
  6 25  1  0  0  0  0
  7 14  1  0  0  0  0
  7 15  1  0  0  0  0
  7 26  1  0  0  0  0
  8 11  1  0  0  0  0
  8 16  1  0  0  0  0
  8 17  1  0  0  0  0
  9 12  1  0  0  0  0
  9 18  1  0  0  0  0
  9 19  1  0  0  0  0
 10 13  1  0  0  0  0
 10 14  2  0  0  0  0
 11 20  1  0  0  0  0
 11 21  1  0  0  0  0
 12 22  1  0  0  0  0
 12 23  1  0  0  0  0
 14 24  1  0  0  0  0
M  END
> <DATABASE_ID>
DB00791

> <DATABASE_NAME>
drugbank

> <ORIGINAL_SOURCE>
PUBCHEM

> <ORIGINAL_SOURCE_URL>
https://pubchem.ncbi.nlm.nih.gov/rest/pug/compound/inchikey/IDPUKCWIGUEADI-UHFFFAOYSA-N/SDF?record_type=3d

> <SMILES>
ClCCN(CCCl)C1=CNC(=O)NC1=O

> <INCHI_IDENTIFIER>
InChI=1S/C8H11Cl2N3O2/c9-1-3-13(4-2-10)6-5-11-8(15)12-7(6)14/h5H,1-4H2,(H2,11,12,14,15)

> <INCHI_KEY>
IDPUKCWIGUEADI-UHFFFAOYSA-N

> <FORMULA>
C8H11Cl2N3O2

> <MOLECULAR_WEIGHT>
252.098

> <EXACT_MASS>
251.022832025

> <JCHEM_ACCEPTOR_COUNT>
3

> <JCHEM_AVERAGE_POLARIZABILITY>
22.91267136191089

> <JCHEM_BIOAVAILABILITY>
1

> <JCHEM_DONOR_COUNT>
2

> <JCHEM_FORMAL_CHARGE>
0

> <JCHEM_GHOSE_FILTER>
1

> <JCHEM_IUPAC>
5-[bis(2-chloroethyl)amino]-1,2,3,4-tetrahydropyrimidine-2,4-dione

> <ALOGPS_LOGP>
0.79

> <JCHEM_LOGP>
0.40531176

> <ALOGPS_LOGS>
-2.28

> <JCHEM_MDDR_LIKE_RULE>
0

> <JCHEM_NUMBER_OF_RINGS>
1

> <JCHEM_PHYSIOLOGICAL_CHARGE>
0

> <JCHEM_PKA>
13.446032947684088

> <JCHEM_PKA_STRONGEST_ACIDIC>
9.048360675058582

> <JCHEM_PKA_STRONGEST_BASIC>
1.6091536587486126

> <JCHEM_POLAR_SURFACE_AREA>
61.440000000000005

> <JCHEM_REFRACTIVITY>
58.350100000000005

> <JCHEM_ROTATABLE_BOND_COUNT>
5

> <JCHEM_RULE_OF_FIVE>
1

> <ALOGPS_SOLUBILITY>
1.32e+00 g/l

> <JCHEM_TRADITIONAL_IUPAC>
uracil mustard

> <JCHEM_VEBER_RULE>
0

> <DRUGBANK_ID>
DB00791

> <SECONDARY_ACCESSION_NUMBERS>
APRD00130

> <DRUG_GROUPS>
approved

> <GENERIC_NAME>
Uracil mustard

> <SYNONYMS>
5-(di-2-chloroethyl)aminouracil; 5-[bis(2-chloroethyl)amino]-2,4(1H,3H)-pyrimidinedione; 5-[bis(2-chloroethyl)amino]uracil; 5-[di(Î²-chloroethyl)amino]uracil; 5-aminouracil mustard; 5-N,N-bis(2-chloroethyl)aminouracil; Aminouracil mustard; Uracil mustard; Uracil nitrogen mustard; Uramustina; Uramustine; Uramustinum

> <INTERNATIONAL_BRANDS>
Uracil Mustard 

$$$$
