3105
  -OEChem-10051719153D

 54 54  0     1  0  0  0  0  0999 V2000
   -0.5253   -1.0804    0.4009 O   0  0  0  0  0  0  0  0  0  0  0  0
   -1.9348    1.0163   -0.7584 O   0  0  0  0  0  0  0  0  0  0  0  0
    3.7740    1.4944    1.7664 O   0  0  0  0  0  0  0  0  0  0  0  0
    0.9431   -2.1856   -1.0338 O   0  0  0  0  0  0  0  0  0  0  0  0
   -2.3625    1.8542    1.3761 O   0  0  0  0  0  0  0  0  0  0  0  0
    5.8426    0.6568   -0.0552 N   0  0  0  0  0  0  0  0  0  0  0  0
   -0.7622   -3.4806    0.1506 C   0  0  0  0  0  0  0  0  0  0  0  0
   -4.2234    1.2472   -0.0924 C   0  0  0  0  0  0  0  0  0  0  0  0
    2.1158    1.4234    0.0576 C   0  0  0  0  0  0  0  0  0  0  0  0
    3.5705    1.5744    0.3493 C   0  0  2  0  0  0  0  0  0  0  0  0
   -0.6593   -3.6775    1.6717 C   0  0  0  0  0  0  0  0  0  0  0  0
   -0.1428   -4.6959   -0.5520 C   0  0  0  0  0  0  0  0  0  0  0  0
   -2.2401   -3.3331   -0.2342 C   0  0  0  0  0  0  0  0  0  0  0  0
    0.0005   -2.2125   -0.2513 C   0  0  0  0  0  0  0  0  0  0  0  0
   -4.5242    2.0916   -1.3413 C   0  0  0  0  0  0  0  0  0  0  0  0
   -5.1186    1.7245    1.0588 C   0  0  0  0  0  0  0  0  0  0  0  0
   -4.4982   -0.2284   -0.4102 C   0  0  0  0  0  0  0  0  0  0  0  0
   -2.7507    1.4213    0.2974 C   0  0  0  0  0  0  0  0  0  0  0  0
    0.1017    0.0895    0.0943 C   0  0  0  0  0  0  0  0  0  0  0  0
   -0.5720    1.1447   -0.4807 C   0  0  0  0  0  0  0  0  0  0  0  0
    1.4625    0.2305    0.3667 C   0  0  0  0  0  0  0  0  0  0  0  0
    4.4210    0.4976   -0.3533 C   0  0  0  0  0  0  0  0  0  0  0  0
    1.4085    2.4755   -0.5241 C   0  0  0  0  0  0  0  0  0  0  0  0
    0.0477    2.3344   -0.7969 C   0  0  0  0  0  0  0  0  0  0  0  0
    6.6261   -0.3823   -0.7060 C   0  0  0  0  0  0  0  0  0  0  0  0
    3.9254    2.5645    0.0372 H   0  0  0  0  0  0  0  0  0  0  0  0
    0.3885   -3.7251    1.9905 H   0  0  0  0  0  0  0  0  0  0  0  0
   -1.1510   -4.6049    1.9861 H   0  0  0  0  0  0  0  0  0  0  0  0
   -1.1263   -2.8521    2.2210 H   0  0  0  0  0  0  0  0  0  0  0  0
    0.9146   -4.8133   -0.2882 H   0  0  0  0  0  0  0  0  0  0  0  0
   -0.6615   -5.6211   -0.2771 H   0  0  0  0  0  0  0  0  0  0  0  0
   -0.1994   -4.5934   -1.6419 H   0  0  0  0  0  0  0  0  0  0  0  0
   -2.7946   -4.2582   -0.0412 H   0  0  0  0  0  0  0  0  0  0  0  0
   -2.7221   -2.5343    0.3367 H   0  0  0  0  0  0  0  0  0  0  0  0
   -2.3474   -3.0891   -1.2971 H   0  0  0  0  0  0  0  0  0  0  0  0
   -4.2671    3.1440   -1.1740 H   0  0  0  0  0  0  0  0  0  0  0  0
   -5.5857    2.0415   -1.6082 H   0  0  0  0  0  0  0  0  0  0  0  0
   -3.9489    1.7522   -2.2100 H   0  0  0  0  0  0  0  0  0  0  0  0
   -4.9307    1.1475    1.9717 H   0  0  0  0  0  0  0  0  0  0  0  0
   -6.1797    1.6153    0.8084 H   0  0  0  0  0  0  0  0  0  0  0  0
   -4.9364    2.7794    1.2947 H   0  0  0  0  0  0  0  0  0  0  0  0
   -3.8738   -0.5974   -1.2312 H   0  0  0  0  0  0  0  0  0  0  0  0
   -4.2968   -0.8539    0.4660 H   0  0  0  0  0  0  0  0  0  0  0  0
   -5.5453   -0.3825   -0.6942 H   0  0  0  0  0  0  0  0  0  0  0  0
    2.0018   -0.5799    0.8510 H   0  0  0  0  0  0  0  0  0  0  0  0
    4.1133   -0.5012   -0.0206 H   0  0  0  0  0  0  0  0  0  0  0  0
    4.2550    0.5566   -1.4364 H   0  0  0  0  0  0  0  0  0  0  0  0
    1.9029    3.4113   -0.7709 H   0  0  0  0  0  0  0  0  0  0  0  0
   -0.5025    3.1530   -1.2503 H   0  0  0  0  0  0  0  0  0  0  0  0
    5.9859    0.6097    0.9532 H   0  0  0  0  0  0  0  0  0  0  0  0
    3.1195    2.0701    2.1979 H   0  0  0  0  0  0  0  0  0  0  0  0
    6.3436   -1.3802   -0.3552 H   0  0  0  0  0  0  0  0  0  0  0  0
    6.5155   -0.3404   -1.7945 H   0  0  0  0  0  0  0  0  0  0  0  0
    7.6864   -0.2349   -0.4785 H   0  0  0  0  0  0  0  0  0  0  0  0
  1 14  1  0  0  0  0
  1 19  1  0  0  0  0
  2 18  1  0  0  0  0
  2 20  1  0  0  0  0
  3 10  1  0  0  0  0
  3 51  1  0  0  0  0
  4 14  2  0  0  0  0
  5 18  2  0  0  0  0
  6 22  1  0  0  0  0
  6 25  1  0  0  0  0
  6 50  1  0  0  0  0
  7 11  1  0  0  0  0
  7 12  1  0  0  0  0
  7 13  1  0  0  0  0
  7 14  1  0  0  0  0
  8 15  1  0  0  0  0
  8 16  1  0  0  0  0
  8 17  1  0  0  0  0
  8 18  1  0  0  0  0
  9 10  1  0  0  0  0
  9 21  2  0  0  0  0
  9 23  1  0  0  0  0
 10 22  1  0  0  0  0
 10 26  1  0  0  0  0
 11 27  1  0  0  0  0
 11 28  1  0  0  0  0
 11 29  1  0  0  0  0
 12 30  1  0  0  0  0
 12 31  1  0  0  0  0
 12 32  1  0  0  0  0
 13 33  1  0  0  0  0
 13 34  1  0  0  0  0
 13 35  1  0  0  0  0
 15 36  1  0  0  0  0
 15 37  1  0  0  0  0
 15 38  1  0  0  0  0
 16 39  1  0  0  0  0
 16 40  1  0  0  0  0
 16 41  1  0  0  0  0
 17 42  1  0  0  0  0
 17 43  1  0  0  0  0
 17 44  1  0  0  0  0
 19 20  2  0  0  0  0
 19 21  1  0  0  0  0
 20 24  1  0  0  0  0
 21 45  1  0  0  0  0
 22 46  1  0  0  0  0
 22 47  1  0  0  0  0
 23 24  2  0  0  0  0
 23 48  1  0  0  0  0
 24 49  1  0  0  0  0
 25 52  1  0  0  0  0
 25 53  1  0  0  0  0
 25 54  1  0  0  0  0
M  END
> <DATABASE_ID>
DB00449

> <DATABASE_NAME>
drugbank

> <ORIGINAL_SOURCE>
PUBCHEM

> <ORIGINAL_SOURCE_URL>
https://pubchem.ncbi.nlm.nih.gov/rest/pug/compound/inchikey/OCUJLLGVOUDECM-UHFFFAOYSA-N/SDF?record_type=3d

> <SMILES>
CNCC(O)C1=CC(OC(=O)C(C)(C)C)=C(OC(=O)C(C)(C)C)C=C1

> <INCHI_IDENTIFIER>
InChI=1S/C19H29NO5/c1-18(2,3)16(22)24-14-9-8-12(13(21)11-20-7)10-15(14)25-17(23)19(4,5)6/h8-10,13,20-21H,11H2,1-7H3

> <INCHI_KEY>
OCUJLLGVOUDECM-UHFFFAOYSA-N

> <FORMULA>
C19H29NO5

> <MOLECULAR_WEIGHT>
351.4373

> <EXACT_MASS>
351.204573043

> <JCHEM_ACCEPTOR_COUNT>
4

> <JCHEM_AVERAGE_POLARIZABILITY>
38.6466263123802

> <JCHEM_BIOAVAILABILITY>
1

> <JCHEM_DONOR_COUNT>
2

> <JCHEM_FORMAL_CHARGE>
0

> <JCHEM_GHOSE_FILTER>
1

> <JCHEM_IUPAC>
2-[(2,2-dimethylpropanoyl)oxy]-5-[1-hydroxy-2-(methylamino)ethyl]phenyl 2,2-dimethylpropanoate

> <ALOGPS_LOGP>
3.17

> <JCHEM_LOGP>
3.714854507000001

> <ALOGPS_LOGS>
-3.78

> <JCHEM_MDDR_LIKE_RULE>
0

> <JCHEM_NUMBER_OF_RINGS>
1

> <JCHEM_PHYSIOLOGICAL_CHARGE>
1

> <JCHEM_PKA_STRONGEST_ACIDIC>
14.000170168929397

> <JCHEM_PKA_STRONGEST_BASIC>
9.327951960406976

> <JCHEM_POLAR_SURFACE_AREA>
84.86

> <JCHEM_REFRACTIVITY>
94.93809999999999

> <JCHEM_ROTATABLE_BOND_COUNT>
9

> <JCHEM_RULE_OF_FIVE>
1

> <ALOGPS_SOLUBILITY>
5.82e-02 g/l

> <JCHEM_TRADITIONAL_IUPAC>
dipivefrin

> <JCHEM_VEBER_RULE>
0

> <DRUGBANK_ID>
DB00449

> <SECONDARY_ACCESSION_NUMBERS>
APRD00930

> <DRUG_GROUPS>
approved

> <GENERIC_NAME>
Dipivefrin

> <SYNONYMS>
(±)-4-[1-hydroxy-2-(methylamino)ethyl]-o-phenylene divavalate; 1-(3',4'-dipivaloyloxyphenyl)-2-methylamino-1-ethanol; 4-[1-hydroxy-2-(methylamino)ethyl]-o-phenylene divavalate; Dipivalyl epinephrine; Dipivefrin; Dipivefrina; Dipivéfrine; Dipivefrine; Dipivefrinum

> <PRODUCTS>
Apo-dipivefrin; Dipivefrin Hydrochloride; Dipivefrin-liq Oph 0.1%; Dpe Ophthalmic Solution - 0.1%; PMS-dipivefrin; Probeta - Liq Oph; Propine; Propine Liq 0.1%; Ratio-dipivefrin

> <INTERNATIONAL_BRANDS>
AKPro; D Epifrin; Diopine; Pivalephrine; Pro-Epinephrine; Thilodrin

> <SALTS>
Dipivefrin hydrochloride

$$$$
