441278
  -OEChem-10051719203D

 48 50  0     1  0  0  0  0  0999 V2000
   -4.3985   -2.3392   -1.0760 O   0  0  0  0  0  0  0  0  0  0  0  0
    1.6011    0.9758    0.2304 N   0  0  2  0  0  0  0  0  0  0  0  0
   -1.1019    1.3531   -0.8464 C   0  0  1  0  0  0  0  0  0  0  0  0
   -0.4929    2.2573    0.2691 C   0  0  2  0  0  0  0  0  0  0  0  0
    0.4861    1.4019    1.1033 C   0  0  1  0  0  0  0  0  0  0  0  0
    0.0792    0.8568   -1.7268 C   0  0  0  0  0  0  0  0  0  0  0  0
   -0.2787    0.2690    1.8213 C   0  0  0  0  0  0  0  0  0  0  0  0
   -1.7920    0.1210   -0.2397 C   0  0  0  0  0  0  0  0  0  0  0  0
    1.1908    0.1715   -0.9214 C   0  0  0  0  0  0  0  0  0  0  0  0
   -1.3700   -0.3899    1.0084 C   0  0  0  0  0  0  0  0  0  0  0  0
   -2.0466    2.1932   -1.7341 C   0  0  0  0  0  0  0  0  0  0  0  0
   -1.5331    2.9724    1.1467 C   0  0  0  0  0  0  0  0  0  0  0  0
    2.6983    0.3435    0.9558 C   0  0  0  0  0  0  0  0  0  0  0  0
   -2.8089   -0.5640   -0.9298 C   0  0  0  0  0  0  0  0  0  0  0  0
   -1.9922   -1.5301    1.5453 C   0  0  0  0  0  0  0  0  0  0  0  0
   -3.4136   -1.6997   -0.3874 C   0  0  0  0  0  0  0  0  0  0  0  0
   -3.0084   -2.1805    0.8514 C   0  0  0  0  0  0  0  0  0  0  0  0
    3.9026    0.1635    0.0788 C   0  0  0  0  0  0  0  0  0  0  0  0
    4.5250   -0.9818   -0.2608 C   0  0  0  0  0  0  0  0  0  0  0  0
    5.7326   -1.0911   -1.1480 C   0  0  0  0  0  0  0  0  0  0  0  0
    4.0211   -2.3027    0.2597 C   0  0  0  0  0  0  0  0  0  0  0  0
    0.0884    3.0599   -0.2109 H   0  0  0  0  0  0  0  0  0  0  0  0
    0.9217    2.0499    1.8763 H   0  0  0  0  0  0  0  0  0  0  0  0
    0.5164    1.7135   -2.2588 H   0  0  0  0  0  0  0  0  0  0  0  0
   -0.2771    0.1639   -2.5003 H   0  0  0  0  0  0  0  0  0  0  0  0
   -0.7580    0.6971    2.7126 H   0  0  0  0  0  0  0  0  0  0  0  0
    0.4087   -0.4966    2.1952 H   0  0  0  0  0  0  0  0  0  0  0  0
    0.8716   -0.8314   -0.6126 H   0  0  0  0  0  0  0  0  0  0  0  0
    2.0222    0.0260   -1.6209 H   0  0  0  0  0  0  0  0  0  0  0  0
   -1.5747    3.1394   -2.0239 H   0  0  0  0  0  0  0  0  0  0  0  0
   -2.3025    1.6743   -2.6647 H   0  0  0  0  0  0  0  0  0  0  0  0
   -2.9853    2.4286   -1.2203 H   0  0  0  0  0  0  0  0  0  0  0  0
   -1.0402    3.5029    1.9688 H   0  0  0  0  0  0  0  0  0  0  0  0
   -2.0820    3.7213    0.5666 H   0  0  0  0  0  0  0  0  0  0  0  0
   -2.2671    2.2881    1.5812 H   0  0  0  0  0  0  0  0  0  0  0  0
    3.0115    1.0009    1.7774 H   0  0  0  0  0  0  0  0  0  0  0  0
    2.3884   -0.5921    1.4254 H   0  0  0  0  0  0  0  0  0  0  0  0
   -3.1401   -0.2271   -1.9083 H   0  0  0  0  0  0  0  0  0  0  0  0
   -1.6807   -1.9176    2.5126 H   0  0  0  0  0  0  0  0  0  0  0  0
   -3.4711   -3.0622    1.2861 H   0  0  0  0  0  0  0  0  0  0  0  0
    4.3167    1.0890   -0.3213 H   0  0  0  0  0  0  0  0  0  0  0  0
   -4.7024   -3.1030   -0.5560 H   0  0  0  0  0  0  0  0  0  0  0  0
    6.5568   -1.5734   -0.6127 H   0  0  0  0  0  0  0  0  0  0  0  0
    6.0787   -0.1059   -1.4776 H   0  0  0  0  0  0  0  0  0  0  0  0
    5.5004   -1.6798   -2.0412 H   0  0  0  0  0  0  0  0  0  0  0  0
    4.5547   -2.5763    1.1755 H   0  0  0  0  0  0  0  0  0  0  0  0
    4.1972   -3.0925   -0.4799 H   0  0  0  0  0  0  0  0  0  0  0  0
    2.9460   -2.3192    0.4528 H   0  0  0  0  0  0  0  0  0  0  0  0
  1 16  1  0  0  0  0
  1 42  1  0  0  0  0
  2  5  1  0  0  0  0
  2  9  1  0  0  0  0
  2 13  1  0  0  0  0
  3  4  1  0  0  0  0
  3  6  1  0  0  0  0
  3  8  1  0  0  0  0
  3 11  1  0  0  0  0
  4  5  1  0  0  0  0
  4 12  1  0  0  0  0
  4 22  1  0  0  0  0
  5  7  1  0  0  0  0
  5 23  1  0  0  0  0
  6  9  1  0  0  0  0
  6 24  1  0  0  0  0
  6 25  1  0  0  0  0
  7 10  1  0  0  0  0
  7 26  1  0  0  0  0
  7 27  1  0  0  0  0
  8 10  2  0  0  0  0
  8 14  1  0  0  0  0
  9 28  1  0  0  0  0
  9 29  1  0  0  0  0
 10 15  1  0  0  0  0
 11 30  1  0  0  0  0
 11 31  1  0  0  0  0
 11 32  1  0  0  0  0
 12 33  1  0  0  0  0
 12 34  1  0  0  0  0
 12 35  1  0  0  0  0
 13 18  1  0  0  0  0
 13 36  1  0  0  0  0
 13 37  1  0  0  0  0
 14 16  2  0  0  0  0
 14 38  1  0  0  0  0
 15 17  2  0  0  0  0
 15 39  1  0  0  0  0
 16 17  1  0  0  0  0
 17 40  1  0  0  0  0
 18 19  2  0  0  0  0
 18 41  1  0  0  0  0
 19 20  1  0  0  0  0
 19 21  1  0  0  0  0
 20 43  1  0  0  0  0
 20 44  1  0  0  0  0
 20 45  1  0  0  0  0
 21 46  1  0  0  0  0
 21 47  1  0  0  0  0
 21 48  1  0  0  0  0
M  END
> <DATABASE_ID>
DB00652

> <DATABASE_NAME>
drugbank

> <ORIGINAL_SOURCE>
PUBCHEM

> <ORIGINAL_SOURCE_URL>
https://pubchem.ncbi.nlm.nih.gov/rest/pug/compound/inchikey/VOKSWYLNZZRQPF-GDIGMMSISA-N/SDF?record_type=3d

> <SMILES>
C[C@H]1[C@H]2CC3=CC=C(O)C=C3[C@]1(C)CCN2CC=C(C)C

> <INCHI_IDENTIFIER>
InChI=1S/C19H27NO/c1-13(2)7-9-20-10-8-19(4)14(3)18(20)11-15-5-6-16(21)12-17(15)19/h5-7,12,14,18,21H,8-11H2,1-4H3/t14-,18+,19+/m0/s1

> <INCHI_KEY>
VOKSWYLNZZRQPF-GDIGMMSISA-N

> <FORMULA>
C19H27NO

> <MOLECULAR_WEIGHT>
285.4238

> <EXACT_MASS>
285.209264491

> <JCHEM_ACCEPTOR_COUNT>
2

> <JCHEM_AVERAGE_POLARIZABILITY>
33.86191659961722

> <JCHEM_BIOAVAILABILITY>
1

> <JCHEM_DONOR_COUNT>
1

> <JCHEM_FORMAL_CHARGE>
0

> <JCHEM_GHOSE_FILTER>
1

> <JCHEM_IUPAC>
(1R,9R,13R)-1,13-dimethyl-10-(3-methylbut-2-en-1-yl)-10-azatricyclo[7.3.1.0²,⁷]trideca-2,4,6-trien-4-ol

> <ALOGPS_LOGP>
4.44

> <JCHEM_LOGP>
3.8936200460770922

> <ALOGPS_LOGS>
-3.37

> <JCHEM_MDDR_LIKE_RULE>
0

> <JCHEM_NUMBER_OF_RINGS>
3

> <JCHEM_PHYSIOLOGICAL_CHARGE>
1

> <JCHEM_PKA_STRONGEST_ACIDIC>
7.590926857289439

> <JCHEM_PKA_STRONGEST_BASIC>
12.401294420402692

> <JCHEM_POLAR_SURFACE_AREA>
23.47

> <JCHEM_REFRACTIVITY>
89.7993

> <JCHEM_ROTATABLE_BOND_COUNT>
2

> <JCHEM_RULE_OF_FIVE>
1

> <ALOGPS_SOLUBILITY>
1.22e-01 g/l

> <JCHEM_TRADITIONAL_IUPAC>
pentazocine

> <JCHEM_VEBER_RULE>
1

> <DRUGBANK_ID>
DB00652

> <SECONDARY_ACCESSION_NUMBERS>
APRD01173

> <DRUG_GROUPS>
approved; vet_approved

> <GENERIC_NAME>
Pentazocine

> <SYNONYMS>
Pentazocin; Pentazocina; Pentazocine; Pentazocinum

> <PRODUCTS>
Pentazocine HCl and Acetaminophen; Pentazocine HCl and Naloxone HCl; Pentazocine Hydrochloride and Acetaminophen; Pentazocine Hydrochloride and Naloxone Hydrochloride; Pentazocine and Naloxone; Pentazocine and naloxone; Pentazocine and naloxone hydrochlorides; TALWIN Nx; Talacen; Talwin; Talwin - Liq 30mg/ml

> <INTERNATIONAL_BRANDS>
Fortal; Fortral; Fortwin; Pangon; Pentagin; Sosegon; Stopain; Talwin PX

> <SALTS>
Pentazocine Hydrochloride; Pentazocine Lactate

$$$$
