39186
  -OEChem-05151816143D

 55 57  0     1  0  0  0  0  0999 V2000
    0.0843    0.8725   -2.0766 S   0  0  0  0  0  0  0  0  0  0  0  0
   -1.2423    1.3982    1.7564 O   0  0  0  0  0  0  0  0  0  0  0  0
   -0.0620   -0.9584    1.6291 O   0  0  0  0  0  0  0  0  0  0  0  0
   -5.9447   -1.3799   -0.9650 O   0  0  0  0  0  0  0  0  0  0  0  0
    0.4519    1.3760    3.3269 O   0  0  0  0  0  0  0  0  0  0  0  0
    1.7616   -0.1508    0.4361 N   0  0  0  0  0  0  0  0  0  0  0  0
    3.9701   -3.1589    0.1749 N   0  0  0  0  0  0  0  0  0  0  0  0
   -0.9826    1.3472   -0.6617 C   0  0  2  0  0  0  0  0  0  0  0  0
   -0.2912    1.2407    0.7067 C   0  0  2  0  0  0  0  0  0  0  0  0
    0.4551   -0.0697    0.9451 C   0  0  0  0  0  0  0  0  0  0  0  0
    2.6071   -1.2569    0.8853 C   0  0  0  0  0  0  0  0  0  0  0  0
    2.3644    0.8365   -0.4148 C   0  0  0  0  0  0  0  0  0  0  0  0
   -2.3160    0.6143   -0.7436 C   0  0  0  0  0  0  0  0  0  0  0  0
    1.6821    1.4295   -1.4980 C   0  0  0  0  0  0  0  0  0  0  0  0
    3.1078   -2.0810   -0.2918 C   0  0  0  0  0  0  0  0  0  0  0  0
    3.7002    1.2148   -0.1793 C   0  0  0  0  0  0  0  0  0  0  0  0
    2.3287    2.3981   -2.2849 C   0  0  0  0  0  0  0  0  0  0  0  0
   -2.3564   -0.7697   -0.5931 C   0  0  0  0  0  0  0  0  0  0  0  0
   -3.4887    1.3314   -0.9677 C   0  0  0  0  0  0  0  0  0  0  0  0
    4.3276    2.1847   -0.9629 C   0  0  0  0  0  0  0  0  0  0  0  0
    3.6393    2.7820   -2.0106 C   0  0  0  0  0  0  0  0  0  0  0  0
   -3.5770   -1.4408   -0.6673 C   0  0  0  0  0  0  0  0  0  0  0  0
   -4.7094    0.6602   -1.0417 C   0  0  0  0  0  0  0  0  0  0  0  0
    3.2482   -4.0338    1.1010 C   0  0  0  0  0  0  0  0  0  0  0  0
    4.4864   -3.9333   -0.9556 C   0  0  0  0  0  0  0  0  0  0  0  0
   -4.7534   -0.7258   -0.8915 C   0  0  0  0  0  0  0  0  0  0  0  0
   -0.7319    1.4515    3.0266 C   0  0  0  0  0  0  0  0  0  0  0  0
   -1.8409    1.6185    4.0206 C   0  0  0  0  0  0  0  0  0  0  0  0
   -5.9185   -2.7973   -0.8026 C   0  0  0  0  0  0  0  0  0  0  0  0
   -1.1952    2.4146   -0.8101 H   0  0  0  0  0  0  0  0  0  0  0  0
    0.4140    2.0766    0.8068 H   0  0  0  0  0  0  0  0  0  0  0  0
    3.4246   -0.8725    1.5049 H   0  0  0  0  0  0  0  0  0  0  0  0
    2.0097   -1.8777    1.5578 H   0  0  0  0  0  0  0  0  0  0  0  0
    3.6796   -1.4515   -0.9826 H   0  0  0  0  0  0  0  0  0  0  0  0
    2.2527   -2.4709   -0.8612 H   0  0  0  0  0  0  0  0  0  0  0  0
    4.2771    0.8027    0.6432 H   0  0  0  0  0  0  0  0  0  0  0  0
    1.8243    2.8531   -3.1352 H   0  0  0  0  0  0  0  0  0  0  0  0
   -1.4564   -1.3578   -0.4515 H   0  0  0  0  0  0  0  0  0  0  0  0
   -3.4715    2.4113   -1.0861 H   0  0  0  0  0  0  0  0  0  0  0  0
    5.3524    2.4744   -0.7500 H   0  0  0  0  0  0  0  0  0  0  0  0
    4.1265    3.5328   -2.6254 H   0  0  0  0  0  0  0  0  0  0  0  0
   -3.5387   -2.5184   -0.5493 H   0  0  0  0  0  0  0  0  0  0  0  0
   -5.6225    1.2225   -1.2166 H   0  0  0  0  0  0  0  0  0  0  0  0
    3.1001   -3.5628    2.0776 H   0  0  0  0  0  0  0  0  0  0  0  0
    3.8391   -4.9333    1.3137 H   0  0  0  0  0  0  0  0  0  0  0  0
    2.2810   -4.3615    0.7026 H   0  0  0  0  0  0  0  0  0  0  0  0
    5.1806   -4.7067   -0.6084 H   0  0  0  0  0  0  0  0  0  0  0  0
    3.6849   -4.4179   -1.5249 H   0  0  0  0  0  0  0  0  0  0  0  0
    5.0536   -3.2892   -1.6370 H   0  0  0  0  0  0  0  0  0  0  0  0
   -1.4214    1.6542    5.0301 H   0  0  0  0  0  0  0  0  0  0  0  0
   -2.3711    2.5548    3.8294 H   0  0  0  0  0  0  0  0  0  0  0  0
   -2.5249    0.7685    3.9572 H   0  0  0  0  0  0  0  0  0  0  0  0
   -6.9510   -3.1516   -0.8878 H   0  0  0  0  0  0  0  0  0  0  0  0
   -5.3468   -3.2830   -1.6006 H   0  0  0  0  0  0  0  0  0  0  0  0
   -5.5640   -3.0816    0.1940 H   0  0  0  0  0  0  0  0  0  0  0  0
  1  8  1  0  0  0  0
  1 14  1  0  0  0  0
  2  9  1  0  0  0  0
  2 27  1  0  0  0  0
  3 10  2  0  0  0  0
  4 26  1  0  0  0  0
  4 29  1  0  0  0  0
  5 27  2  0  0  0  0
  6 10  1  0  0  0  0
  6 11  1  0  0  0  0
  6 12  1  0  0  0  0
  7 15  1  0  0  0  0
  7 24  1  0  0  0  0
  7 25  1  0  0  0  0
  8  9  1  0  0  0  0
  8 13  1  0  0  0  0
  8 30  1  0  0  0  0
  9 10  1  0  0  0  0
  9 31  1  0  0  0  0
 11 15  1  0  0  0  0
 11 32  1  0  0  0  0
 11 33  1  0  0  0  0
 12 14  1  0  0  0  0
 12 16  2  0  0  0  0
 13 18  2  0  0  0  0
 13 19  1  0  0  0  0
 14 17  2  0  0  0  0
 15 34  1  0  0  0  0
 15 35  1  0  0  0  0
 16 20  1  0  0  0  0
 16 36  1  0  0  0  0
 17 21  1  0  0  0  0
 17 37  1  0  0  0  0
 18 22  1  0  0  0  0
 18 38  1  0  0  0  0
 19 23  2  0  0  0  0
 19 39  1  0  0  0  0
 20 21  2  0  0  0  0
 20 40  1  0  0  0  0
 21 41  1  0  0  0  0
 22 26  2  0  0  0  0
 22 42  1  0  0  0  0
 23 26  1  0  0  0  0
 23 43  1  0  0  0  0
 24 44  1  0  0  0  0
 24 45  1  0  0  0  0
 24 46  1  0  0  0  0
 25 47  1  0  0  0  0
 25 48  1  0  0  0  0
 25 49  1  0  0  0  0
 27 28  1  0  0  0  0
 28 50  1  0  0  0  0
 28 51  1  0  0  0  0
 28 52  1  0  0  0  0
 29 53  1  0  0  0  0
 29 54  1  0  0  0  0
 29 55  1  0  0  0  0
M  END
> <DATABASE_ID>
DB00343

> <DATABASE_NAME>
drugbank

> <ORIGINAL_SOURCE>
PUBCHEM

> <ORIGINAL_SOURCE_URL>
https://pubchem.ncbi.nlm.nih.gov/rest/pug/compound/inchikey/HSUGRBWQSSZJOP-RTWAWAEBSA-N/SDF?record_type=3d

> <SMILES>
COC1=CC=C(C=C1)[C@@H]1SC2=C(C=CC=C2)N(CCN(C)C)C(=O)[C@@H]1OC(C)=O

> <INCHI_IDENTIFIER>
InChI=1S/C22H26N2O4S/c1-15(25)28-20-21(16-9-11-17(27-4)12-10-16)29-19-8-6-5-7-18(19)24(22(20)26)14-13-23(2)3/h5-12,20-21H,13-14H2,1-4H3/t20-,21+/m1/s1

> <INCHI_KEY>
HSUGRBWQSSZJOP-RTWAWAEBSA-N

> <FORMULA>
C22H26N2O4S

> <MOLECULAR_WEIGHT>
414.518

> <EXACT_MASS>
414.16132802

> <JCHEM_ACCEPTOR_COUNT>
4

> <JCHEM_ATOM_COUNT>
55

> <JCHEM_AVERAGE_POLARIZABILITY>
43.6457014959833

> <JCHEM_BIOAVAILABILITY>
1

> <JCHEM_DONOR_COUNT>
0

> <JCHEM_FORMAL_CHARGE>
0

> <JCHEM_GHOSE_FILTER>
1

> <JCHEM_IUPAC>
(2S,3S)-5-[2-(dimethylamino)ethyl]-2-(4-methoxyphenyl)-4-oxo-2,3,4,5-tetrahydro-1,5-benzothiazepin-3-yl acetate

> <ALOGPS_LOGP>
3.09

> <JCHEM_LOGP>
2.7272518843333335

> <ALOGPS_LOGS>
-4.39

> <JCHEM_MDDR_LIKE_RULE>
1

> <JCHEM_NUMBER_OF_RINGS>
3

> <JCHEM_PHYSIOLOGICAL_CHARGE>
1

> <JCHEM_PKA_STRONGEST_ACIDIC>
12.860751889993125

> <JCHEM_PKA_STRONGEST_BASIC>
8.175280193715892

> <JCHEM_POLAR_SURFACE_AREA>
59.080000000000005

> <JCHEM_REFRACTIVITY>
114.36630000000002

> <JCHEM_ROTATABLE_BOND_COUNT>
7

> <JCHEM_RULE_OF_FIVE>
1

> <ALOGPS_SOLUBILITY>
1.68e-02 g/l

> <JCHEM_TRADITIONAL_IUPAC>
diltiazem

> <JCHEM_VEBER_RULE>
0

> <DRUGBANK_ID>
DB00343

> <SECONDARY_ACCESSION_NUMBERS>
APRD00473

> <DRUG_GROUPS>
approved; investigational

> <GENERIC_NAME>
Diltiazem

> <SYNONYMS>
(+)-cis-5-[2-(dimethylamino)ethyl]-2,3-dihydro-3-hydroxy-2-(p-methoxyphenyl)-1,5-benzothiazepin-4(5H)-one acetate ester; (2S-cis)-3-(acetyloxy)-5-[2-(dimethylamino)ethyl]-2,3-dihydro-2-(4-methoxyphenyl)-1,5-benzothiazepin-4(5H)-one; (2S,3S)-5-(2-(dimethylamino)ethyl)-2-(4-methoxyphenyl)-4-oxo-2,3,4,5-tetrahydrobenzo[b][1,4]thiazepin-3-yl acetate; Acetic acid (2S,3S)-5-(2-dimethylamino-ethyl)-2-(4-methoxy-phenyl)-4-oxo-2,3,4,5-tetrahydro-benzo[b][1,4]thiazepin-3-yl ester; d-cis-diltiazem; Diltiazem; Diltiazemum

> <PRODUCTS>
Act Diltiazem CD; Act Diltiazem T; Act Diltiazem Xc; Alti-diltiazem Tab 30mg; Alti-diltiazem Tab 60mg; Apo-diltiaz; Apo-diltiaz CD; Apo-diltiaz Injectable; Apo-diltiaz SR; Apo-diltiaz TZ; Ava-diltiazem; Cardizem; Cardizem CD; Cardizem Injectable; Cardizem Injectable Liq 5mg/ml; Cardizem LA; Cardizem SR 120mg; Cardizem SR 60mg; Cardizem SR 90mg; Cartia XT; Dilacor XR; Dilt-CD; Diltia XT; Diltiazem - CD; Diltiazem CD; Diltiazem HCl; Diltiazem HCl CD; Diltiazem Hci; Diltiazem Hydrochloride; Diltiazem Hydrochloride EXTENDED RELEASE; Diltiazem Hydrochloride Extended Release; Diltiazem Hydrochloride Extended Release Extended Release; Diltiazem Hydrochloride Extended-Release; Diltiazem Hydrochloride Extended-release; Diltiazem Hydrochloride Injection; Diltiazem HydrochlorideExtended Release Extended Release; Diltiazem TZ; Diltiazem Tablets 30mg; Diltiazem Tablets 60mg; Diltiazem hydrochloride; Diltiazem-30 Tab 30mg; Diltiazem-60 Tab 60mg; Diltzac; Gen-diltiazem - Tab 30mg; Gen-diltiazem - Tab 60mg; Gen-diltiazem CD; Gen-diltiazem SR 120mg; Gen-diltiazem SR 60mg; Gen-diltiazem SR 90mg; Mar-diltiazem CD; Mar-diltiazem T; Matzim LA; Med Diltiazem - Tab 30mg; Med Diltiazem - Tab 60mg; Novo-diltazem SR Capsules; Nu-diltiaz Tab 30mg; Nu-diltiaz Tab 60mg; Nu-diltiaz-CD Capsules; Nu-diltiaz-CD Capsules 120mg; Nu-diltiaz-CD Capsules 180mg; Nu-diltiaz-CD Capsules 240mg; PMS-diltiazem CD; Penta-diltiazem - 30mg; Penta-diltiazem - 60mg; Ratio-diltiazem CD; Sandoz Diltiazem CD; Sandoz Diltiazem T; Taro-diltiazem T; Taro-diltiazem Tab 30mg; Taro-diltiazem Tab 60mg; Taztia Xt; Teva-diltiazem; Teva-diltiazem CD; Teva-diltiazem HCl ER Capsules; Tiadylt ER; Tiazac; Tiazac Extended Release; Tiazac Xc; Tria-diltiazem 30mg Tablets; Tria-diltiazem 60 Mg Tablets

> <INTERNATIONAL_BRANDS>
Acalix; Adizem; Altiazem; Anoheal; Calcicard; Cartia; Dilacor; Dilacor-XR; Dilcontin; Dilrene; Dilticard; Dilzem; Herbesser; Incoril AP; Masdil; Surazem; TAZTIA; Tildem; Viazem

> <SALTS>
Diltiazem hydrochloride; Diltiazem malate; Diltiazem maleate

$$$$
