2554
  -OEChem-10051719183D

 30 32  0     0  0  0  0  0  0999 V2000
    1.0649    2.9296   -0.7569 O   0  0  0  0  0  0  0  0  0  0  0  0
   -0.0003    0.8924   -0.2539 N   0  0  0  0  0  0  0  0  0  0  0  0
   -1.1919    2.8293   -0.9143 N   0  0  0  0  0  0  0  0  0  0  0  0
    1.2150    0.1984    0.0798 C   0  0  0  0  0  0  0  0  0  0  0  0
   -1.2113    0.1925    0.0767 C   0  0  0  0  0  0  0  0  0  0  0  0
    1.5118   -1.0876   -0.4121 C   0  0  0  0  0  0  0  0  0  0  0  0
   -1.5090   -1.0920   -0.4135 C   0  0  0  0  0  0  0  0  0  0  0  0
    0.6693   -1.8018   -1.3758 C   0  0  0  0  0  0  0  0  0  0  0  0
   -0.6674   -1.8031   -1.3783 C   0  0  0  0  0  0  0  0  0  0  0  0
    2.1492    0.8267    0.9279 C   0  0  0  0  0  0  0  0  0  0  0  0
   -2.1272    0.8106    0.9530 C   0  0  0  0  0  0  0  0  0  0  0  0
    2.7308   -1.6980   -0.0624 C   0  0  0  0  0  0  0  0  0  0  0  0
   -2.7213   -1.7062   -0.0493 C   0  0  0  0  0  0  0  0  0  0  0  0
    0.0361    2.2626   -0.6127 C   0  0  0  0  0  0  0  0  0  0  0  0
    3.3466    0.2018    1.2779 C   0  0  0  0  0  0  0  0  0  0  0  0
   -3.3173    0.1821    1.3183 C   0  0  0  0  0  0  0  0  0  0  0  0
    3.6384   -1.0609    0.7815 C   0  0  0  0  0  0  0  0  0  0  0  0
   -3.6162   -1.0763    0.8140 C   0  0  0  0  0  0  0  0  0  0  0  0
    1.1881   -2.4020   -2.1198 H   0  0  0  0  0  0  0  0  0  0  0  0
   -1.1844   -2.4043   -2.1226 H   0  0  0  0  0  0  0  0  0  0  0  0
    1.9430    1.8059    1.3545 H   0  0  0  0  0  0  0  0  0  0  0  0
   -1.9093    1.7811    1.3943 H   0  0  0  0  0  0  0  0  0  0  0  0
    2.9876   -2.6824   -0.4498 H   0  0  0  0  0  0  0  0  0  0  0  0
   -2.9810   -2.6897   -0.4369 H   0  0  0  0  0  0  0  0  0  0  0  0
    4.0472    0.7029    1.9393 H   0  0  0  0  0  0  0  0  0  0  0  0
   -4.0052    0.6743    1.9993 H   0  0  0  0  0  0  0  0  0  0  0  0
    4.5713   -1.5494    1.0458 H   0  0  0  0  0  0  0  0  0  0  0  0
   -4.5435   -1.5689    1.0906 H   0  0  0  0  0  0  0  0  0  0  0  0
   -1.2478    3.8055   -1.1865 H   0  0  0  0  0  0  0  0  0  0  0  0
   -2.0495    2.2987   -1.0099 H   0  0  0  0  0  0  0  0  0  0  0  0
  1 14  2  0  0  0  0
  2  4  1  0  0  0  0
  2  5  1  0  0  0  0
  2 14  1  0  0  0  0
  3 14  1  0  0  0  0
  3 29  1  0  0  0  0
  3 30  1  0  0  0  0
  4  6  1  0  0  0  0
  4 10  2  0  0  0  0
  5  7  1  0  0  0  0
  5 11  2  0  0  0  0
  6  8  1  0  0  0  0
  6 12  2  0  0  0  0
  7  9  1  0  0  0  0
  7 13  2  0  0  0  0
  8  9  2  0  0  0  0
  8 19  1  0  0  0  0
  9 20  1  0  0  0  0
 10 15  1  0  0  0  0
 10 21  1  0  0  0  0
 11 16  1  0  0  0  0
 11 22  1  0  0  0  0
 12 17  1  0  0  0  0
 12 23  1  0  0  0  0
 13 18  1  0  0  0  0
 13 24  1  0  0  0  0
 15 17  2  0  0  0  0
 15 25  1  0  0  0  0
 16 18  2  0  0  0  0
 16 26  1  0  0  0  0
 17 27  1  0  0  0  0
 18 28  1  0  0  0  0
M  END
> <DATABASE_ID>
DB00564

> <DATABASE_NAME>
drugbank

> <ORIGINAL_SOURCE>
PUBCHEM

> <ORIGINAL_SOURCE_URL>
https://pubchem.ncbi.nlm.nih.gov/rest/pug/compound/inchikey/FFGPTBGBLSHEPO-UHFFFAOYSA-N/SDF?record_type=3d

> <SMILES>
NC(=O)N1C2=CC=CC=C2C=CC2=CC=CC=C12

> <INCHI_IDENTIFIER>
InChI=1S/C15H12N2O/c16-15(18)17-13-7-3-1-5-11(13)9-10-12-6-2-4-8-14(12)17/h1-10H,(H2,16,18)

> <INCHI_KEY>
FFGPTBGBLSHEPO-UHFFFAOYSA-N

> <FORMULA>
C15H12N2O

> <MOLECULAR_WEIGHT>
236.2686

> <EXACT_MASS>
236.094963016

> <JCHEM_ACCEPTOR_COUNT>
1

> <JCHEM_AVERAGE_POLARIZABILITY>
25.00249084101828

> <JCHEM_BIOAVAILABILITY>
1

> <JCHEM_DONOR_COUNT>
1

> <JCHEM_FORMAL_CHARGE>
0

> <JCHEM_GHOSE_FILTER>
1

> <JCHEM_IUPAC>
2-azatricyclo[9.4.0.0³,⁸]pentadeca-1(15),3,5,7,9,11,13-heptaene-2-carboxamide

> <ALOGPS_LOGP>
2.10

> <JCHEM_LOGP>
2.7660303863333335

> <ALOGPS_LOGS>
-3.19

> <JCHEM_MDDR_LIKE_RULE>
0

> <JCHEM_NUMBER_OF_RINGS>
3

> <JCHEM_PHYSIOLOGICAL_CHARGE>
0

> <JCHEM_PKA_STRONGEST_ACIDIC>
15.958359453242029

> <JCHEM_PKA_STRONGEST_BASIC>
-3.7540181335527305

> <JCHEM_POLAR_SURFACE_AREA>
46.33

> <JCHEM_REFRACTIVITY>
71.88800000000002

> <JCHEM_ROTATABLE_BOND_COUNT>
0

> <JCHEM_RULE_OF_FIVE>
1

> <ALOGPS_SOLUBILITY>
1.52e-01 g/l

> <JCHEM_TRADITIONAL_IUPAC>
carbamazepine

> <JCHEM_VEBER_RULE>
0

> <DRUGBANK_ID>
DB00564

> <SECONDARY_ACCESSION_NUMBERS>
APRD00337

> <DRUG_GROUPS>
approved; investigational

> <GENERIC_NAME>
Carbamazepine

> <SYNONYMS>
5-Carbamoyl-5H-dibenz(b,f)azepine; 5-carbamoyl-5H-dibenz[b,f]azepine; 5-Carbamoyl-5H-dibenzo(b,f)azepine; 5-Carbamyl-5H-dibenzo(b,f)azepine; 5H-Dibenz(b,f)azepine-5-carboxamide; Carbamazepen; Carbamazepin; Carbamazepina; Carbamazepine; Carbamazépine; Carbamazepinum; CBZ

> <PRODUCTS>
Apo Carbamazepine Tab 200mg; Apo-carbamazepine CR; Bio-carbamazepine; Carbamazepine; Carbamazepine (Chewable); Carbamazepine 200 Tab 200mg; Carbamazepine 200mg Tablets; Carbamazepine CR; Carbamazepine ER; Carbamazepine-CR -(200mg); Carbamazepine-CR -(400mg); CarbamazepineER ER; Carbatrol; Carnexiv; Dom-carbamazepine; Dom-carbamazepine CR; Epitol; Equetro; Mazepine; Mylan-carbamazepine CR; Nu-carbamazepine Tab 200mg; PHL-carbamazepine CR; PMS-carbamazepine; PMS-carbamazepine CR; PMS-carbamazepine-CR; Sandoz-carbamazepine CR; Sandoz-carbamazepine Chewtabs; Taro-carbamazepine; Taro-carbamazepine CR 200 mg; Taro-carbamazepine CR 400 mg; Taro-carbamazepine Chewable Tablets 100mg; Taro-carbamazepine Chewable Tablets 200mg; Taro-carbamazepine Tab 200mg; Tegretol; Tegretol - Sus 100mg/5ml; Tegretol - XR; Tegretol 200mg; Tegretol CR Tab 200mg; Tegretol CR Tab 400mg; Tegretol Chewtabs 100 mg; Tegretol Chewtabs 200 mg; Tegretol XR; TegretolXR XR; Teva-carbamazepine

> <INTERNATIONAL_BRANDS>
Actebral; Anleptic; Biston; Carbamat; Neurotop; TEGretol Chewtabs; TEGretol-CR; TEGretol-XR; Teril; Timonil; Versitol; Versizur

$$$$
