5936
  -OEChem-01011917333D

 25 24  0     0  0  0  0  0  0999 V2000
   -0.0015    0.9621    0.2076 P   0  0  0  0  0  0  0  0  0  0  0  0
   -0.0103    0.9498   -1.3634 F   0  0  0  0  0  0  0  0  0  0  0  0
   -0.9060   -0.3130    0.6213 O   0  0  0  0  0  0  0  0  0  0  0  0
    1.5077    0.5354    0.6009 O   0  0  0  0  0  0  0  0  0  0  0  0
   -0.4523    2.2860    0.7502 O   0  0  0  0  0  0  0  0  0  0  0  0
   -2.2708   -0.3142    0.2423 C   0  0  0  0  0  0  0  0  0  0  0  0
    2.0190   -0.7001    0.1322 C   0  0  0  0  0  0  0  0  0  0  0  0
   -2.3695   -0.2317   -1.2735 C   0  0  0  0  0  0  0  0  0  0  0  0
   -2.9406   -1.5668    0.7865 C   0  0  0  0  0  0  0  0  0  0  0  0
    2.0029   -0.7039   -1.3889 C   0  0  0  0  0  0  0  0  0  0  0  0
    3.4215   -0.9036    0.6848 C   0  0  0  0  0  0  0  0  0  0  0  0
   -2.7588    0.5597    0.6890 H   0  0  0  0  0  0  0  0  0  0  0  0
    1.3872   -1.5128    0.5077 H   0  0  0  0  0  0  0  0  0  0  0  0
   -3.3775   -0.4931   -1.6134 H   0  0  0  0  0  0  0  0  0  0  0  0
   -2.1829    0.7862   -1.6281 H   0  0  0  0  0  0  0  0  0  0  0  0
   -1.6550   -0.9020   -1.7625 H   0  0  0  0  0  0  0  0  0  0  0  0
   -4.0060   -1.5911    0.5382 H   0  0  0  0  0  0  0  0  0  0  0  0
   -2.8344   -1.6130    1.8758 H   0  0  0  0  0  0  0  0  0  0  0  0
   -2.4650   -2.4688    0.3858 H   0  0  0  0  0  0  0  0  0  0  0  0
    2.6557   -1.4901   -1.7837 H   0  0  0  0  0  0  0  0  0  0  0  0
    1.0028   -0.9230   -1.7736 H   0  0  0  0  0  0  0  0  0  0  0  0
    2.3301    0.2561   -1.8015 H   0  0  0  0  0  0  0  0  0  0  0  0
    3.8413   -1.8633    0.3682 H   0  0  0  0  0  0  0  0  0  0  0  0
    3.4081   -0.8724    1.7796 H   0  0  0  0  0  0  0  0  0  0  0  0
    4.0908   -0.1011    0.3553 H   0  0  0  0  0  0  0  0  0  0  0  0
  1  2  1  0  0  0  0
  1  3  1  0  0  0  0
  1  4  1  0  0  0  0
  1  5  2  0  0  0  0
  3  6  1  0  0  0  0
  4  7  1  0  0  0  0
  6  8  1  0  0  0  0
  6  9  1  0  0  0  0
  6 12  1  0  0  0  0
  7 10  1  0  0  0  0
  7 11  1  0  0  0  0
  7 13  1  0  0  0  0
  8 14  1  0  0  0  0
  8 15  1  0  0  0  0
  8 16  1  0  0  0  0
  9 17  1  0  0  0  0
  9 18  1  0  0  0  0
  9 19  1  0  0  0  0
 10 20  1  0  0  0  0
 10 21  1  0  0  0  0
 10 22  1  0  0  0  0
 11 23  1  0  0  0  0
 11 24  1  0  0  0  0
 11 25  1  0  0  0  0
M  END
> <DATABASE_ID>
DB00677

> <DATABASE_NAME>
drugbank

> <ORIGINAL_SOURCE>
PUBCHEM

> <ORIGINAL_SOURCE_URL>
https://pubchem.ncbi.nlm.nih.gov/rest/pug/compound/inchikey/MUCZHBLJLSDCSD-UHFFFAOYSA-N/SDF?record_type=3d

> <SMILES>
CC(C)OP(F)(=O)OC(C)C

> <INCHI_IDENTIFIER>
InChI=1S/C6H14FO3P/c1-5(2)9-11(7,8)10-6(3)4/h5-6H,1-4H3

> <INCHI_KEY>
MUCZHBLJLSDCSD-UHFFFAOYSA-N

> <FORMULA>
C6H14FO3P

> <MOLECULAR_WEIGHT>
184.1457

> <EXACT_MASS>
184.066459031

> <JCHEM_ACCEPTOR_COUNT>
1

> <JCHEM_ATOM_COUNT>
25

> <JCHEM_AVERAGE_POLARIZABILITY>
16.818006666032645

> <JCHEM_BIOAVAILABILITY>
1

> <JCHEM_DONOR_COUNT>
0

> <JCHEM_FORMAL_CHARGE>
0

> <JCHEM_GHOSE_FILTER>
1

> <JCHEM_IUPAC>
bis(propan-2-yl) phosphorofluoridate

> <ALOGPS_LOGP>
1.10

> <JCHEM_LOGP>
1.7603906453333336

> <ALOGPS_LOGS>
-1.43

> <JCHEM_MDDR_LIKE_RULE>
0

> <JCHEM_NUMBER_OF_RINGS>
0

> <JCHEM_PHYSIOLOGICAL_CHARGE>
0

> <JCHEM_PKA_STRONGEST_BASIC>
-9.64521439025244

> <JCHEM_POLAR_SURFACE_AREA>
35.53

> <JCHEM_REFRACTIVITY>
40.888000000000005

> <JCHEM_ROTATABLE_BOND_COUNT>
4

> <JCHEM_RULE_OF_FIVE>
1

> <ALOGPS_SOLUBILITY>
6.78e+00 g/l

> <JCHEM_TRADITIONAL_IUPAC>
isoflurophate

> <JCHEM_VEBER_RULE>
1

> <DRUGBANK_ID>
DB00677

> <SECONDARY_ACCESSION_NUMBERS>
APRD00763

> <DRUG_GROUPS>
approved; investigational; withdrawn

> <GENERIC_NAME>
Isoflurophate

> <SYNONYMS>
DFP; Diisopropoxyphosphoryl fluoride; Diisopropyl fluorophosphate; Diisopropyl fluorophosphonate; Diisopropyl phosphofluoridate; Diisopropyl phosphorofluoridate; Diisopropylfluorophosphate; Diisopropylfluorophosphoric acid ester; Diisopropylphosphofluoridate; Diisopropylphosphorofluoridate; Fluorodiisopropyl phosphate; Fluorostigmine; Isofluorphate; Isoflurophate; Isoflurophosphate; Isopropyl fluophosphate; Isopropyl phosphorofluoridate; O,O'-diisopropyl phosphoryl fluoride

> <INTERNATIONAL_BRANDS>
Diflupyl; Floropryl; Fluopryl; Neoglaucit

$$$$
