3042
  -OEChem-10051719233D

 57 58  0     0  0  0  0  0  0999 V2000
    0.5781   -0.1424   -0.0062 O   0  0  0  0  0  0  0  0  0  0  0  0
   -0.3266   -1.2965   -1.7912 O   0  0  0  0  0  0  0  0  0  0  0  0
    4.1946    0.5096   -0.3173 N   0  0  0  0  0  0  0  0  0  0  0  0
   -1.7168   -0.6328    0.0716 C   0  0  0  0  0  0  0  0  0  0  0  0
   -2.0025    0.8610    0.2143 C   0  0  0  0  0  0  0  0  0  0  0  0
   -2.8560   -1.3114   -0.7111 C   0  0  0  0  0  0  0  0  0  0  0  0
   -1.5440   -1.2683    1.4635 C   0  0  0  0  0  0  0  0  0  0  0  0
   -2.1053    1.5271   -1.1644 C   0  0  0  0  0  0  0  0  0  0  0  0
   -3.2817    1.0926    1.0298 C   0  0  0  0  0  0  0  0  0  0  0  0
   -2.7314   -2.8352   -0.7445 C   0  0  0  0  0  0  0  0  0  0  0  0
   -1.4292   -2.7924    1.4127 C   0  0  0  0  0  0  0  0  0  0  0  0
   -2.4434    3.0118   -1.0492 C   0  0  0  0  0  0  0  0  0  0  0  0
   -3.6181    2.5780    1.1412 C   0  0  0  0  0  0  0  0  0  0  0  0
   -2.5933   -3.4209    0.6558 C   0  0  0  0  0  0  0  0  0  0  0  0
   -3.7106    3.2385   -0.2308 C   0  0  0  0  0  0  0  0  0  0  0  0
   -0.4269   -0.7442   -0.7039 C   0  0  0  0  0  0  0  0  0  0  0  0
    1.8653   -0.1749   -0.6305 C   0  0  0  0  0  0  0  0  0  0  0  0
    2.8637    0.5334    0.2712 C   0  0  0  0  0  0  0  0  0  0  0  0
    4.8249   -0.7981   -0.1204 C   0  0  0  0  0  0  0  0  0  0  0  0
    5.0332    1.5659    0.2546 C   0  0  0  0  0  0  0  0  0  0  0  0
    6.1871   -0.8574   -0.7905 C   0  0  0  0  0  0  0  0  0  0  0  0
    5.2391    1.3568    1.7452 C   0  0  0  0  0  0  0  0  0  0  0  0
   -1.1845    1.3537    0.7596 H   0  0  0  0  0  0  0  0  0  0  0  0
   -2.8975   -0.9809   -1.7546 H   0  0  0  0  0  0  0  0  0  0  0  0
   -3.8371   -1.1055   -0.2771 H   0  0  0  0  0  0  0  0  0  0  0  0
   -2.4081   -1.0727    2.1043 H   0  0  0  0  0  0  0  0  0  0  0  0
   -0.6736   -0.8622    1.9927 H   0  0  0  0  0  0  0  0  0  0  0  0
   -1.1687    1.4410   -1.7257 H   0  0  0  0  0  0  0  0  0  0  0  0
   -2.8913    1.0740   -1.7766 H   0  0  0  0  0  0  0  0  0  0  0  0
   -4.1579    0.6096    0.5912 H   0  0  0  0  0  0  0  0  0  0  0  0
   -3.1858    0.7294    2.0559 H   0  0  0  0  0  0  0  0  0  0  0  0
   -1.8777   -3.1475   -1.3551 H   0  0  0  0  0  0  0  0  0  0  0  0
   -3.6207   -3.2594   -1.2262 H   0  0  0  0  0  0  0  0  0  0  0  0
   -1.3977   -3.1920    2.4331 H   0  0  0  0  0  0  0  0  0  0  0  0
   -0.4840   -3.0766    0.9346 H   0  0  0  0  0  0  0  0  0  0  0  0
   -1.6053    3.5411   -0.5792 H   0  0  0  0  0  0  0  0  0  0  0  0
   -2.5701    3.4408   -2.0498 H   0  0  0  0  0  0  0  0  0  0  0  0
   -2.8481    3.0832    1.7375 H   0  0  0  0  0  0  0  0  0  0  0  0
   -4.5670    2.7042    1.6751 H   0  0  0  0  0  0  0  0  0  0  0  0
   -2.4483   -4.5051    0.5897 H   0  0  0  0  0  0  0  0  0  0  0  0
   -3.5234   -3.2573    1.2140 H   0  0  0  0  0  0  0  0  0  0  0  0
   -4.5732    2.8330   -0.7736 H   0  0  0  0  0  0  0  0  0  0  0  0
   -3.8851    4.3137   -0.1114 H   0  0  0  0  0  0  0  0  0  0  0  0
    2.1354   -1.2235   -0.7905 H   0  0  0  0  0  0  0  0  0  0  0  0
    1.8057    0.3313   -1.6019 H   0  0  0  0  0  0  0  0  0  0  0  0
    2.8268    0.0843    1.2724 H   0  0  0  0  0  0  0  0  0  0  0  0
    2.5049    1.5646    0.3943 H   0  0  0  0  0  0  0  0  0  0  0  0
    4.8962   -1.1072    0.9284 H   0  0  0  0  0  0  0  0  0  0  0  0
    4.2201   -1.5684   -0.6121 H   0  0  0  0  0  0  0  0  0  0  0  0
    5.9952    1.6531   -0.2614 H   0  0  0  0  0  0  0  0  0  0  0  0
    4.5498    2.5382    0.0923 H   0  0  0  0  0  0  0  0  0  0  0  0
    6.1492   -0.4843   -1.8198 H   0  0  0  0  0  0  0  0  0  0  0  0
    6.9517   -0.3012   -0.2401 H   0  0  0  0  0  0  0  0  0  0  0  0
    6.5282   -1.8979   -0.8352 H   0  0  0  0  0  0  0  0  0  0  0  0
    5.7967    2.2140    2.1421 H   0  0  0  0  0  0  0  0  0  0  0  0
    5.8418    0.4754    1.9808 H   0  0  0  0  0  0  0  0  0  0  0  0
    4.3071    1.3152    2.3156 H   0  0  0  0  0  0  0  0  0  0  0  0
  1 16  1  0  0  0  0
  1 17  1  0  0  0  0
  2 16  2  0  0  0  0
  3 18  1  0  0  0  0
  3 19  1  0  0  0  0
  3 20  1  0  0  0  0
  4  5  1  0  0  0  0
  4  6  1  0  0  0  0
  4  7  1  0  0  0  0
  4 16  1  0  0  0  0
  5  8  1  0  0  0  0
  5  9  1  0  0  0  0
  5 23  1  0  0  0  0
  6 10  1  0  0  0  0
  6 24  1  0  0  0  0
  6 25  1  0  0  0  0
  7 11  1  0  0  0  0
  7 26  1  0  0  0  0
  7 27  1  0  0  0  0
  8 12  1  0  0  0  0
  8 28  1  0  0  0  0
  8 29  1  0  0  0  0
  9 13  1  0  0  0  0
  9 30  1  0  0  0  0
  9 31  1  0  0  0  0
 10 14  1  0  0  0  0
 10 32  1  0  0  0  0
 10 33  1  0  0  0  0
 11 14  1  0  0  0  0
 11 34  1  0  0  0  0
 11 35  1  0  0  0  0
 12 15  1  0  0  0  0
 12 36  1  0  0  0  0
 12 37  1  0  0  0  0
 13 15  1  0  0  0  0
 13 38  1  0  0  0  0
 13 39  1  0  0  0  0
 14 40  1  0  0  0  0
 14 41  1  0  0  0  0
 15 42  1  0  0  0  0
 15 43  1  0  0  0  0
 17 18  1  0  0  0  0
 17 44  1  0  0  0  0
 17 45  1  0  0  0  0
 18 46  1  0  0  0  0
 18 47  1  0  0  0  0
 19 21  1  0  0  0  0
 19 48  1  0  0  0  0
 19 49  1  0  0  0  0
 20 22  1  0  0  0  0
 20 50  1  0  0  0  0
 20 51  1  0  0  0  0
 21 52  1  0  0  0  0
 21 53  1  0  0  0  0
 21 54  1  0  0  0  0
 22 55  1  0  0  0  0
 22 56  1  0  0  0  0
 22 57  1  0  0  0  0
M  END
> <DATABASE_ID>
DB00804

> <DATABASE_NAME>
drugbank

> <ORIGINAL_SOURCE>
PUBCHEM

> <ORIGINAL_SOURCE_URL>
https://pubchem.ncbi.nlm.nih.gov/rest/pug/compound/inchikey/CURUTKGFNZGFSE-UHFFFAOYSA-N/SDF?record_type=3d

> <SMILES>
CCN(CC)CCOC(=O)C1(CCCCC1)C1CCCCC1

> <INCHI_IDENTIFIER>
InChI=1S/C19H35NO2/c1-3-20(4-2)15-16-22-18(21)19(13-9-6-10-14-19)17-11-7-5-8-12-17/h17H,3-16H2,1-2H3

> <INCHI_KEY>
CURUTKGFNZGFSE-UHFFFAOYSA-N

> <FORMULA>
C19H35NO2

> <MOLECULAR_WEIGHT>
309.4867

> <EXACT_MASS>
309.266779369

> <JCHEM_ACCEPTOR_COUNT>
2

> <JCHEM_AVERAGE_POLARIZABILITY>
37.38527172658855

> <JCHEM_BIOAVAILABILITY>
1

> <JCHEM_DONOR_COUNT>
0

> <JCHEM_FORMAL_CHARGE>
0

> <JCHEM_GHOSE_FILTER>
1

> <JCHEM_IUPAC>
2-(diethylamino)ethyl 1-cyclohexylcyclohexane-1-carboxylate

> <ALOGPS_LOGP>
5.82

> <JCHEM_LOGP>
4.925893146666668

> <ALOGPS_LOGS>
-4.98

> <JCHEM_MDDR_LIKE_RULE>
0

> <JCHEM_NUMBER_OF_RINGS>
2

> <JCHEM_PHYSIOLOGICAL_CHARGE>
1

> <JCHEM_PKA_STRONGEST_BASIC>
8.962051964023164

> <JCHEM_POLAR_SURFACE_AREA>
29.54

> <JCHEM_REFRACTIVITY>
91.78269999999998

> <JCHEM_ROTATABLE_BOND_COUNT>
8

> <JCHEM_RULE_OF_FIVE>
1

> <ALOGPS_SOLUBILITY>
3.27e-03 g/l

> <JCHEM_TRADITIONAL_IUPAC>
bentyl

> <JCHEM_VEBER_RULE>
1

> <DRUGBANK_ID>
DB00804

> <SECONDARY_ACCESSION_NUMBERS>
APRD00113

> <DRUG_GROUPS>
approved

> <GENERIC_NAME>
Dicyclomine

> <SYNONYMS>
2-(diethylamino)ethyl 1-cyclohexylcyclohexanecarboxylate; Bicyclohexyl-1-carboxylic acid 2-diethylamino-ethyl ester; Dicicloverina; Dicyclomine; Dicycloverin; Dicycloverine; Dicycloverinum

> <PRODUCTS>
Bentyl; Bentylol; Bentylol Dospan 30mg; Bentylol Inj 10mg/ml; Bentylol Tablet 10mg; Bentylol Tablet 20mg; Diclophen; Dicyclomine; Dicyclomine Cap 10mg; Dicyclomine HCl; Dicyclomine Hydrochloride; Dicyclomine Hydrochloride Injection USP; Dicyclomine Hydrochloride USP; Dicyclomine hydrochloride; Formulex Cap 10mg; Jamp-dicyclomine HCl; Protylol; Protylol Tab 20mg; Riva-dicyclomine; Spasmo Nil Tab; Viscerol Cap 10mg

> <INTERNATIONAL_BRANDS>
Byclomine; Di-Spaz; Dibent; Dilomine; Dyspas; Merbentyl

> <SALTS>
Dicyclomine hydrochloride

$$$$
