4837
  -OEChem-10051719183D

 16 16  0     0  0  0  0  0  0999 V2000
    1.4274    0.0012    0.2288 N   0  0  0  0  0  0  0  0  0  0  0  0
   -1.4330   -0.0013   -0.2312 N   0  0  0  0  0  0  0  0  0  0  0  0
    0.7306    1.2050   -0.2245 C   0  0  0  0  0  0  0  0  0  0  0  0
    0.7328   -1.2036   -0.2246 C   0  0  0  0  0  0  0  0  0  0  0  0
   -0.7301    1.2004    0.2258 C   0  0  0  0  0  0  0  0  0  0  0  0
   -0.7278   -1.2016    0.2259 C   0  0  0  0  0  0  0  0  0  0  0  0
    0.7914    1.2835   -1.3173 H   0  0  0  0  0  0  0  0  0  0  0  0
    1.2345    2.0849    0.1899 H   0  0  0  0  0  0  0  0  0  0  0  0
    1.2382   -2.0828    0.1896 H   0  0  0  0  0  0  0  0  0  0  0  0
    0.7936   -1.2820   -1.3174 H   0  0  0  0  0  0  0  0  0  0  0  0
   -0.7906    1.2746    1.3190 H   0  0  0  0  0  0  0  0  0  0  0  0
   -1.2360    2.0818   -0.1832 H   0  0  0  0  0  0  0  0  0  0  0  0
   -1.2322   -2.0840   -0.1828 H   0  0  0  0  0  0  0  0  0  0  0  0
   -0.7881   -1.2758    1.3191 H   0  0  0  0  0  0  0  0  0  0  0  0
    2.3806    0.0021   -0.1327 H   0  0  0  0  0  0  0  0  0  0  0  0
   -2.3829   -0.0022    0.1389 H   0  0  0  0  0  0  0  0  0  0  0  0
  1  3  1  0  0  0  0
  1  4  1  0  0  0  0
  1 15  1  0  0  0  0
  2  5  1  0  0  0  0
  2  6  1  0  0  0  0
  2 16  1  0  0  0  0
  3  5  1  0  0  0  0
  3  7  1  0  0  0  0
  3  8  1  0  0  0  0
  4  6  1  0  0  0  0
  4  9  1  0  0  0  0
  4 10  1  0  0  0  0
  5 11  1  0  0  0  0
  5 12  1  0  0  0  0
  6 13  1  0  0  0  0
  6 14  1  0  0  0  0
M  END
> <DATABASE_ID>
DB00592

> <DATABASE_NAME>
drugbank

> <ORIGINAL_SOURCE>
PUBCHEM

> <ORIGINAL_SOURCE_URL>
https://pubchem.ncbi.nlm.nih.gov/rest/pug/compound/inchikey/GLUUGHFHXGJENI-UHFFFAOYSA-N/SDF?record_type=3d

> <SMILES>
C1CNCCN1

> <INCHI_IDENTIFIER>
InChI=1S/C4H10N2/c1-2-6-4-3-5-1/h5-6H,1-4H2

> <INCHI_KEY>
GLUUGHFHXGJENI-UHFFFAOYSA-N

> <FORMULA>
C4H10N2

> <MOLECULAR_WEIGHT>
86.1356

> <EXACT_MASS>
86.08439833

> <JCHEM_ACCEPTOR_COUNT>
2

> <JCHEM_AVERAGE_POLARIZABILITY>
9.973273418817676

> <JCHEM_BIOAVAILABILITY>
1

> <JCHEM_DONOR_COUNT>
2

> <JCHEM_FORMAL_CHARGE>
0

> <JCHEM_GHOSE_FILTER>
0

> <JCHEM_IUPAC>
piperazine

> <ALOGPS_LOGP>
-1.16

> <JCHEM_LOGP>
-0.72880683

> <ALOGPS_LOGS>
0.63

> <JCHEM_MDDR_LIKE_RULE>
0

> <JCHEM_NUMBER_OF_RINGS>
1

> <JCHEM_PHYSIOLOGICAL_CHARGE>
1

> <JCHEM_PKA_STRONGEST_BASIC>
9.559244671699773

> <JCHEM_POLAR_SURFACE_AREA>
24.06

> <JCHEM_REFRACTIVITY>
25.4488

> <JCHEM_ROTATABLE_BOND_COUNT>
0

> <JCHEM_RULE_OF_FIVE>
1

> <ALOGPS_SOLUBILITY>
3.71e+02 g/l

> <JCHEM_TRADITIONAL_IUPAC>
piperazine

> <JCHEM_VEBER_RULE>
1

> <DRUGBANK_ID>
DB00592

> <SECONDARY_ACCESSION_NUMBERS>
APRD00225; DB11514

> <DRUG_GROUPS>
approved; vet_approved

> <GENERIC_NAME>
Piperazine

> <SYNONYMS>
Diethylenediamine; Piperazidine; Piperazin; Piperazina

> <PRODUCTS>
Entacyl Granules; Entacyl Granules 2.0gm; Entacyl Susp 0.6gm/5ml; Entacyl Suspension-600mg/5ml; Formule C34; Veriga 125; Vermirex Syr; Versol 100mg

> <INTERNATIONAL_BRANDS>
Antepar; Uvilon; Vermidol; Vermizine

> <SALTS>
Piperazine adipate; Piperazine citrate; Piperazine hexahydrate; Piperazine hydrate; Piperazine hydrochloride; Piperazine monohydrochloride; Piperazine phosphate; Piperazine sulfate

$$$$
