25419
  -OEChem-12131813313D

 15 14  0     0  0  0  0  0  0999 V2000
   -0.0052   -1.6491    1.4640 Cl  0  0  0  0  0  0  0  0  0  0  0  0
   -0.0490   -1.7066   -1.4375 Cl  0  0  0  0  0  0  0  0  0  0  0  0
   -1.5983    0.2305   -0.0011 P   0  0  0  0  0  0  0  0  0  0  0  0
    1.5986    0.2168   -0.0136 P   0  0  0  0  0  0  0  0  0  0  0  0
   -1.4920    1.2378   -1.2619 O   0  0  0  0  0  0  0  0  0  0  0  0
   -1.4800    1.2285    1.2661 O   0  0  0  0  0  0  0  0  0  0  0  0
    1.5342    1.2438   -1.2612 O   0  0  0  0  0  0  0  0  0  0  0  0
    1.5240    1.1907    1.2755 O   0  0  0  0  0  0  0  0  0  0  0  0
   -2.8072   -0.6578    0.0008 O   0  0  0  0  0  0  0  0  0  0  0  0
    2.7777   -0.7116   -0.0210 O   0  0  0  0  0  0  0  0  0  0  0  0
   -0.0030   -0.6230   -0.0100 C   0  0  0  0  0  0  0  0  0  0  0  0
   -2.2626    1.8023   -1.4843 H   0  0  0  0  0  0  0  0  0  0  0  0
   -2.2484    1.7915    1.4999 H   0  0  0  0  0  0  0  0  0  0  0  0
    2.3268    1.7806   -1.4751 H   0  0  0  0  0  0  0  0  0  0  0  0
    2.3144    1.7188    1.5174 H   0  0  0  0  0  0  0  0  0  0  0  0
  1 11  1  0  0  0  0
  2 11  1  0  0  0  0
  3  5  1  0  0  0  0
  3  6  1  0  0  0  0
  3  9  2  0  0  0  0
  3 11  1  0  0  0  0
  4  7  1  0  0  0  0
  4  8  1  0  0  0  0
  4 10  2  0  0  0  0
  4 11  1  0  0  0  0
  5 12  1  0  0  0  0
  6 13  1  0  0  0  0
  7 14  1  0  0  0  0
  8 15  1  0  0  0  0
M  END
> <DATABASE_ID>
DB00720

> <DATABASE_NAME>
drugbank

> <ORIGINAL_SOURCE>
PUBCHEM

> <ORIGINAL_SOURCE_URL>
https://pubchem.ncbi.nlm.nih.gov/rest/pug/compound/inchikey/ACSIXWWBWUQEHA-UHFFFAOYSA-N/SDF?record_type=3d

> <SMILES>
OP(O)(=O)C(Cl)(Cl)P(O)(O)=O

> <INCHI_IDENTIFIER>
InChI=1S/CH4Cl2O6P2/c2-1(3,10(4,5)6)11(7,8)9/h(H2,4,5,6)(H2,7,8,9)

> <INCHI_KEY>
ACSIXWWBWUQEHA-UHFFFAOYSA-N

> <FORMULA>
CH4Cl2O6P2

> <MOLECULAR_WEIGHT>
244.892

> <EXACT_MASS>
243.886016298

> <JCHEM_ACCEPTOR_COUNT>
6

> <JCHEM_ATOM_COUNT>
15

> <JCHEM_AVERAGE_POLARIZABILITY>
15.295152638978958

> <JCHEM_BIOAVAILABILITY>
1

> <JCHEM_DONOR_COUNT>
4

> <JCHEM_FORMAL_CHARGE>
0

> <JCHEM_GHOSE_FILTER>
0

> <JCHEM_IUPAC>
[dichloro(phosphono)methyl]phosphonic acid

> <ALOGPS_LOGP>
0.16

> <JCHEM_LOGP>
-0.06669455533333335

> <ALOGPS_LOGS>
-1.52

> <JCHEM_MDDR_LIKE_RULE>
0

> <JCHEM_NUMBER_OF_RINGS>
0

> <JCHEM_PHYSIOLOGICAL_CHARGE>
-3

> <JCHEM_PKA>
1.3807016226800877

> <JCHEM_PKA_STRONGEST_ACIDIC>
0.6193091569714033

> <JCHEM_POLAR_SURFACE_AREA>
115.06

> <JCHEM_REFRACTIVITY>
38.2136

> <JCHEM_ROTATABLE_BOND_COUNT>
2

> <JCHEM_RULE_OF_FIVE>
1

> <ALOGPS_SOLUBILITY>
7.47e+00 g/l

> <JCHEM_TRADITIONAL_IUPAC>
clodronate

> <JCHEM_VEBER_RULE>
0

> <DRUGBANK_ID>
DB00720

> <SECONDARY_ACCESSION_NUMBERS>
APRD00639

> <DRUG_GROUPS>
approved; investigational; vet_approved

> <GENERIC_NAME>
Clodronic acid

> <SYNONYMS>
(Dichloro-phosphono-methyl)-phosphonic acid; (dichloromethylene)bisphosphonic acid; (dichloromethylene)diphosphonic acid; Acide clodronique; Acido clodronico; Acidum clodronicum; Clodronate; Clodronic acid; Clodronsaeure; ClodronsÃ¤ure; dichloromethylene-1,1-bisphosphonic acid; dichloromethylene-1,1-diphosphonic acid; Dichloromethylidene diphosphonate

> <PRODUCTS>
Bonefos; Clasteon; Ostac Cap 400mg

> <INTERNATIONAL_BRANDS>
Lodronat; Loron; Lytos; Ostac; Sindronat

> <SALTS>
Clodronate disodium; Clodronate disodium tetrahydrate

$$$$
