3672
  -OEChem-10051719283D

 33 33  0     1  0  0  0  0  0999 V2000
   -4.4457   -1.0032    0.4113 O   0  0  0  0  0  0  0  0  0  0  0  0
   -2.4005   -1.9114    0.0531 O   0  0  0  0  0  0  0  0  0  0  0  0
    3.9024   -0.4411    0.0362 C   0  0  0  0  0  0  0  0  0  0  0  0
    3.1486    0.8194   -0.4313 C   0  0  0  0  0  0  0  0  0  0  0  0
    1.6528    0.7393   -0.2472 C   0  0  0  0  0  0  0  0  0  0  0  0
   -1.0946    0.5935    0.0901 C   0  0  0  0  0  0  0  0  0  0  0  0
   -2.5728    0.5152    0.2719 C   0  0  1  0  0  0  0  0  0  0  0  0
    3.6076   -0.7760    1.5005 C   0  0  0  0  0  0  0  0  0  0  0  0
    3.5239   -1.6299   -0.8505 C   0  0  0  0  0  0  0  0  0  0  0  0
    0.8690    0.2281   -1.2695 C   0  0  0  0  0  0  0  0  0  0  0  0
    1.0897    1.1791    0.9405 C   0  0  0  0  0  0  0  0  0  0  0  0
   -0.5135    0.1549   -1.0998 C   0  0  0  0  0  0  0  0  0  0  0  0
   -0.2929    1.1057    1.1102 C   0  0  0  0  0  0  0  0  0  0  0  0
   -3.3736    1.3495   -0.7486 C   0  0  0  0  0  0  0  0  0  0  0  0
   -3.1004   -0.9233    0.2332 C   0  0  0  0  0  0  0  0  0  0  0  0
    4.9775   -0.2527   -0.0735 H   0  0  0  0  0  0  0  0  0  0  0  0
    3.3789    1.0242   -1.4854 H   0  0  0  0  0  0  0  0  0  0  0  0
    3.5298    1.6907    0.1182 H   0  0  0  0  0  0  0  0  0  0  0  0
   -2.8243    0.8896    1.2739 H   0  0  0  0  0  0  0  0  0  0  0  0
    2.5794   -1.1167    1.6574 H   0  0  0  0  0  0  0  0  0  0  0  0
    3.7958    0.0879    2.1462 H   0  0  0  0  0  0  0  0  0  0  0  0
    4.2658   -1.5849    1.8375 H   0  0  0  0  0  0  0  0  0  0  0  0
    4.1778   -2.4814   -0.6301 H   0  0  0  0  0  0  0  0  0  0  0  0
    2.4964   -1.9688   -0.6863 H   0  0  0  0  0  0  0  0  0  0  0  0
    3.6494   -1.3895   -1.9115 H   0  0  0  0  0  0  0  0  0  0  0  0
    1.3084   -0.1099   -2.2035 H   0  0  0  0  0  0  0  0  0  0  0  0
    1.7024    1.5855    1.7398 H   0  0  0  0  0  0  0  0  0  0  0  0
   -1.1208   -0.2449   -1.9075 H   0  0  0  0  0  0  0  0  0  0  0  0
   -0.7290    1.4534    2.0430 H   0  0  0  0  0  0  0  0  0  0  0  0
   -3.0012    2.3792   -0.7840 H   0  0  0  0  0  0  0  0  0  0  0  0
   -3.3032    0.9294   -1.7582 H   0  0  0  0  0  0  0  0  0  0  0  0
   -4.4357    1.3895   -0.4835 H   0  0  0  0  0  0  0  0  0  0  0  0
   -4.7639   -1.9305    0.3782 H   0  0  0  0  0  0  0  0  0  0  0  0
  1 15  1  0  0  0  0
  1 33  1  0  0  0  0
  2 15  2  0  0  0  0
  3  4  1  0  0  0  0
  3  8  1  0  0  0  0
  3  9  1  0  0  0  0
  3 16  1  0  0  0  0
  4  5  1  0  0  0  0
  4 17  1  0  0  0  0
  4 18  1  0  0  0  0
  5 10  2  0  0  0  0
  5 11  1  0  0  0  0
  6  7  1  0  0  0  0
  6 12  2  0  0  0  0
  6 13  1  0  0  0  0
  7 14  1  0  0  0  0
  7 15  1  0  0  0  0
  7 19  1  0  0  0  0
  8 20  1  0  0  0  0
  8 21  1  0  0  0  0
  8 22  1  0  0  0  0
  9 23  1  0  0  0  0
  9 24  1  0  0  0  0
  9 25  1  0  0  0  0
 10 12  1  0  0  0  0
 10 26  1  0  0  0  0
 11 13  2  0  0  0  0
 11 27  1  0  0  0  0
 12 28  1  0  0  0  0
 13 29  1  0  0  0  0
 14 30  1  0  0  0  0
 14 31  1  0  0  0  0
 14 32  1  0  0  0  0
M  END
> <DATABASE_ID>
DB01050

> <DATABASE_NAME>
drugbank

> <ORIGINAL_SOURCE>
PUBCHEM

> <ORIGINAL_SOURCE_URL>
https://pubchem.ncbi.nlm.nih.gov/rest/pug/compound/inchikey/HEFNNWSXXWATRW-UHFFFAOYSA-N/SDF?record_type=3d

> <SMILES>
CC(C)CC1=CC=C(C=C1)C(C)C(O)=O

> <INCHI_IDENTIFIER>
InChI=1S/C13H18O2/c1-9(2)8-11-4-6-12(7-5-11)10(3)13(14)15/h4-7,9-10H,8H2,1-3H3,(H,14,15)

> <INCHI_KEY>
HEFNNWSXXWATRW-UHFFFAOYSA-N

> <FORMULA>
C13H18O2

> <MOLECULAR_WEIGHT>
206.2808

> <EXACT_MASS>
206.13067982

> <JCHEM_ACCEPTOR_COUNT>
2

> <JCHEM_AVERAGE_POLARIZABILITY>
23.761548886595566

> <JCHEM_BIOAVAILABILITY>
1

> <JCHEM_DONOR_COUNT>
1

> <JCHEM_FORMAL_CHARGE>
0

> <JCHEM_GHOSE_FILTER>
1

> <JCHEM_IUPAC>
2-[4-(2-methylpropyl)phenyl]propanoic acid

> <ALOGPS_LOGP>
3.50

> <JCHEM_LOGP>
3.8435581993333345

> <ALOGPS_LOGS>
-3.48

> <JCHEM_MDDR_LIKE_RULE>
0

> <JCHEM_NUMBER_OF_RINGS>
1

> <JCHEM_PHYSIOLOGICAL_CHARGE>
-1

> <JCHEM_PKA_STRONGEST_ACIDIC>
4.851939431757335

> <JCHEM_POLAR_SURFACE_AREA>
37.3

> <JCHEM_REFRACTIVITY>
60.73190000000002

> <JCHEM_ROTATABLE_BOND_COUNT>
4

> <JCHEM_RULE_OF_FIVE>
1

> <ALOGPS_SOLUBILITY>
6.84e-02 g/l

> <JCHEM_TRADITIONAL_IUPAC>
ibuprofen, (+-)-

> <JCHEM_VEBER_RULE>
1

> <DRUGBANK_ID>
DB01050

> <SECONDARY_ACCESSION_NUMBERS>
APRD00372

> <DRUG_GROUPS>
approved

> <GENERIC_NAME>
Ibuprofen

> <SYNONYMS>
(±)-2-(p-isobutylphenyl)propionic acid; (±)-ibuprofen; (±)-p-isobutylhydratropic acid; (±)-α-methyl-4-(2-methylpropyl)benzeneacetic acid; (4-isobutylphenyl)-α-methylacetic acid; (RS)-ibuprofen; 2-(4-isobutylphenyl)propanoic acid; 4-isobutylhydratropic acid; Ibuprofen; Ibuprofene; Ibuprofeno; Ibuprofenum; Ibuprophen; α-(4-isobutylphenyl)propionic acid; α-(p-isobutylphenyl)propionic acid

> <PRODUCTS>
10 Person ANSI; 25 Person ANSI; 365 Everyday Value Ibuprofen; 4389 First Aid Kit; 4390 First Aid Kit; 4392 First Aid Kit; 4395 First Aid Kit; 50 Person ANSI; 7 Select Childrens Ibuprofen; 7 Select Ibuprofen; 7 Select Ibuprofen PM; 7-Select Advil PM; Actiprofen - Caplet 200mg; Adventure Medical Kits 1-2 Person First Aid; Adventure Medical Kits 1-2 Person National Ski Patrol First Aid; Adventure Medical Kits 1-4 Person First Aid; Advil; Advil 12 Hour; Advil Allergy Sinus; Advil Allergy and Congestion Relief; Advil Arthritis Pain; Advil Back Pain; Advil Caplets; Advil Cold & Flu; Advil Cold & Sinus Convenience Pack; Advil Cold & Sinus Liqui-gels; Advil Cold & Sinus PE; Advil Cold & Sinus Plus; Advil Cold and Sinus; Advil Cold and Sinus Daytime; Advil Cold and Sinus Nighttime; Advil Cold, Cough & Flu Nighttime; Advil Cold, Sinus & Flu Extra Strength; Advil Congestion Relief; Advil Day/night Convenience Pack; Advil Extra Strength Caplets; Advil Extra Strength Liqui-gels; Advil Gel Caplets; Advil Headache & Migraine Caplets; Advil Headache & Migraine Extra Strength; Advil Headache & Migraine Pain Caplets; Advil Headache & Migraine Pain Extra Strength Caplets; Advil Headache & Migraine Pain Tablets; Advil Headache & Migraine Tablets; Advil Headache Caplets; Advil Headache Extra Strength; Advil Headache Tablets; Advil Liqui-Gels; Advil Liquigels; Advil Menstrual Pain; Advil Migraine; Advil Migraine Caplets; Advil Migraine Extra Strength; Advil Migraine Tablets; Advil Mini-gels; Advil Multi-Symptom Cold and Flu; Advil Muscle and Joint; Advil Nighttime; Advil PM; Advil Pain & Head Cold Night; Advil Pediatric Drops; Advil Pediatric Drops Fever From Colds Or Flu; Advil Sinus Congestion and Pain; Advil Sinus Congestion and Pain Relief; Advil Tablets; Alivio; Alti-ibuprofen Tab 300mg; Alti-ibuprofen Tab 400mg; Alti-ibuprofen Tab 600mg; Analgesic and Muscle Relaxant; Analgesic and Muscle Relaxant Caplets; Anodyne Ile; Apo Ibuprofen Tab 300mg; Apo Ibuprofen Tab 400mg; Apo Ibuprofen Tab 600mg; Apo-ibuprofen Caplet; Apo-ibuprofen Tab 200mg; Aprofen Regular Strength; Assured Ibuprofen; Auto 157; Axum; Babies R Us Ibuprofen; Babies R Us Infants Ibuprofen; Basic Care Childrens Ibuprofen; Basic Care Ibuprofen; Basic Care childrens ibuprofen; Basic Care ibuprofen; Being Well Ibuprofen; Berkley and Jensen Childrens Ibuprofen; Berkley and Jensen Ibuprofen; Berkley and Jensen Ibuprofen PM; Berkley and Jensen ibuprofen childrens dye free; CAREALL Ibuprofen; CVS All Purpose First Aid Kit; CVS First Aid Kit; CVS Ibuprofen Sodium; CVS Pharmacy Ibuprofen; Cabinet Pain Reliever and Fever Reducer; Caldolor; Care One Ibuprofen; Care One Ibuprofen Childrens; Care One Ibuprofen Cold and Sinus; Care One Ibuprofen Ib; Care One Ibuprofen Infants; Care One Ibuprofen PM; Care One ibuprofen; Care One ibuprofen childrens; CareOne Ibuprofen; Careone Childrens Ibuprofen; Careone Ibuprofen; Careone Ibuprofen PM; Careone ibuprofen junior strength; Cedaprin; Children's Advil; Children's Advil Chewable Tablets; Children's Advil Cold; Children's Advil Cold & Flu Multi-symptom; Children's Advil Fever From Colds Or Flu; Children's Europrofen; Children's Ibuprofen Suspension; Children's Motrin; Children's Motrin Chewable Tablet 50mg; Children's Motrin Chewable Tablets; Children's Motrin Cold; Childrens ADVIL; Childrens Advil; Childrens Advil Cold; Childrens Ibuprofen; Childrens Ibuprofen 100; Childrens Ibuprofen 100 Dye Free; Childrens Ibuprofen Oral Suspension; Childrens MOTRIN; Childrens Motrin; Childrens Motrin Cold; Cimetidine 5% / Ibuprofen 2% / Salicylic Acid 17%; Circle K Ibuprofen; Clear Choice Ibuprofen; Codofen; Cold & Sinus Relief Capsules; Cold + Sinus; Cold + Sinus Caplets; Cold + Sinus Daytime; Cold + Sinus Daytime Cold + Sinus Nighttime; Cold + Sinus Nighttime; Cold + Sinus Plus; Cold and Sinus Pain Relief; Cold and Sinus Plus; Cold and Sinus Relief; Combogesic; Combunox; Comfort Pac with Ibuprofen; Concentrated Ibuprofen; Concentrated ibuprofen infants; Congestion Relief; Conney Ibuprofen; Core Values Childrens Ibuprofen; CounterAct IB; DG Health Ibuprofen; DG Health Ibuprofen PM; DG Health childrens ibuprofen; Dg Health Childrens Ibuprofen; Dg Health Ibuprofen; Dimetapp Cold and Sinus Caplets; Diphenhydramine HCl and Ibuprofen; Direct Safety Ibuprofen; Doc in the Box All Day Supply; Dolex; Dolex Flex; Dover Addaprin; Dragon Tabs; Dristan Sinus Caplets; Duexis; Dye Free Childrens Ibuprofen; Dye Free Ibuprofen; Easy Care First Aid - All Purpose; Easy Care First Aid Ibuprofen; Easy Care First Aid Kit - Comprehensive; Easy Care First Aid Kit - Outdoor and Travel; Easy Care First Aid Kit - Sports and Travel; Equaline Childrens Ibuprofen; Equaline Ibuprofen; Equaline Ibuprofen Childrens; Equaline Ibuprofen Cold and Sinus; Equaline Ibuprofen PM; Equaline Ibuprofen childrens; Equaline congestion relief; Equaline ibuprofen; Equaline ibuprofen childrens; Equate Ibuprofen; Equate Ibuprofen Childrens; Equate Ibuprofen Cold and Sinus; Equate Ibuprofen PM; Exchange Select Ibuprofen PM; Extra Strength Ibuprofen; Extra Strength Ibuprofen Liquid Capsules; Extra Strength Ibuprofen Liquid Filled Capsules; Extra Strength Ibuprofen Liquid Gel Capsules; Family Wellness Childrens Ibuprofen; Family Wellness Ibuprofen PM; Fast Pain Relief; Film Coated Ibuprofen; First Aid Only Ibuprofen; Flex-Prin; Fluconazole 4% / Ibuprofen 2% / Itraconazole 1% / Terbinafine HCl 4%; Formu Care Ibuprofen; Formu Care Ibuprofen Childrens; Fulton Street Market Ibuprofen; GFA First Aid 75 Person Metal Case; GFA First Aid Kit Essentials - 33 Pieces; Genuine First Aid - Auto First Aid; Genuine First Aid - Home First Aid; Genuine First Aid Industrial First Aid; Good Neighbor Pharmacy Childrens Ibuprofen; Good Neighbor Pharmacy Childrens Ibuprofen Cold; Good Neighbor Pharmacy Congestion Relief; Good Neighbor Pharmacy Ibuprofen; Good Neighbor Pharmacy Ibuprofen Cold and Sinus; Good Neighbor Pharmacy Ibuprofen PM; Good Neighbor Pharmacy ibuprofen; Good Neighbor Pharmacy ibuprofen childrens; Good Sense Childrens Ibuprofen Oral Suspension; Good Sense Ibuprofen; Good Sense Ibuprofen Childrens; Good Sense Ibuprofen Cold and Sinus; Good Sense Ibuprofen PM; Good Sense Infants Ibuprofen; Good Sense ibuprofen; Good Sense ibuprofen infants; Good neighbor pharmacy ibuprofen; Green Guard Ibupro Relief; Green Guard Ibupro relief; Green Guard Ibuprofen Relief; Handy Solutions Ibuprofen; Harmon Face Values Ibuprofen; Harris Teeter Childrens Ibuprofen; Harris Teeter Ibuprofen; Harris Teeter Ibuprofen Infants; Harris Teeter Ibuprofen PM; Health Mart Childrens Ibuprofen; Health Mart Ibuprofen; Health Mart Ibuprofen IB; Health Mart childrens ibuprofen ib; Health Mart ibuprofen PM; Health Sense Infants Ibuprofen Oral Suspension; Health Sense Provil; Healthy Accents Congestion Relief; Healthy Accents Ibuprofen; Healthy Accents Ibuprofen Infants; Healthy Accents Ibuprofen PM; Healthy Accents ibuprofen; Healthy Accents ibuprofen childrens; Help I Have an Aching Body; Henry Schein Ibuprofen; Humana Pharmacy Childrens Ibuprofen; Humana Pharmacy Ibuprofen; Hydrocodone Bitartrate; Hydrocodone Bitartrate and Acetaminophen; Hydrocodone Bitartrate and Ibuprofen; Hydrocodone bitartrate and ibuprofen; Ibu; Ibu Profen Cold and Sinus; Ibucodone; Ibudone; Ibuprofen; Ibuprofen (NSAID) Pain Releiver/ Fever Reducer; Ibuprofen (NSAID) Pain Reliever/Fever Reducer; Ibuprofen + Pseudoephedrine Caplets; Ibuprofen - Tab 200mg; Ibuprofen 200; Ibuprofen 200 mg; Ibuprofen 200mg; Ibuprofen Ca; Ibuprofen Caplet; Ibuprofen Caplets; Ibuprofen Caplets 200 mg; Ibuprofen Capsules, 200 mg; Ibuprofen Capsules, 200mg; Ibuprofen Capsules, 400 mg; Ibuprofen Capsules, 400mg; Ibuprofen Childrens; Ibuprofen Cold Childrens; Ibuprofen Cold Relief Childrens; Ibuprofen Cold and Sinus; Ibuprofen Cold and Sinus A P J; Ibuprofen Daytime; Ibuprofen Daytime, Ibuprofen Nighttime; Ibuprofen Dye Free; Ibuprofen Dye-Free; Ibuprofen Extra Strength Caplets; Ibuprofen Fast relief medicine for pain; Ibuprofen IB; Ibuprofen Ib; Ibuprofen Immediate Release; Ibuprofen Immediate release; Ibuprofen Infants; Ibuprofen Junior; Ibuprofen Junior Strength; Ibuprofen Liqui-gels; Ibuprofen Liquid Capsules; Ibuprofen Liquid Filled Capsules; Ibuprofen Liquid Gel Capsules; Ibuprofen Liquid Gels; Ibuprofen Lysine; Ibuprofen Menstrual Pain Relief; Ibuprofen Minis; Ibuprofen Muscle and Joint; Ibuprofen Nighttime; Ibuprofen Oral; Ibuprofen Oral Suspension USP; Ibuprofen PM; Ibuprofen Pain Releiver/ Fever Reducer; Ibuprofen Pain Reliever/ Fever Reducer; Ibuprofen Pain Reliever/Fever Reducer; Ibuprofen Pain reliever/ Fever Reducer; Ibuprofen Pain reliever/fever reducer; Ibuprofen Sodium; Ibuprofen Softgels; Ibuprofen Tab 200mg; Ibuprofen Tab 300mg; Ibuprofen Tab 400mg; Ibuprofen Tablets; Ibuprofen Tablets 200 mg; Ibuprofen and Diphenhydramine Citrate; Ibuprofen and Diphenhydramine HCl; Ibuprofen and Diphenhydramine Hydrochloride Capsules; Ibuprofen and Pseudoephedrine; Ibuprofen and Pseudoephedrine HCl; Ibuprofen and Pseudoephedrine Hydrochloride; Ibuprofen and Pseudoephedrine hydrochloride; Ibuprofen childrens; Ibuprofen mini; Ibuprofen minis; Ibuprofen softgels; Ibuprofen+methocarbamol Caplets; Ibuprofen, Diphenhydramine HCl; Ibuprofen-600 Tab 600mg; Ibutab; Infants Advil; Infants Advil Concentrated Drops; Infants Dye Free Ibuprofen; Infants Ibuprofen; Infants Motrin; Infants' Motrin; Jamp-ibuprofen; Joint Maintenance Compliance Kit; Junior Strength Advil; Junior Strength Advil Fever From Colds Or Flu; Junior Strength Ibuprofen; Junior Strength Motrin Caplets; Junior Strength Motrin Chewable Tablet 100mg; Junior Strength Motrin Chewable Tablets; Kirkland Signature Ibuprofen; Kirkland Signature Ibuprofen Ib; Lab Safety Supply Ibuprofen; Leader Childrens Ibuprofen; Leader Congestion Relief; Leader Ibuprofen; Leader Ibuprofen 200; Leader Ibuprofen Childrens; Leader Ibuprofen Cold Childrens; Leader Ibuprofen Cold and Sinus; Leader Ibuprofen Infants; Leader Ibuprofen PM; Leader Infants Ibuprofen; Leader ibuprofen; Leader ibuprofen pm; Lil Drug Store Ibuprofen; MEDI-FIRST Ibuprofen; MEDI-FIRST PLUS Ibuprofen; Major Childrens Ibuprofen; Medi-First Ibuprofen; Medi-First Plus Ibuprofen; Medipren Tab 200mg; Medique I-prin; Medique Iprin; Meds on the Go; Members Mark Ibuprofen; Midol; Migraine Relief; Moore Medical Ibuprofen; Moore Medical LLC Ibuprofen; MooreBrand Ibuprofen; MoreBrand Ibuprofen; Motrin; Motrin 200mg; Motrin 300mg; Motrin 400mg; Motrin Caplet; Motrin Cold & Sinus Caplets; Motrin Cold & Sinus Pain; Motrin Gelcaps; Motrin IB; Motrin Ib; Motrin Ib Caplet/tab 200mg; Motrin Ib Caplets 200mg; Motrin Ib Menstrual Pain; Motrin Infants; Motrin Junior Strength; Motrin Liquid Gels 200mg; Motrin Liquid Gels 400 mg; Motrin PM; Motrin Platinum Muscle & Body; Motrin Tablets 300mg; Motrin Tablets 400mg; Motrin Tablets 600mg; Mountain Series Weekender Medical; Muscle & Back Pain Relief With Ibuprofen; Muscle & Joint; Muscle Relaxant and Analgesic Caplets; Muscle and Back Pain Platinum Relief; NeoProfen; Nighttime Cold, Cough & Flu; Nighttime Pain Relief; Nighttime Pain Reliever; Novo-profen; Nu-ibuprofen Tab 300mg; Nu-ibuprofen Tab 400mg; Nu-ibuprofen Tab 600mg; NuDroxiPAK I-800; Nuprin Immediate Release; Otis Clapp Ultraprin; Oxycodone Hydrochloride and Ibuprofen; Oxycodone hydrochloride and Ibuprofen; PMS-ibuprofen; PMS-ibuprofen (caplets); Pain Relief; Pain Relief Anti inflammatory; Pain Relief Ibuprofen; Pain Relief PM; Pamprin Ibuprofen Formula; Parents Choice Infants Ibuprofen; Pedea; PediaCare Childrens; PediaCare Infants; Pendo-ibuprofen; Pendo-ibuprofen (200mg Caplet); Pendo-ibuprofen Es; Perrigo Ibuprofen; PharmapureRx IBU 600-EZS; PharmapureRx INU 600-EZS; Physicians Care Ibuprofen; PhysiciansCare Ibuprofen; Platinum Muscle and Back Pain Relief; Prastera; Preferred Plus Congestion Relief; Preferred Plus Ibuprofen; Preferred Plus Ibuprofen 200; Probufen; Profen Ib; Profen Ib Infants; Proprinal; Quality Choice Ibuprofen 200; Rapid Comfort Ibuprofen; Ready America First Aid Outdoor- 107 Pieces; Ready America First Aid Pocket - 33 Pieces; Redicare Ibuprofen; Regular Ibuprofen; Regular Strength Analgesic & Muscle Relaxant Caplets; Reprexain; Rexall Ibuprofen; Robax Platinum; Rugby Congestion Relief; Rx Act Ibuprofen; Rx Act Ibuprofen Childrens; Rx Act Ibuprofen PM; ShopRite Childrens Ibuprofen; ShopRite Ibuprofen; ShopRite Ibuprofen IB; ShopRite Infants Ibuprofen; Shoprite Ibuprofen; Shoprite Ibuprofen PM; Signature Care Childrens Ibuprofen; Signature Care Ibuprofen; Signature Care Ibuprofen Childrens; Signature Care Ibuprofen PM; Signature Care Infants Ibuprofen; Simply Right Ibuprofen; Smart Sense Ibuprofen; Smart Sense Ibuprofen Gluten Free; Smart Sense Ibuprofen Infants; Smart Sense Ibuprofen PM; Smart Sense ibuprofen; Sound Body Childrens Ibuprofen; Sound Body Ibuprofen; Sudafed PE Head Congestion Plus Pain; Sudafed Sinus Advance; Summit Ultra; Sunmark Childrens Ibuprofen Ib; Sunmark Ibuprofen; Sunmark Ibuprofen IB; Sunmark Ibuprofen Ib; Sunmark Ibuprofen Infants; Sunmark Ibuprofen PM; Sunmark ibuprofen childrens; Sunmark ibuprofen cold and sinus; Sunmark ibuprofen ib; Super Strength Motrin Ib Liquid Gels; Super Strength Motrin Ib Menstrual Pain; Teva-profen; Theraflex Advance; Theraprofen-60; Theraprofen-800; Theraprofen-90; TopCare Ibuprofen; Topcare Childrens Ibuprofen; Topcare Congestion Relief; Topcare Ibuprofen; Topcare Ibuprofen Junior Strength; Topcare Ibuprofen PM; Topcare Infants Ibuprofen; Topcare ibuprofen; Topcare ibuprofen childrens; Topical Pain; Toxicology Saliva Collection Kit; Up and Up Childrens Ibuprofen; Up and Up Childrens Ibuprofen Oral Suspension; Up and Up Cold and Sinus; Up and Up Dye Free Infants Concentrated Ibuprofen; Up and Up Ibuprofen; Up and Up Ibuprofen Junior; Up and Up Ibuprofen PM; Up and Up Ibuprofen Sodium; Up and Up Junior Strength Ibuprofen; Up and Up childrens ibuprofen; Valumeds Ibuprofen; Vicks Dayquil Sinus Pr.and Pain ReL.W.ibupr.; Vicoprofen; Wal Profen Cold and Sinus; Walprofen Congestion Relief and Pain; Welby Health Ibuprofen; Welby Ibuprofen; Welby Infants Ibuprofen; Xylon 10; Ybuphen; Zee Ibutab; dg health Ibuprofen pm; good neighbor pharmacy Ibuprofen; leader Ibuprofen; moorebrand Ibuprofen; profen IB childrens; topcare Ibuprofen Cold and Sinus

> <INTERNATIONAL_BRANDS>
Act-3; Actiprofen; Adex; Aktren; Alges-X; Algoflex; Algofren; Alivium; Artofen; Betagesic; Betaprofen; Bonifen; Brufen; Brupro; Buburone; Buprovil; Burana; Butylenin; Calprofen; Cap-Profen; Capsibu; Children's Elixsure; Children's Ibuprofen; Dalsy; Dismenol; Diverin; Dolgirid; Dolgit; Doloraz; Dolormin; Ebufac; EmuProfen; Epobron; Fenbid; Fenpaed; Fenpain; Ibalgin; IBU-Ratiopharm; Ibuflam; Ibugel; Ibugesic; IbuHEXAL; Ibuleve; Ibum; Ibumax; Ibumetin; Ibupain; Ibuprocin; Ibuprom; Ibuprox; Ibustar; Ibutren; Ibux; Ibuxin; Junior Strength Motrin; Kratalgin; Lamidon; Lebrufen; Liptan; Lotem; Medicol; Medipren; Mynosedin; Mypaid; Myprodol; Narfen; Naron Ace; Neobrufen; Nobfen; Nobgen; Norvectan; Nuprin; Nureflex; Nurofen; Orbifen; Panafen; Pediaprofen; Rapidol; Rimafen; Roidenin; Rufen; Salvarina; Seclodin; Speedpain NANO; Spidifen; Suspren; Tabalon; Trendar; Urem

> <SALTS>
Ibuprofen aluminum; Ibuprofen lysine; Ibuprofen potassium; Ibuprofen sodium

$$$$
