4449
  -OEChem-10051719303D

 65 68  0     0  0  0  0  0  0999 V2000
   -6.4204    2.9267   -0.6182 Cl  0  0  0  0  0  0  0  0  0  0  0  0
    4.0806   -0.4335    2.1910 O   0  0  0  0  0  0  0  0  0  0  0  0
    3.2695    2.2603    0.8260 O   0  0  0  0  0  0  0  0  0  0  0  0
   -0.9159   -2.4254    0.3892 N   0  0  0  0  0  0  0  0  0  0  0  0
   -3.4651   -1.2188   -0.0629 N   0  0  0  0  0  0  0  0  0  0  0  0
    3.4254   -1.9780    0.5405 N   0  0  0  0  0  0  0  0  0  0  0  0
    4.4747   -0.1445   -0.0998 N   0  0  0  0  0  0  0  0  0  0  0  0
    3.5353   -2.0383   -0.8237 N   0  0  0  0  0  0  0  0  0  0  0  0
   -1.6962   -2.7630   -0.8075 C   0  0  0  0  0  0  0  0  0  0  0  0
   -1.1497   -1.0239    0.7589 C   0  0  0  0  0  0  0  0  0  0  0  0
   -3.1945   -2.5714   -0.5595 C   0  0  0  0  0  0  0  0  0  0  0  0
   -2.6295   -0.7752    1.0600 C   0  0  0  0  0  0  0  0  0  0  0  0
    0.5083   -2.6637    0.1571 C   0  0  0  0  0  0  0  0  0  0  0  0
    1.2889   -2.7879    1.4688 C   0  0  0  0  0  0  0  0  0  0  0  0
    2.7875   -3.0245    1.2913 C   0  0  0  0  0  0  0  0  0  0  0  0
   -4.7526   -0.6825   -0.1764 C   0  0  0  0  0  0  0  0  0  0  0  0
    4.0074   -0.7967    1.0257 C   0  0  0  0  0  0  0  0  0  0  0  0
    4.1544   -0.9394   -1.1425 C   0  0  0  0  0  0  0  0  0  0  0  0
   -4.9243    0.6941   -0.3215 C   0  0  0  0  0  0  0  0  0  0  0  0
   -5.8640   -1.5248   -0.1484 C   0  0  0  0  0  0  0  0  0  0  0  0
    5.1640    1.1319   -0.1205 C   0  0  0  0  0  0  0  0  0  0  0  0
    4.5036   -0.5660   -2.5437 C   0  0  0  0  0  0  0  0  0  0  0  0
   -6.2075    1.2284   -0.4386 C   0  0  0  0  0  0  0  0  0  0  0  0
   -7.1472   -0.9907   -0.2654 C   0  0  0  0  0  0  0  0  0  0  0  0
    4.1911    2.2889   -0.2562 C   0  0  0  0  0  0  0  0  0  0  0  0
   -7.3189    0.3860   -0.4106 C   0  0  0  0  0  0  0  0  0  0  0  0
    5.8747   -1.0965   -2.9092 C   0  0  0  0  0  0  0  0  0  0  0  0
    2.0143    2.7532    0.5815 C   0  0  0  0  0  0  0  0  0  0  0  0
    1.8342    3.7673   -0.3590 C   0  0  0  0  0  0  0  0  0  0  0  0
    0.9170    2.2407    1.2733 C   0  0  0  0  0  0  0  0  0  0  0  0
    0.5566    4.2689   -0.6078 C   0  0  0  0  0  0  0  0  0  0  0  0
   -0.3606    2.7422    1.0244 C   0  0  0  0  0  0  0  0  0  0  0  0
   -0.5409    3.7563    0.0839 C   0  0  0  0  0  0  0  0  0  0  0  0
   -1.3820   -2.1462   -1.6605 H   0  0  0  0  0  0  0  0  0  0  0  0
   -1.5310   -3.8115   -1.0839 H   0  0  0  0  0  0  0  0  0  0  0  0
   -0.5874   -0.7509    1.6573 H   0  0  0  0  0  0  0  0  0  0  0  0
   -0.8256   -0.3515   -0.0469 H   0  0  0  0  0  0  0  0  0  0  0  0
   -3.7203   -2.7502   -1.5058 H   0  0  0  0  0  0  0  0  0  0  0  0
   -3.5437   -3.3139    0.1695 H   0  0  0  0  0  0  0  0  0  0  0  0
   -2.9265   -1.3188    1.9663 H   0  0  0  0  0  0  0  0  0  0  0  0
   -2.7618    0.2924    1.2676 H   0  0  0  0  0  0  0  0  0  0  0  0
    0.9236   -1.8788   -0.4853 H   0  0  0  0  0  0  0  0  0  0  0  0
    0.6440   -3.6113   -0.3810 H   0  0  0  0  0  0  0  0  0  0  0  0
    0.8741   -3.6123    2.0626 H   0  0  0  0  0  0  0  0  0  0  0  0
    1.1683   -1.8791    2.0693 H   0  0  0  0  0  0  0  0  0  0  0  0
    2.9708   -3.9787    0.7851 H   0  0  0  0  0  0  0  0  0  0  0  0
    3.2593   -3.0709    2.2792 H   0  0  0  0  0  0  0  0  0  0  0  0
   -4.0603    1.3544   -0.3591 H   0  0  0  0  0  0  0  0  0  0  0  0
   -5.7688   -2.5996   -0.0230 H   0  0  0  0  0  0  0  0  0  0  0  0
    5.7041    1.2256    0.8286 H   0  0  0  0  0  0  0  0  0  0  0  0
    5.8912    1.1525   -0.9364 H   0  0  0  0  0  0  0  0  0  0  0  0
    4.4741    0.5177   -2.6802 H   0  0  0  0  0  0  0  0  0  0  0  0
    3.7545   -1.0004   -3.2154 H   0  0  0  0  0  0  0  0  0  0  0  0
   -8.0130   -1.6460   -0.2404 H   0  0  0  0  0  0  0  0  0  0  0  0
    4.7418    3.2360   -0.2339 H   0  0  0  0  0  0  0  0  0  0  0  0
    3.6813    2.1915   -1.2228 H   0  0  0  0  0  0  0  0  0  0  0  0
   -8.3248    0.7882   -0.5000 H   0  0  0  0  0  0  0  0  0  0  0  0
    5.9099   -2.1876   -2.8190 H   0  0  0  0  0  0  0  0  0  0  0  0
    6.1228   -0.8325   -3.9418 H   0  0  0  0  0  0  0  0  0  0  0  0
    6.6521   -0.6879   -2.2561 H   0  0  0  0  0  0  0  0  0  0  0  0
    2.6644    4.2144   -0.8976 H   0  0  0  0  0  0  0  0  0  0  0  0
    1.0517    1.4498    2.0061 H   0  0  0  0  0  0  0  0  0  0  0  0
    0.4165    5.0631   -1.3352 H   0  0  0  0  0  0  0  0  0  0  0  0
   -1.2148    2.3447    1.5642 H   0  0  0  0  0  0  0  0  0  0  0  0
   -1.5355    4.1476   -0.1086 H   0  0  0  0  0  0  0  0  0  0  0  0
  1 23  1  0  0  0  0
  2 17  2  0  0  0  0
  3 25  1  0  0  0  0
  3 28  1  0  0  0  0
  4  9  1  0  0  0  0
  4 10  1  0  0  0  0
  4 13  1  0  0  0  0
  5 11  1  0  0  0  0
  5 12  1  0  0  0  0
  5 16  1  0  0  0  0
  6  8  1  0  0  0  0
  6 15  1  0  0  0  0
  6 17  1  0  0  0  0
  7 17  1  0  0  0  0
  7 18  1  0  0  0  0
  7 21  1  0  0  0  0
  8 18  2  0  0  0  0
  9 11  1  0  0  0  0
  9 34  1  0  0  0  0
  9 35  1  0  0  0  0
 10 12  1  0  0  0  0
 10 36  1  0  0  0  0
 10 37  1  0  0  0  0
 11 38  1  0  0  0  0
 11 39  1  0  0  0  0
 12 40  1  0  0  0  0
 12 41  1  0  0  0  0
 13 14  1  0  0  0  0
 13 42  1  0  0  0  0
 13 43  1  0  0  0  0
 14 15  1  0  0  0  0
 14 44  1  0  0  0  0
 14 45  1  0  0  0  0
 15 46  1  0  0  0  0
 15 47  1  0  0  0  0
 16 19  2  0  0  0  0
 16 20  1  0  0  0  0
 18 22  1  0  0  0  0
 19 23  1  0  0  0  0
 19 48  1  0  0  0  0
 20 24  2  0  0  0  0
 20 49  1  0  0  0  0
 21 25  1  0  0  0  0
 21 50  1  0  0  0  0
 21 51  1  0  0  0  0
 22 27  1  0  0  0  0
 22 52  1  0  0  0  0
 22 53  1  0  0  0  0
 23 26  2  0  0  0  0
 24 26  1  0  0  0  0
 24 54  1  0  0  0  0
 25 55  1  0  0  0  0
 25 56  1  0  0  0  0
 26 57  1  0  0  0  0
 27 58  1  0  0  0  0
 27 59  1  0  0  0  0
 27 60  1  0  0  0  0
 28 29  2  0  0  0  0
 28 30  1  0  0  0  0
 29 31  1  0  0  0  0
 29 61  1  0  0  0  0
 30 32  2  0  0  0  0
 30 62  1  0  0  0  0
 31 33  2  0  0  0  0
 31 63  1  0  0  0  0
 32 33  1  0  0  0  0
 32 64  1  0  0  0  0
 33 65  1  0  0  0  0
M  END
> <DATABASE_ID>
DB01149

> <DATABASE_NAME>
drugbank

> <ORIGINAL_SOURCE>
PUBCHEM

> <ORIGINAL_SOURCE_URL>
https://pubchem.ncbi.nlm.nih.gov/rest/pug/compound/inchikey/VRBKIVRKKCLPHA-UHFFFAOYSA-N/SDF?record_type=3d

> <SMILES>
CCC1=NN(CCCN2CCN(CC2)C2=CC(Cl)=CC=C2)C(=O)N1CCOC1=CC=CC=C1

> <INCHI_IDENTIFIER>
InChI=1S/C25H32ClN5O2/c1-2-24-27-31(25(32)30(24)18-19-33-23-10-4-3-5-11-23)13-7-12-28-14-16-29(17-15-28)22-9-6-8-21(26)20-22/h3-6,8-11,20H,2,7,12-19H2,1H3

> <INCHI_KEY>
VRBKIVRKKCLPHA-UHFFFAOYSA-N

> <FORMULA>
C25H32ClN5O2

> <MOLECULAR_WEIGHT>
470.007

> <EXACT_MASS>
469.224453

> <JCHEM_ACCEPTOR_COUNT>
5

> <JCHEM_AVERAGE_POLARIZABILITY>
51.848439212139965

> <JCHEM_BIOAVAILABILITY>
1

> <JCHEM_DONOR_COUNT>
0

> <JCHEM_FORMAL_CHARGE>
0

> <JCHEM_GHOSE_FILTER>
0

> <JCHEM_IUPAC>
1-{3-[4-(3-chlorophenyl)piperazin-1-yl]propyl}-3-ethyl-4-(2-phenoxyethyl)-4,5-dihydro-1H-1,2,4-triazol-5-one

> <ALOGPS_LOGP>
3.71

> <JCHEM_LOGP>
4.652967894333333

> <ALOGPS_LOGS>
-3.83

> <JCHEM_MDDR_LIKE_RULE>
1

> <JCHEM_NUMBER_OF_RINGS>
4

> <JCHEM_PHYSIOLOGICAL_CHARGE>
1

> <JCHEM_PKA_STRONGEST_BASIC>
7.088044376629501

> <JCHEM_POLAR_SURFACE_AREA>
51.620000000000005

> <JCHEM_REFRACTIVITY>
132.376

> <JCHEM_ROTATABLE_BOND_COUNT>
10

> <JCHEM_RULE_OF_FIVE>
1

> <ALOGPS_SOLUBILITY>
6.98e-02 g/l

> <JCHEM_TRADITIONAL_IUPAC>
nefazodone

> <JCHEM_VEBER_RULE>
0

> <DRUGBANK_ID>
DB01149

> <SECONDARY_ACCESSION_NUMBERS>
APRD00402

> <DRUG_GROUPS>
approved; withdrawn

> <GENERIC_NAME>
Nefazodone

> <SYNONYMS>
1-(3-(4-(m-Chlorophenyl)-1-piperazinyl)propyl)-3-ethyl-4-(2-phenoxyethyl)-delta2-1,2,4-triazolin-5-one; Nefazodona; Nefazodone; Nefazodonum

> <PRODUCTS>
Lin-nefazodone; Nefazodone Hydrochloride; Nefazodone hydrochloride; Serzone; Serzone-5ht2

> <INTERNATIONAL_BRANDS>
Dutonin

> <SALTS>
Nefazodone hydrochloride

$$$$
