92943
  -OEChem-10051719373D

 61 64  0     1  0  0  0  0  0999 V2000
    0.6667   -0.1955   -2.5092 O   0  0  0  0  0  0  0  0  0  0  0  0
   -5.6856   -0.3262    0.7231 O   0  0  0  0  0  0  0  0  0  0  0  0
   -0.0947    1.6894   -1.4114 N   0  0  0  0  0  0  0  0  0  0  0  0
   -2.9110   -0.9565    0.6449 N   0  0  0  0  0  0  0  0  0  0  0  0
    0.8589   -0.1670   -0.1355 C   0  0  0  0  0  0  0  0  0  0  0  0
   -0.5195   -0.2002    0.6845 C   0  0  1  0  0  0  0  0  0  0  0  0
   -1.6189   -1.0362   -0.0333 C   0  0  0  0  0  0  0  0  0  0  0  0
    0.4712    0.4285   -1.4651 C   0  0  0  0  0  0  0  0  0  0  0  0
    1.4832   -1.5820   -0.3169 C   0  0  0  0  0  0  0  0  0  0  0  0
    1.9521    0.6916    0.5659 C   0  0  0  0  0  0  0  0  0  0  0  0
   -1.0620    2.1495   -2.3970 C   0  0  0  0  0  0  0  0  0  0  0  0
    0.1633    2.7197   -0.4103 C   0  0  0  0  0  0  0  0  0  0  0  0
   -0.3312   -0.7211    2.1290 C   0  0  0  0  0  0  0  0  0  0  0  0
   -1.6505    3.4141   -1.7910 C   0  0  0  0  0  0  0  0  0  0  0  0
   -0.4889    3.9723   -0.9784 C   0  0  0  0  0  0  0  0  0  0  0  0
   -3.3819    0.4340    0.7085 C   0  0  0  0  0  0  0  0  0  0  0  0
   -3.9089   -1.7955   -0.0332 C   0  0  0  0  0  0  0  0  0  0  0  0
    2.4019   -1.9900    0.6042 C   0  0  0  0  0  0  0  0  0  0  0  0
    3.1425    0.8492   -0.0797 C   0  0  0  0  0  0  0  0  0  0  0  0
    1.0708   -2.3224   -1.3846 C   0  0  0  0  0  0  0  0  0  0  0  0
    1.6491    1.2316    1.7806 C   0  0  0  0  0  0  0  0  0  0  0  0
   -4.7362    0.4903    1.4095 C   0  0  0  0  0  0  0  0  0  0  0  0
   -5.2514   -1.6862    0.6844 C   0  0  0  0  0  0  0  0  0  0  0  0
    2.9609   -3.2576    0.4419 C   0  0  0  0  0  0  0  0  0  0  0  0
    4.1220    1.6185    0.5484 C   0  0  0  0  0  0  0  0  0  0  0  0
    1.6299   -3.5901   -1.5467 C   0  0  0  0  0  0  0  0  0  0  0  0
    2.6285    2.0011    2.4085 C   0  0  0  0  0  0  0  0  0  0  0  0
    2.5749   -4.0575   -0.6334 C   0  0  0  0  0  0  0  0  0  0  0  0
    3.8650    2.1945    1.7923 C   0  0  0  0  0  0  0  0  0  0  0  0
   -0.8937    0.8052    0.7873 H   0  0  0  0  0  0  0  0  0  0  0  0
   -1.7361   -0.7184   -1.0751 H   0  0  0  0  0  0  0  0  0  0  0  0
   -1.3118   -2.0882   -0.0497 H   0  0  0  0  0  0  0  0  0  0  0  0
   -0.5171    2.3641   -3.3229 H   0  0  0  0  0  0  0  0  0  0  0  0
   -1.8085    1.3758   -2.5984 H   0  0  0  0  0  0  0  0  0  0  0  0
   -0.3047    2.5281    0.5503 H   0  0  0  0  0  0  0  0  0  0  0  0
    1.2308    2.9133   -0.3072 H   0  0  0  0  0  0  0  0  0  0  0  0
   -0.7532   -1.7308    2.2223 H   0  0  0  0  0  0  0  0  0  0  0  0
   -0.8970   -0.1058    2.8392 H   0  0  0  0  0  0  0  0  0  0  0  0
    0.6884   -0.8403    2.4951 H   0  0  0  0  0  0  0  0  0  0  0  0
   -2.4811    3.1599   -1.1219 H   0  0  0  0  0  0  0  0  0  0  0  0
   -2.0192    4.1121   -2.5473 H   0  0  0  0  0  0  0  0  0  0  0  0
    0.2097    4.4935   -1.6446 H   0  0  0  0  0  0  0  0  0  0  0  0
   -0.8075    4.6743   -0.2027 H   0  0  0  0  0  0  0  0  0  0  0  0
   -2.7280    1.0789    1.2991 H   0  0  0  0  0  0  0  0  0  0  0  0
   -3.4722    0.8560   -0.3004 H   0  0  0  0  0  0  0  0  0  0  0  0
   -4.0281   -1.4776   -1.0772 H   0  0  0  0  0  0  0  0  0  0  0  0
   -3.5899   -2.8440   -0.0314 H   0  0  0  0  0  0  0  0  0  0  0  0
    2.7083   -1.4381    1.4838 H   0  0  0  0  0  0  0  0  0  0  0  0
    3.3514    0.4201   -1.0540 H   0  0  0  0  0  0  0  0  0  0  0  0
    0.2269   -2.1223   -2.0313 H   0  0  0  0  0  0  0  0  0  0  0  0
    0.6958    1.2626    2.2781 H   0  0  0  0  0  0  0  0  0  0  0  0
   -5.1169    1.5168    1.4042 H   0  0  0  0  0  0  0  0  0  0  0  0
   -4.6651    0.1684    2.4557 H   0  0  0  0  0  0  0  0  0  0  0  0
   -5.1976   -2.0825    1.7057 H   0  0  0  0  0  0  0  0  0  0  0  0
   -6.0101   -2.2624    0.1452 H   0  0  0  0  0  0  0  0  0  0  0  0
    3.6874   -3.6276    1.1597 H   0  0  0  0  0  0  0  0  0  0  0  0
    5.0828    1.7735    0.0662 H   0  0  0  0  0  0  0  0  0  0  0  0
    1.3009   -4.2305   -2.3601 H   0  0  0  0  0  0  0  0  0  0  0  0
    2.4197    2.4761    3.3629 H   0  0  0  0  0  0  0  0  0  0  0  0
    3.0012   -5.0493   -0.7529 H   0  0  0  0  0  0  0  0  0  0  0  0
    4.6246    2.8004    2.2775 H   0  0  0  0  0  0  0  0  0  0  0  0
  1  8  2  0  0  0  0
  2 22  1  0  0  0  0
  2 23  1  0  0  0  0
  3  8  1  0  0  0  0
  3 11  1  0  0  0  0
  3 12  1  0  0  0  0
  4  7  1  0  0  0  0
  4 16  1  0  0  0  0
  4 17  1  0  0  0  0
  5  6  1  0  0  0  0
  5  8  1  0  0  0  0
  5  9  1  0  0  0  0
  5 10  1  0  0  0  0
  6  7  1  0  0  0  0
  6 13  1  0  0  0  0
  6 30  1  0  0  0  0
  7 31  1  0  0  0  0
  7 32  1  0  0  0  0
  9 18  2  0  0  0  0
  9 20  1  0  0  0  0
 10 19  2  0  0  0  0
 10 21  1  0  0  0  0
 11 14  1  0  0  0  0
 11 33  1  0  0  0  0
 11 34  1  0  0  0  0
 12 15  1  0  0  0  0
 12 35  1  0  0  0  0
 12 36  1  0  0  0  0
 13 37  1  0  0  0  0
 13 38  1  0  0  0  0
 13 39  1  0  0  0  0
 14 15  1  0  0  0  0
 14 40  1  0  0  0  0
 14 41  1  0  0  0  0
 15 42  1  0  0  0  0
 15 43  1  0  0  0  0
 16 22  1  0  0  0  0
 16 44  1  0  0  0  0
 16 45  1  0  0  0  0
 17 23  1  0  0  0  0
 17 46  1  0  0  0  0
 17 47  1  0  0  0  0
 18 24  1  0  0  0  0
 18 48  1  0  0  0  0
 19 25  1  0  0  0  0
 19 49  1  0  0  0  0
 20 26  2  0  0  0  0
 20 50  1  0  0  0  0
 21 27  2  0  0  0  0
 21 51  1  0  0  0  0
 22 52  1  0  0  0  0
 22 53  1  0  0  0  0
 23 54  1  0  0  0  0
 23 55  1  0  0  0  0
 24 28  2  0  0  0  0
 24 56  1  0  0  0  0
 25 29  2  0  0  0  0
 25 57  1  0  0  0  0
 26 28  1  0  0  0  0
 26 58  1  0  0  0  0
 27 29  1  0  0  0  0
 27 59  1  0  0  0  0
 28 60  1  0  0  0  0
 29 61  1  0  0  0  0
M  END
> <DATABASE_ID>
DB01529

> <DATABASE_NAME>
drugbank

> <ORIGINAL_SOURCE>
PUBCHEM

> <ORIGINAL_SOURCE_URL>
https://pubchem.ncbi.nlm.nih.gov/rest/pug/compound/inchikey/INUNXTSAACVKJS-OAQYLSRUSA-N/SDF?record_type=3d

> <SMILES>
C[C@H](CN1CCOCC1)C(C(=O)N1CCCC1)(C1=CC=CC=C1)C1=CC=CC=C1

> <INCHI_IDENTIFIER>
InChI=1S/C25H32N2O2/c1-21(20-26-16-18-29-19-17-26)25(22-10-4-2-5-11-22,23-12-6-3-7-13-23)24(28)27-14-8-9-15-27/h2-7,10-13,21H,8-9,14-20H2,1H3/t21-/m1/s1

> <INCHI_KEY>
INUNXTSAACVKJS-OAQYLSRUSA-N

> <FORMULA>
C25H32N2O2

> <MOLECULAR_WEIGHT>
392.543

> <EXACT_MASS>
392.246378278

> <JCHEM_ACCEPTOR_COUNT>
3

> <JCHEM_ATOM_COUNT>
61

> <JCHEM_AVERAGE_POLARIZABILITY>
44.36172238645318

> <JCHEM_BIOAVAILABILITY>
1

> <JCHEM_DONOR_COUNT>
0

> <JCHEM_FORMAL_CHARGE>
0

> <JCHEM_GHOSE_FILTER>
1

> <JCHEM_IUPAC>
(3S)-3-methyl-4-(morpholin-4-yl)-2,2-diphenyl-1-(pyrrolidin-1-yl)butan-1-one

> <ALOGPS_LOGP>
4.17

> <JCHEM_LOGP>
3.7531146

> <ALOGPS_LOGS>
-4.35

> <JCHEM_MDDR_LIKE_RULE>
1

> <JCHEM_NUMBER_OF_RINGS>
4

> <JCHEM_PHYSIOLOGICAL_CHARGE>
1

> <JCHEM_PKA_STRONGEST_BASIC>
7.7677237438102935

> <JCHEM_POLAR_SURFACE_AREA>
32.78

> <JCHEM_REFRACTIVITY>
117.37480000000001

> <JCHEM_ROTATABLE_BOND_COUNT>
6

> <JCHEM_RULE_OF_FIVE>
1

> <ALOGPS_SOLUBILITY>
1.75e-02 g/l

> <JCHEM_TRADITIONAL_IUPAC>
dextromoramide

> <JCHEM_VEBER_RULE>
1

> <DRUGBANK_ID>
DB01529

> <DRUG_GROUPS>
experimental; illicit

> <GENERIC_NAME>
Dextromoramide

> <SYNONYMS>
(+)-1-(3-methyl-4-morpholino-2,2-diphenylbutyryl)pyrrolidine; (+)-4-(2-methyl-4-oxo-3,3-diphenyl-4-(1-pyrrolidinyl)butyl)morpholine; 1-((3S)-3-methyl-4-(4-morpholinyl)-1-oxo-2,2-diphenylbutyl)pyrrolidine; 4-(2-methyl-4-oxo-3,3-diphenyl-4-(1-pyrrolidinyl)butyl)morpholine; D-2,2-diphenyl-3-methyl-4-morpholinobutyrylpyrrolidine; dextromoramida; Dextromoramide; dextromoramidum; palphium; Pyrrolamidol

> <INTERNATIONAL_BRANDS>
palfium

$$$$
