107526
  -OEChem-10051719443D

 24 23  0     1  0  0  0  0  0999 V2000
   -0.0176   -1.3519    0.3189 O   0  0  0  0  0  0  0  0  0  0  0  0
   -0.4388    1.2088    1.5932 O   0  0  0  0  0  0  0  0  0  0  0  0
    2.2500    1.3308   -0.6092 O   0  0  0  0  0  0  0  0  0  0  0  0
   -2.3144    0.6445   -1.4872 O   0  0  0  0  0  0  0  0  0  0  0  0
    4.0906   -0.6031    0.0767 O   0  0  0  0  0  0  0  0  0  0  0  0
   -3.0659   -1.5079   -0.1142 O   0  0  0  0  0  0  0  0  0  0  0  0
    0.3471   -0.0924   -0.2555 C   0  0  1  0  0  0  0  0  0  0  0  0
   -0.6452    0.9954    0.1914 C   0  0  1  0  0  0  0  0  0  0  0  0
    1.8171    0.1651    0.1072 C   0  0  1  0  0  0  0  0  0  0  0  0
   -2.1330    0.7333   -0.0781 C   0  0  2  0  0  0  0  0  0  0  0  0
    2.7599   -0.9702   -0.2772 C   0  0  0  0  0  0  0  0  0  0  0  0
   -2.6498   -0.5525    0.5339 C   0  0  0  0  0  0  0  0  0  0  0  0
    0.2588   -0.2053   -1.3428 H   0  0  0  0  0  0  0  0  0  0  0  0
   -0.3684    1.9299   -0.3117 H   0  0  0  0  0  0  0  0  0  0  0  0
    1.9339    0.3780    1.1755 H   0  0  0  0  0  0  0  0  0  0  0  0
   -2.7434    1.5554    0.3115 H   0  0  0  0  0  0  0  0  0  0  0  0
    2.7491   -1.1463   -1.3574 H   0  0  0  0  0  0  0  0  0  0  0  0
    2.5135   -1.9050    0.2347 H   0  0  0  0  0  0  0  0  0  0  0  0
    0.1537   -1.3078    1.2748 H   0  0  0  0  0  0  0  0  0  0  0  0
   -0.6653    0.3906    2.0648 H   0  0  0  0  0  0  0  0  0  0  0  0
   -2.6519   -0.5851    1.6369 H   0  0  0  0  0  0  0  0  0  0  0  0
    2.1591    1.1487   -1.5602 H   0  0  0  0  0  0  0  0  0  0  0  0
   -3.2715    0.6141   -1.6571 H   0  0  0  0  0  0  0  0  0  0  0  0
    4.1126   -0.4767    1.0406 H   0  0  0  0  0  0  0  0  0  0  0  0
  1  7  1  0  0  0  0
  1 19  1  0  0  0  0
  2  8  1  0  0  0  0
  2 20  1  0  0  0  0
  3  9  1  0  0  0  0
  3 22  1  0  0  0  0
  4 10  1  0  0  0  0
  4 23  1  0  0  0  0
  5 11  1  0  0  0  0
  5 24  1  0  0  0  0
  6 12  2  0  0  0  0
  7  8  1  0  0  0  0
  7  9  1  0  0  0  0
  7 13  1  0  0  0  0
  8 10  1  0  0  0  0
  8 14  1  0  0  0  0
  9 11  1  0  0  0  0
  9 15  1  0  0  0  0
 10 12  1  0  0  0  0
 10 16  1  0  0  0  0
 11 17  1  0  0  0  0
 11 18  1  0  0  0  0
 12 21  1  0  0  0  0
M  END
> <DATABASE_ID>
DB01914

> <DATABASE_NAME>
drugbank

> <ORIGINAL_SOURCE>
PUBCHEM

> <ORIGINAL_SOURCE_URL>
https://pubchem.ncbi.nlm.nih.gov/rest/pug/compound/inchikey/GZCGUPFRVQAUEE-SLPGGIOYSA-N/SDF?record_type=3d

> <SMILES>
[H][C@@](O)(CO)[C@@]([H])(O)[C@]([H])(O)[C@@]([H])(O)C=O

> <INCHI_IDENTIFIER>
InChI=1S/C6H12O6/c7-1-3(9)5(11)6(12)4(10)2-8/h1,3-6,8-12H,2H2/t3-,4+,5+,6+/m0/s1

> <INCHI_KEY>
GZCGUPFRVQAUEE-SLPGGIOYSA-N

> <FORMULA>
C6H12O6

> <MOLECULAR_WEIGHT>
180.1559

> <EXACT_MASS>
180.063388116

> <JCHEM_ACCEPTOR_COUNT>
6

> <JCHEM_AVERAGE_POLARIZABILITY>
16.233020926173957

> <JCHEM_BIOAVAILABILITY>
1

> <JCHEM_DONOR_COUNT>
5

> <JCHEM_FORMAL_CHARGE>
0

> <JCHEM_GHOSE_FILTER>
0

> <JCHEM_IUPAC>
(2R,3S,4R,5R)-2,3,4,5,6-pentahydroxyhexanal

> <ALOGPS_LOGP>
-2.41

> <JCHEM_LOGP>
-3.5683605629999993

> <ALOGPS_LOGS>
0.16

> <JCHEM_MDDR_LIKE_RULE>
0

> <JCHEM_NUMBER_OF_RINGS>
0

> <JCHEM_PHYSIOLOGICAL_CHARGE>
0

> <JCHEM_PKA>
12.026745136455522

> <JCHEM_PKA_STRONGEST_ACIDIC>
11.800943217723058

> <JCHEM_PKA_STRONGEST_BASIC>
-2.974219876255926

> <JCHEM_POLAR_SURFACE_AREA>
118.22000000000001

> <JCHEM_REFRACTIVITY>
37.3456

> <JCHEM_ROTATABLE_BOND_COUNT>
5

> <JCHEM_RULE_OF_FIVE>
1

> <ALOGPS_SOLUBILITY>
2.61e+02 g/l

> <JCHEM_TRADITIONAL_IUPAC>
(+)-glucose

> <JCHEM_VEBER_RULE>
0

> <DRUGBANK_ID>
DB01914

> <SECONDARY_ACCESSION_NUMBERS>
EXPT01609; DB11280

> <DRUG_GROUPS>
approved; investigational; vet_approved

> <GENERIC_NAME>
D-glucose

> <SYNONYMS>
aldehydo-D-glucose; Anhydrous dextrose; D-Glucose in linear form; D-glucose, anhydrous; D(+)-Glucose; Dextrose anhydrous; Dextrose, anhydrous; Glucose anhydrous; Glucose, anhydrous

> <PRODUCTS>
25% Dextrose Infant; 5% Dextrose; 50% Dextrose; ACD Blood-Pack Units (PL 146 Plastic); ADSOL Red Cell Preservation Solution System in Plastic Container (PL 146 Plastic); AGF Mesenchymal Capillary 5 pcs; AGF Mesenchymal Capillary Individual; Accusol 35 K2; Accusol 35 K4; Acd A; Acd-A; Additive Formula 3; Adsol Red Cell Preservation System In Plastic Container (pl 146 Plastic); Alcohol and Dextrose; Alcohol in Dextrose; Aminosyn II and Dextrose; Aminosyn II in Dextrose; Aminosyn II with Electrolytes in Dextrose with Calcium; Anti Nausea; Anticoagulant Citrate Dextrose A; Anticoagulant Citrate Dextrose A ACD-A; Anticoagulant Citrate Phosphate Dextrose (CPD) Blood-Pack Units in PL 146 Plastic; As 3; CPD/ADSOL Red Cell Preservation Solution System (PL 2209); CPDA-1 Blood Collection System; Clinimix; Cpd; Cpd Solution; Cpd/adsol; Cpda-1; DIANEAL Low Calcium with Dextrose; DIANEAL PD-2 with Dextrose; Delflex; Delflex Neutral pH; Dextrose; Dextrose Monohydrate; Dextrose and Electrolyte No. 48; Dextrose and Electrolyte No. 75; Dextrose and Sodium Chloride; Dextrose in Lactated Ringers; Dextrose in Ringers; Dextrose monohydrate; Dianeal for Peritoneal Dialysis; Dobutamine Hydrochloride in Dextrose; Dopamine Hydrochloride in Dextrose; Elliotts B; Glucose; Haemonetics Additive Solution Formula 3 (AS-3); Haemonetics Anticoagulant Citrate Dextrose Solution; Haemonetics Anticoagulant Citrate Phosphate Double Dextrose Solution (CP2D); Hemosol Lg2; Hemosol Lg4; Heparin Sodium in Dextrose; IMUFLEX WB-RP Blood Bag System with Integral Whole Blood Leukocyte Reduction Filter (Removing Platelets) with Diversion Blood Sampling Arm Anticoagulant Citrate Phosphate Dextrose (CPD) AND OPTISOL (AS-5) Red Cell Preservative; IMUFLEX WB-SP BLOOD BAG SYSTEM with Integral Whole Blood Leukocyte Reduction Filter (Saving Platelets) with Diversion Blood Sampling Arm; IMUFLEX WB-SP Blood Bag System with Integral Whole Blood Leukocyte Reduction Filter (Saving Platelets) with Diversion Blood Sampling Arm Anticoagulant Citrate Phosphate Dextrose (CPD) and OPTISOL (AS-5) Red Cell Preservative; Infant Dextrose; Ionosol B and Dextrose; Ionosol MB and Dextrose; Ionosol and Dextrose; Isolyte H in Dextrose; Isolyte M in Dextrose; Isolyte P in Dextrose; Jilgyungyi; Kabiven; Lactated Ringers and Dextrose; Leucoflex CGP; Leukotrap WB System; Lidocaine Hydrochloride and Dextrose; Lingtea; MTL1 Leucoflex; Milrinone Lactate in Dextrose; Mld; Myocard-DX; Nauzene Grape; Normosol-M and Dextrose; Nutricel Additive System - CP2D; Perikabiven; Plasma-Lyte 148 and dextrose; Plasma-Lyte M and Dextrose; Plasma-lyte 56 and Dextrose; Potassium Chloride and Dextrose; Potassium Chloride in Dextrose; Potassium Chloride in Dextrose and Sodium Chloride; Potassium Chloride in Lactated Ringers and Dextrose; PrismaSol; Prismasol 2; Prismasol 4; Prismasol B22gk4/0; Prismasol Bgk0/2.5; Prismasol Bgk2/0; Prismasol Bgk2/3.5; Prismasol Bgk4/0/1.2; Prismasol Bgk4/2.5; Prismasol Bgk4/3.5; Ringers and Dextrose; SUEROLYTE Oral Electrolyte Solution Apple Flavor; SUEROLYTE Oral Electrolyte Solution Bubbe Gum Flavor; SUEROLYTE Oral Electrolyte Solution Cherry Flavor; SUEROLYTE Oral Electrolyte Solution Coconut Flavor; SUEROLYTE Oral Electrolyte Solution Grape Flavor; SUEROLYTE Oral Electrolyte Solution Horchate Flavor; SUEROLYTE Oral Electrolyte Solution Lemon-Lime Flavor; SUEROLYTE Oral Electrolyte Solution Mango Flavor; SUEROLYTE Oral Electrolyte Solution Orange Flavor; SUEROLYTE Oral Electrolyte Solution Peach Flavor; SUEROLYTE Oral Electrolyte Solution Pineapple Flavor; SUEROLYTE Oral Electrolyte Solution Strawberry Banana Flavor; SUEROLYTE Oral Electrolyte Solution Tropical Fruits Flavor; SUEROLYTE Oral Electrolyte Solution Unflavored Flavor; Sag-mannitol Solution; Selutrio 10; Selutrio 40; Sterile Cord Blood Collection Unit; Sterile Cord Blood Collection Unit (MSC127D); Sterile Cord Blood Collection Unit (MSC128D); TERUFLEX Blood Bag System Anticoagulant Citrate Phosphate Dextrose (CPD) AND OPTISOL Red Cell Preservative; TERUFLEX Blood Bag System Anticoagulant Citrate Phosphate Dextrose Adenine (CPDA-1); TERUFLEX Blood Bag System with Blood Sampling Arm Anticoagulant Citrate Phosphate Dextrose (CPD) AND OPTISOL (AS-5) Red Cell Preservative; TERUFLEX Blood Bag System with Diversion Blood Sampling Arm Anticoagulant Citrate Phosphate Dextrose (CPD) AND OPTISOL (AS-5) Red Cell Preservative; Theophylline in Dextrose

> <SALTS>
D-glucose monohydrate

$$$$
