6916258
  -OEChem-10051719373D

 51 54  0     1  0  0  0  0  0999 V2000
    1.5690   -0.1119    2.0453 O   0  0  0  0  0  0  0  0  0  0  0  0
    1.9036   -4.0122    0.0131 O   0  0  0  0  0  0  0  0  0  0  0  0
   -1.9627   -1.5837   -0.7005 O   0  0  0  0  0  0  0  0  0  0  0  0
   -4.2474   -0.4047    0.0447 O   0  0  0  0  0  0  0  0  0  0  0  0
    2.2390    2.0113   -0.9476 N   0  0  1  0  0  0  0  0  0  0  0  0
    0.7233   -0.3962   -0.2286 C   0  0  2  0  0  0  0  0  0  0  0  0
    1.8711    0.1695    0.6663 C   0  0  1  0  0  0  0  0  0  0  0  0
    1.9258    1.7024    0.4625 C   0  0  2  0  0  0  0  0  0  0  0  0
    0.6898   -1.9451   -0.0878 C   0  0  0  0  0  0  0  0  0  0  0  0
    0.9878    0.0032   -1.7110 C   0  0  0  0  0  0  0  0  0  0  0  0
    3.2302   -0.5090    0.3821 C   0  0  0  0  0  0  0  0  0  0  0  0
   -0.6187    0.2564    0.1754 C   0  0  0  0  0  0  0  0  0  0  0  0
    0.6252    2.3360    1.0125 C   0  0  0  0  0  0  0  0  0  0  0  0
    2.0441   -2.6293   -0.3056 C   0  0  1  0  0  0  0  0  0  0  0  0
    1.2497    1.5050   -1.9008 C   0  0  0  0  0  0  0  0  0  0  0  0
    3.1473   -2.0236    0.5536 C   0  0  0  0  0  0  0  0  0  0  0  0
   -0.6401    1.5542    0.7369 C   0  0  0  0  0  0  0  0  0  0  0  0
   -1.8489   -0.3846   -0.0608 C   0  0  0  0  0  0  0  0  0  0  0  0
    2.5320    3.4212   -1.1832 C   0  0  0  0  0  0  0  0  0  0  0  0
   -1.8659    2.1492    1.0823 C   0  0  0  0  0  0  0  0  0  0  0  0
   -3.0596    0.2216    0.2813 C   0  0  0  0  0  0  0  0  0  0  0  0
   -3.0683    1.4858    0.8568 C   0  0  0  0  0  0  0  0  0  0  0  0
   -2.5604   -2.6521    0.0299 C   0  0  0  0  0  0  0  0  0  0  0  0
   -4.8660   -0.1634   -1.2168 C   0  0  0  0  0  0  0  0  0  0  0  0
    2.7480    2.0932    1.0784 H   0  0  0  0  0  0  0  0  0  0  0  0
    0.0478   -2.4016   -0.8447 H   0  0  0  0  0  0  0  0  0  0  0  0
    0.2849   -2.2360    0.8907 H   0  0  0  0  0  0  0  0  0  0  0  0
    0.1424   -0.2906   -2.3468 H   0  0  0  0  0  0  0  0  0  0  0  0
    1.8559   -0.5372   -2.1053 H   0  0  0  0  0  0  0  0  0  0  0  0
    3.9830   -0.1300    1.0851 H   0  0  0  0  0  0  0  0  0  0  0  0
    3.5963   -0.2814   -0.6248 H   0  0  0  0  0  0  0  0  0  0  0  0
    0.5063    3.3615    0.6461 H   0  0  0  0  0  0  0  0  0  0  0  0
    0.7223    2.4187    2.1041 H   0  0  0  0  0  0  0  0  0  0  0  0
    2.3303   -2.5765   -1.3611 H   0  0  0  0  0  0  0  0  0  0  0  0
    1.6192    1.6505   -2.9240 H   0  0  0  0  0  0  0  0  0  0  0  0
    0.3096    2.0658   -1.8355 H   0  0  0  0  0  0  0  0  0  0  0  0
    4.1092   -2.4824    0.2939 H   0  0  0  0  0  0  0  0  0  0  0  0
    2.9828   -2.2771    1.6088 H   0  0  0  0  0  0  0  0  0  0  0  0
    0.6315    0.0369    2.2374 H   0  0  0  0  0  0  0  0  0  0  0  0
    2.9478    3.5576   -2.1880 H   0  0  0  0  0  0  0  0  0  0  0  0
    3.2912    3.7850   -0.4823 H   0  0  0  0  0  0  0  0  0  0  0  0
    1.6472    4.0600   -1.0991 H   0  0  0  0  0  0  0  0  0  0  0  0
   -1.8850    3.1411    1.5278 H   0  0  0  0  0  0  0  0  0  0  0  0
    1.6662   -4.0823    0.9535 H   0  0  0  0  0  0  0  0  0  0  0  0
   -4.0057    1.9643    1.1262 H   0  0  0  0  0  0  0  0  0  0  0  0
   -2.5316   -2.4903    1.1134 H   0  0  0  0  0  0  0  0  0  0  0  0
   -2.0037   -3.5682   -0.1899 H   0  0  0  0  0  0  0  0  0  0  0  0
   -3.5902   -2.8057   -0.3047 H   0  0  0  0  0  0  0  0  0  0  0  0
   -4.2062   -0.4611   -2.0378 H   0  0  0  0  0  0  0  0  0  0  0  0
   -5.1333    0.8935   -1.3151 H   0  0  0  0  0  0  0  0  0  0  0  0
   -5.7800   -0.7611   -1.2696 H   0  0  0  0  0  0  0  0  0  0  0  0
  1  7  1  0  0  0  0
  1 39  1  0  0  0  0
  2 14  1  0  0  0  0
  2 44  1  0  0  0  0
  3 18  1  0  0  0  0
  3 23  1  0  0  0  0
  4 21  1  0  0  0  0
  4 24  1  0  0  0  0
  5  8  1  0  0  0  0
  5 15  1  0  0  0  0
  5 19  1  0  0  0  0
  6  7  1  0  0  0  0
  6  9  1  0  0  0  0
  6 10  1  0  0  0  0
  6 12  1  0  0  0  0
  7  8  1  0  0  0  0
  7 11  1  0  0  0  0
  8 13  1  0  0  0  0
  8 25  1  0  0  0  0
  9 14  1  0  0  0  0
  9 26  1  0  0  0  0
  9 27  1  0  0  0  0
 10 15  1  0  0  0  0
 10 28  1  0  0  0  0
 10 29  1  0  0  0  0
 11 16  1  0  0  0  0
 11 30  1  0  0  0  0
 11 31  1  0  0  0  0
 12 17  2  0  0  0  0
 12 18  1  0  0  0  0
 13 17  1  0  0  0  0
 13 32  1  0  0  0  0
 13 33  1  0  0  0  0
 14 16  1  0  0  0  0
 14 34  1  0  0  0  0
 15 35  1  0  0  0  0
 15 36  1  0  0  0  0
 16 37  1  0  0  0  0
 16 38  1  0  0  0  0
 17 20  1  0  0  0  0
 18 21  2  0  0  0  0
 19 40  1  0  0  0  0
 19 41  1  0  0  0  0
 19 42  1  0  0  0  0
 20 22  2  0  0  0  0
 20 43  1  0  0  0  0
 21 22  1  0  0  0  0
 22 45  1  0  0  0  0
 23 46  1  0  0  0  0
 23 47  1  0  0  0  0
 23 48  1  0  0  0  0
 24 49  1  0  0  0  0
 24 50  1  0  0  0  0
 24 51  1  0  0  0  0
M  END
> <DATABASE_ID>
DB01547

> <DATABASE_NAME>
drugbank

> <ORIGINAL_SOURCE>
PUBCHEM

> <ORIGINAL_SOURCE_URL>
https://pubchem.ncbi.nlm.nih.gov/rest/pug/compound/inchikey/LCAHPIFLPICNRW-OPGCRTJHSA-N/SDF?record_type=3d

> <SMILES>
[H][C@]12CC3=C(C(OC)=C(OC)C=C3)[C@@]3(CCN1C)C[C@H](O)CC[C@@]23O

> <INCHI_IDENTIFIER>
InChI=1S/C19H27NO4/c1-20-9-8-18-11-13(21)6-7-19(18,22)15(20)10-12-4-5-14(23-2)17(24-3)16(12)18/h4-5,13,15,21-22H,6-11H2,1-3H3/t13-,15+,18+,19-/m1/s1

> <INCHI_KEY>
LCAHPIFLPICNRW-OPGCRTJHSA-N

> <FORMULA>
C19H27NO4

> <MOLECULAR_WEIGHT>
333.422

> <EXACT_MASS>
333.194008357

> <JCHEM_ACCEPTOR_COUNT>
5

> <JCHEM_AVERAGE_POLARIZABILITY>
36.194114568948756

> <JCHEM_BIOAVAILABILITY>
1

> <JCHEM_DONOR_COUNT>
2

> <JCHEM_FORMAL_CHARGE>
0

> <JCHEM_GHOSE_FILTER>
1

> <JCHEM_IUPAC>
(1R,9R,10S,13R)-3,4-dimethoxy-17-methyl-17-azatetracyclo[7.5.3.0¹,¹⁰.0²,⁷]heptadeca-2(7),3,5-triene-10,13-diol

> <ALOGPS_LOGP>
1.61

> <JCHEM_LOGP>
1.0239459829999995

> <ALOGPS_LOGS>
-2.19

> <JCHEM_MDDR_LIKE_RULE>
0

> <JCHEM_NUMBER_OF_RINGS>
4

> <JCHEM_PHYSIOLOGICAL_CHARGE>
1

> <JCHEM_PKA>
15.245804900425412

> <JCHEM_PKA_STRONGEST_ACIDIC>
13.64359641397979

> <JCHEM_PKA_STRONGEST_BASIC>
8.898542192408778

> <JCHEM_POLAR_SURFACE_AREA>
62.160000000000004

> <JCHEM_REFRACTIVITY>
91.993

> <JCHEM_ROTATABLE_BOND_COUNT>
2

> <JCHEM_RULE_OF_FIVE>
1

> <ALOGPS_SOLUBILITY>
2.15e+00 g/l

> <JCHEM_TRADITIONAL_IUPAC>
drotebanol

> <JCHEM_VEBER_RULE>
0

> <DRUGBANK_ID>
DB01547

> <DRUG_GROUPS>
experimental; illicit

> <GENERIC_NAME>
Drotebanol

$$$$
