2833
  -OEChem-10051719353D

 54 56  0     1  0  0  0  0  0999 V2000
    0.7383   -1.8890   -1.5290 O   0  0  0  0  0  0  0  0  0  0  0  0
    3.4655   -1.9815   -1.3324 O   0  0  0  0  0  0  0  0  0  0  0  0
    4.7566   -0.6869    0.7413 O   0  0  0  0  0  0  0  0  0  0  0  0
   -5.1813   -1.9087    0.0638 O   0  0  0  0  0  0  0  0  0  0  0  0
   -4.5224    0.1332   -1.7091 O   0  0  0  0  0  0  0  0  0  0  0  0
    0.0578    4.6928   -0.2498 O   0  0  0  0  0  0  0  0  0  0  0  0
    0.1344    2.3752   -0.4484 N   0  0  0  0  0  0  0  0  0  0  0  0
   -0.8240    2.0580    0.5916 C   0  0  2  0  0  0  0  0  0  0  0  0
   -0.1880    2.1262    1.9981 C   0  0  0  0  0  0  0  0  0  0  0  0
    0.4736    0.8617    2.5573 C   0  0  0  0  0  0  0  0  0  0  0  0
   -1.5790    0.7792    0.2184 C   0  0  0  0  0  0  0  0  0  0  0  0
    1.2659    0.0917    1.5357 C   0  0  0  0  0  0  0  0  0  0  0  0
    0.6013   -0.5758    0.4868 C   0  0  0  0  0  0  0  0  0  0  0  0
   -0.8857   -0.5074    0.3911 C   0  0  0  0  0  0  0  0  0  0  0  0
    1.3510   -1.2678   -0.4776 C   0  0  0  0  0  0  0  0  0  0  0  0
    2.6643    0.0440    1.6082 C   0  0  0  0  0  0  0  0  0  0  0  0
   -2.8056    0.9251   -0.3171 C   0  0  0  0  0  0  0  0  0  0  0  0
   -1.4966   -1.6950    0.5679 C   0  0  0  0  0  0  0  0  0  0  0  0
    2.7425   -1.3084   -0.3919 C   0  0  0  0  0  0  0  0  0  0  0  0
    3.3974   -0.6551    0.6495 C   0  0  0  0  0  0  0  0  0  0  0  0
   -3.7632   -0.1094   -0.7732 C   0  0  0  0  0  0  0  0  0  0  0  0
    0.4894    3.6701   -0.7756 C   0  0  0  0  0  0  0  0  0  0  0  0
   -2.9033   -1.9960    0.6128 C   0  0  0  0  0  0  0  0  0  0  0  0
   -3.9092   -1.3628    0.0035 C   0  0  0  0  0  0  0  0  0  0  0  0
    1.5208    3.7148   -1.8710 C   0  0  0  0  0  0  0  0  0  0  0  0
    0.5406   -1.1427   -2.7102 C   0  0  0  0  0  0  0  0  0  0  0  0
    4.4007   -1.2488   -2.0961 C   0  0  0  0  0  0  0  0  0  0  0  0
    5.3460   -1.7374    1.4797 C   0  0  0  0  0  0  0  0  0  0  0  0
   -5.8878   -1.3994    1.1756 C   0  0  0  0  0  0  0  0  0  0  0  0
   -1.5378    2.8948    0.5800 H   0  0  0  0  0  0  0  0  0  0  0  0
   -0.9659    2.4218    2.7153 H   0  0  0  0  0  0  0  0  0  0  0  0
    0.5521    2.9376    2.0173 H   0  0  0  0  0  0  0  0  0  0  0  0
    1.1133    1.1430    3.4037 H   0  0  0  0  0  0  0  0  0  0  0  0
   -0.2883    0.1999    2.9899 H   0  0  0  0  0  0  0  0  0  0  0  0
    0.5809    1.6143   -0.9518 H   0  0  0  0  0  0  0  0  0  0  0  0
    3.1861    0.5581    2.4121 H   0  0  0  0  0  0  0  0  0  0  0  0
   -3.1827    1.9323   -0.4926 H   0  0  0  0  0  0  0  0  0  0  0  0
   -0.8907   -2.5850    0.7469 H   0  0  0  0  0  0  0  0  0  0  0  0
   -3.1322   -2.9185    1.1460 H   0  0  0  0  0  0  0  0  0  0  0  0
    1.1902    3.1162   -2.7247 H   0  0  0  0  0  0  0  0  0  0  0  0
    2.4698    3.3215   -1.4960 H   0  0  0  0  0  0  0  0  0  0  0  0
    1.6648    4.7474   -2.2007 H   0  0  0  0  0  0  0  0  0  0  0  0
    1.4949   -0.8061   -3.1272 H   0  0  0  0  0  0  0  0  0  0  0  0
   -0.1051   -0.2782   -2.5275 H   0  0  0  0  0  0  0  0  0  0  0  0
    0.0515   -1.7851   -3.4479 H   0  0  0  0  0  0  0  0  0  0  0  0
    4.4243   -1.6718   -3.1048 H   0  0  0  0  0  0  0  0  0  0  0  0
    4.1328   -0.1895   -2.1809 H   0  0  0  0  0  0  0  0  0  0  0  0
    5.4021   -1.3495   -1.6678 H   0  0  0  0  0  0  0  0  0  0  0  0
    5.0312   -1.6978    2.5275 H   0  0  0  0  0  0  0  0  0  0  0  0
    5.0849   -2.7101    1.0506 H   0  0  0  0  0  0  0  0  0  0  0  0
    6.4328   -1.6228    1.4402 H   0  0  0  0  0  0  0  0  0  0  0  0
   -6.8884   -1.8422    1.1764 H   0  0  0  0  0  0  0  0  0  0  0  0
   -5.4002   -1.6707    2.1186 H   0  0  0  0  0  0  0  0  0  0  0  0
   -6.0022   -0.3115    1.1117 H   0  0  0  0  0  0  0  0  0  0  0  0
  1 15  1  0  0  0  0
  1 26  1  0  0  0  0
  2 19  1  0  0  0  0
  2 27  1  0  0  0  0
  3 20  1  0  0  0  0
  3 28  1  0  0  0  0
  4 24  1  0  0  0  0
  4 29  1  0  0  0  0
  5 21  2  0  0  0  0
  6 22  2  0  0  0  0
  7  8  1  0  0  0  0
  7 22  1  0  0  0  0
  7 35  1  0  0  0  0
  8  9  1  0  0  0  0
  8 11  1  0  0  0  0
  8 30  1  0  0  0  0
  9 10  1  0  0  0  0
  9 31  1  0  0  0  0
  9 32  1  0  0  0  0
 10 12  1  0  0  0  0
 10 33  1  0  0  0  0
 10 34  1  0  0  0  0
 11 14  1  0  0  0  0
 11 17  2  0  0  0  0
 12 13  1  0  0  0  0
 12 16  2  0  0  0  0
 13 14  1  0  0  0  0
 13 15  2  0  0  0  0
 14 18  2  0  0  0  0
 15 19  1  0  0  0  0
 16 20  1  0  0  0  0
 16 36  1  0  0  0  0
 17 21  1  0  0  0  0
 17 37  1  0  0  0  0
 18 23  1  0  0  0  0
 18 38  1  0  0  0  0
 19 20  2  0  0  0  0
 21 24  1  0  0  0  0
 22 25  1  0  0  0  0
 23 24  2  0  0  0  0
 23 39  1  0  0  0  0
 25 40  1  0  0  0  0
 25 41  1  0  0  0  0
 25 42  1  0  0  0  0
 26 43  1  0  0  0  0
 26 44  1  0  0  0  0
 26 45  1  0  0  0  0
 27 46  1  0  0  0  0
 27 47  1  0  0  0  0
 27 48  1  0  0  0  0
 28 49  1  0  0  0  0
 28 50  1  0  0  0  0
 28 51  1  0  0  0  0
 29 52  1  0  0  0  0
 29 53  1  0  0  0  0
 29 54  1  0  0  0  0
M  END
> <DATABASE_ID>
DB01394

> <DATABASE_NAME>
drugbank

> <ORIGINAL_SOURCE>
PUBCHEM

> <ORIGINAL_SOURCE_URL>
https://pubchem.ncbi.nlm.nih.gov/rest/pug/compound/inchikey/IAKHMKGGTNLKSZ-UHFFFAOYSA-N/SDF?record_type=3d

> <SMILES>
COC1=CC2=C(C(OC)=C1OC)C1=CC=C(OC)C(=O)C=C1C(CC2)NC(C)=O

> <INCHI_IDENTIFIER>
InChI=1S/C22H25NO6/c1-12(24)23-16-8-6-13-10-19(27-3)21(28-4)22(29-5)20(13)14-7-9-18(26-2)17(25)11-15(14)16/h7,9-11,16H,6,8H2,1-5H3,(H,23,24)

> <INCHI_KEY>
IAKHMKGGTNLKSZ-UHFFFAOYSA-N

> <FORMULA>
C22H25NO6

> <MOLECULAR_WEIGHT>
399.437

> <EXACT_MASS>
399.168187537

> <JCHEM_ACCEPTOR_COUNT>
6

> <JCHEM_AVERAGE_POLARIZABILITY>
42.40842276748191

> <JCHEM_BIOAVAILABILITY>
1

> <JCHEM_DONOR_COUNT>
1

> <JCHEM_FORMAL_CHARGE>
0

> <JCHEM_GHOSE_FILTER>
1

> <JCHEM_IUPAC>
N-{3,4,5,14-tetramethoxy-13-oxotricyclo[9.5.0.0²,⁷]hexadeca-1(16),2(7),3,5,11,14-hexaen-10-yl}acetamide

> <ALOGPS_LOGP>
1.59

> <JCHEM_LOGP>
1.4619885703333333

> <ALOGPS_LOGS>
-4.16

> <JCHEM_MDDR_LIKE_RULE>
0

> <JCHEM_NUMBER_OF_RINGS>
3

> <JCHEM_PHYSIOLOGICAL_CHARGE>
0

> <JCHEM_PKA>
17.72567746371771

> <JCHEM_PKA_STRONGEST_ACIDIC>
15.057997338591893

> <JCHEM_PKA_STRONGEST_BASIC>
-0.0375340554539807

> <JCHEM_POLAR_SURFACE_AREA>
83.09

> <JCHEM_REFRACTIVITY>
111.37559999999999

> <JCHEM_ROTATABLE_BOND_COUNT>
5

> <JCHEM_RULE_OF_FIVE>
1

> <ALOGPS_SOLUBILITY>
2.76e-02 g/l

> <JCHEM_TRADITIONAL_IUPAC>
colchicine

> <JCHEM_VEBER_RULE>
0

> <DRUGBANK_ID>
DB01394

> <DRUG_GROUPS>
approved

> <GENERIC_NAME>
Colchicine

> <SYNONYMS>
Colchicin; Colchicina; Colchicine; Colchicinum

> <PRODUCTS>
Colchicine; Colchicine Tab 0.6mg; Colchicine Tab 1mg; Colcrys; Euro-colchicine; Gloperba; Jamp-colchicine; Mitigare; PMS-colchicine; Probenecid and Colchicine; Sandoz Colchicine; Verban Ont

$$$$
