60953
  -OEChem-10051719293D

 47 48  0     1  0  0  0  0  0999 V2000
   -0.1418   -2.6904   -0.1559 F   0  0  0  0  0  0  0  0  0  0  0  0
   -4.4218   -0.7029    1.0415 O   0  0  0  0  0  0  0  0  0  0  0  0
   -4.3764    1.9686   -1.3502 O   0  0  0  0  0  0  0  0  0  0  0  0
   -6.5698    1.1330    0.0387 O   0  0  0  0  0  0  0  0  0  0  0  0
   -1.7747    2.3628    0.6155 O   0  0  0  0  0  0  0  0  0  0  0  0
    3.8502   -0.3931   -0.0133 O   0  0  0  0  0  0  0  0  0  0  0  0
    2.5348    1.4642    0.3002 O   0  0  0  0  0  0  0  0  0  0  0  0
   -2.3602    0.1422    0.3343 N   0  0  0  0  0  0  0  0  0  0  0  0
   -0.0554    0.9006    0.3368 N   0  0  0  0  0  0  0  0  0  0  0  0
    1.6262   -0.6601    0.0466 N   0  0  0  0  0  0  0  0  0  0  0  0
   -4.4150    0.6225   -0.9228 C   0  0  2  0  0  0  0  0  0  0  0  0
   -5.8274    0.1402   -0.6689 C   0  0  1  0  0  0  0  0  0  0  0  0
   -3.7643    0.4217    0.4350 C   0  0  1  0  0  0  0  0  0  0  0  0
   -5.5989   -1.0345    0.2726 C   0  0  1  0  0  0  0  0  0  0  0  0
   -5.3366   -2.3466   -0.4545 C   0  0  0  0  0  0  0  0  0  0  0  0
   -1.9184   -1.1615    0.1345 C   0  0  0  0  0  0  0  0  0  0  0  0
   -1.4088    1.1994    0.4383 C   0  0  0  0  0  0  0  0  0  0  0  0
   -0.6255   -1.4530    0.0369 C   0  0  0  0  0  0  0  0  0  0  0  0
    0.3039   -0.3274    0.1513 C   0  0  0  0  0  0  0  0  0  0  0  0
    7.5383    0.3737   -0.0812 C   0  0  0  0  0  0  0  0  0  0  0  0
    6.2506   -0.4463   -0.1236 C   0  0  0  0  0  0  0  0  0  0  0  0
    8.7669   -0.5089   -0.2990 C   0  0  0  0  0  0  0  0  0  0  0  0
    5.0193    0.4314    0.0507 C   0  0  0  0  0  0  0  0  0  0  0  0
    2.6560    0.2555    0.1276 C   0  0  0  0  0  0  0  0  0  0  0  0
   10.0487    0.3088   -0.2912 C   0  0  0  0  0  0  0  0  0  0  0  0
   -3.9441    0.0016   -1.6944 H   0  0  0  0  0  0  0  0  0  0  0  0
   -6.3814   -0.1055   -1.5786 H   0  0  0  0  0  0  0  0  0  0  0  0
   -3.9153    1.2923    1.0840 H   0  0  0  0  0  0  0  0  0  0  0  0
   -6.4265   -1.1655    0.9783 H   0  0  0  0  0  0  0  0  0  0  0  0
   -6.2376   -2.6839   -0.9765 H   0  0  0  0  0  0  0  0  0  0  0  0
   -5.0333   -3.1238    0.2550 H   0  0  0  0  0  0  0  0  0  0  0  0
   -4.5347   -2.2579   -1.1934 H   0  0  0  0  0  0  0  0  0  0  0  0
   -3.4417    2.2295   -1.4090 H   0  0  0  0  0  0  0  0  0  0  0  0
   -6.1516    1.2862    0.9023 H   0  0  0  0  0  0  0  0  0  0  0  0
   -2.6518   -1.9502    0.0554 H   0  0  0  0  0  0  0  0  0  0  0  0
    7.6180    0.8851    0.8858 H   0  0  0  0  0  0  0  0  0  0  0  0
    7.5039    1.1500   -0.8553 H   0  0  0  0  0  0  0  0  0  0  0  0
    6.1761   -0.9876   -1.0752 H   0  0  0  0  0  0  0  0  0  0  0  0
    6.2636   -1.2157    0.6585 H   0  0  0  0  0  0  0  0  0  0  0  0
    1.8815   -1.6334   -0.0990 H   0  0  0  0  0  0  0  0  0  0  0  0
    8.6834   -1.0343   -1.2574 H   0  0  0  0  0  0  0  0  0  0  0  0
    8.8208   -1.2722    0.4860 H   0  0  0  0  0  0  0  0  0  0  0  0
    5.0519    0.9376    1.0225 H   0  0  0  0  0  0  0  0  0  0  0  0
    4.9749    1.1817   -0.7473 H   0  0  0  0  0  0  0  0  0  0  0  0
   10.0403    1.0595   -1.0879 H   0  0  0  0  0  0  0  0  0  0  0  0
   10.1791    0.8242    0.6657 H   0  0  0  0  0  0  0  0  0  0  0  0
   10.9146   -0.3422   -0.4471 H   0  0  0  0  0  0  0  0  0  0  0  0
  1 18  1  0  0  0  0
  2 13  1  0  0  0  0
  2 14  1  0  0  0  0
  3 11  1  0  0  0  0
  3 33  1  0  0  0  0
  4 12  1  0  0  0  0
  4 34  1  0  0  0  0
  5 17  2  0  0  0  0
  6 23  1  0  0  0  0
  6 24  1  0  0  0  0
  7 24  2  0  0  0  0
  8 13  1  0  0  0  0
  8 16  1  0  0  0  0
  8 17  1  0  0  0  0
  9 17  1  0  0  0  0
  9 19  2  0  0  0  0
 10 19  1  0  0  0  0
 10 24  1  0  0  0  0
 10 40  1  0  0  0  0
 11 12  1  0  0  0  0
 11 13  1  0  0  0  0
 11 26  1  0  0  0  0
 12 14  1  0  0  0  0
 12 27  1  0  0  0  0
 13 28  1  0  0  0  0
 14 15  1  0  0  0  0
 14 29  1  0  0  0  0
 15 30  1  0  0  0  0
 15 31  1  0  0  0  0
 15 32  1  0  0  0  0
 16 18  2  0  0  0  0
 16 35  1  0  0  0  0
 18 19  1  0  0  0  0
 20 21  1  0  0  0  0
 20 22  1  0  0  0  0
 20 36  1  0  0  0  0
 20 37  1  0  0  0  0
 21 23  1  0  0  0  0
 21 38  1  0  0  0  0
 21 39  1  0  0  0  0
 22 25  1  0  0  0  0
 22 41  1  0  0  0  0
 22 42  1  0  0  0  0
 23 43  1  0  0  0  0
 23 44  1  0  0  0  0
 25 45  1  0  0  0  0
 25 46  1  0  0  0  0
 25 47  1  0  0  0  0
M  END
> <DATABASE_ID>
DB01101

> <DATABASE_NAME>
drugbank

> <ORIGINAL_SOURCE>
PUBCHEM

> <ORIGINAL_SOURCE_URL>
https://pubchem.ncbi.nlm.nih.gov/rest/pug/compound/inchikey/GAGWJHPBXLXJQN-UORFTKCHSA-N/SDF?record_type=3d

> <SMILES>
CCCCCOC(=O)NC1=NC(=O)N(C=C1F)[C@@H]1O[C@H](C)[C@@H](O)[C@H]1O

> <INCHI_IDENTIFIER>
InChI=1S/C15H22FN3O6/c1-3-4-5-6-24-15(23)18-12-9(16)7-19(14(22)17-12)13-11(21)10(20)8(2)25-13/h7-8,10-11,13,20-21H,3-6H2,1-2H3,(H,17,18,22,23)/t8-,10-,11-,13-/m1/s1

> <INCHI_KEY>
GAGWJHPBXLXJQN-UORFTKCHSA-N

> <FORMULA>
C15H22FN3O6

> <MOLECULAR_WEIGHT>
359.3501

> <EXACT_MASS>
359.149263656

> <JCHEM_ACCEPTOR_COUNT>
6

> <JCHEM_AVERAGE_POLARIZABILITY>
35.80629651170085

> <JCHEM_BIOAVAILABILITY>
1

> <JCHEM_DONOR_COUNT>
3

> <JCHEM_FORMAL_CHARGE>
0

> <JCHEM_GHOSE_FILTER>
1

> <JCHEM_IUPAC>
pentyl N-{1-[(2R,3R,4S,5R)-3,4-dihydroxy-5-methyloxolan-2-yl]-5-fluoro-2-oxo-1,2-dihydropyrimidin-4-yl}carbamate

> <ALOGPS_LOGP>
1.17

> <JCHEM_LOGP>
0.7680360469999987

> <ALOGPS_LOGS>
-3.16

> <JCHEM_MDDR_LIKE_RULE>
0

> <JCHEM_NUMBER_OF_RINGS>
2

> <JCHEM_PHYSIOLOGICAL_CHARGE>
0

> <JCHEM_PKA>
12.588438615389556

> <JCHEM_PKA_STRONGEST_ACIDIC>
8.226097931361227

> <JCHEM_PKA_STRONGEST_BASIC>
-3.627374620495517

> <JCHEM_POLAR_SURFACE_AREA>
120.69

> <JCHEM_REFRACTIVITY>
82.746

> <JCHEM_ROTATABLE_BOND_COUNT>
7

> <JCHEM_RULE_OF_FIVE>
1

> <ALOGPS_SOLUBILITY>
2.48e-01 g/l

> <JCHEM_TRADITIONAL_IUPAC>
capecitabine

> <JCHEM_VEBER_RULE>
0

> <DRUGBANK_ID>
DB01101

> <SECONDARY_ACCESSION_NUMBERS>
APRD00203

> <DRUG_GROUPS>
approved; investigational

> <GENERIC_NAME>
Capecitabine

> <SYNONYMS>
(1-(5-Deoxy-beta-D-ribofuranosyl)-5-fluoro-1,2-dihydro-2-oxo-4-pyrimidinyl)-carbamic acid pentyl ester; Capecitabin; Capecitabina; Capécitabine; Capecitabine; Capecitabinum; Pentyl [1-(5-deoxy-β-D-ribofuranosyl)-5-fluoro-2-oxo-1,2-dihydropyrimidin-4-yl]carbamate; pentyl 1-(5-deoxy-β-D-ribofuranosyl)-5-fluoro-1,2-dihydro-2-oxo-4-pyrimidinecarbamate

> <PRODUCTS>
Ach-capecitabine; Apo-capecitabine; Capecitabine; Capecitabine 150mg; Capecitabine 500mg; Capecitabine Accord; Capecitabine Medac; Capecitabine Sun; Capecitabine Tablets, 150 mg; Capecitabine Tablets, 500 mg; Capecitabine Teva; Ecansya; Sandoz Capecitabine; Taro-capecitabine; Teva-capecitabine; Xeloda

$$$$
