1548972
  -OEChem-10051719293D

 56 58  0     1  0  0  0  0  0999 V2000
    2.1369   -4.7961    0.2375 F   0  0  0  0  0  0  0  0  0  0  0  0
    1.7790    3.8995   -0.1947 O   0  0  0  0  0  0  0  0  0  0  0  0
    3.4607    0.3347    1.3443 O   0  0  0  0  0  0  0  0  0  0  0  0
    6.5689    0.9977   -1.4537 O   0  0  0  0  0  0  0  0  0  0  0  0
    6.2622    0.7648    0.7845 O   0  0  0  0  0  0  0  0  0  0  0  0
   -2.5150    1.3150    0.2343 N   0  0  0  0  0  0  0  0  0  0  0  0
   -2.6444    2.7468    0.4321 C   0  0  0  0  0  0  0  0  0  0  0  0
   -1.3802    0.5787    0.3543 C   0  0  0  0  0  0  0  0  0  0  0  0
   -3.5600    0.4887   -0.1128 C   0  0  0  0  0  0  0  0  0  0  0  0
   -1.6568   -0.7269    0.0914 C   0  0  0  0  0  0  0  0  0  0  0  0
   -3.0454   -0.8060   -0.2095 C   0  0  0  0  0  0  0  0  0  0  0  0
   -0.1699    1.2561    0.7110 C   0  0  0  0  0  0  0  0  0  0  0  0
   -3.5756    3.0814    1.5988 C   0  0  0  0  0  0  0  0  0  0  0  0
   -3.0665    3.4659   -0.8505 C   0  0  0  0  0  0  0  0  0  0  0  0
   -0.6770   -1.7780    0.1291 C   0  0  0  0  0  0  0  0  0  0  0  0
   -4.9075    0.7852   -0.3462 C   0  0  0  0  0  0  0  0  0  0  0  0
   -3.9165   -1.8579   -0.5560 C   0  0  0  0  0  0  0  0  0  0  0  0
    1.9232    2.5430    0.2190 C   0  0  2  0  0  0  0  0  0  0  0  0
    3.1488    1.9103   -0.4612 C   0  0  0  0  0  0  0  0  0  0  0  0
    0.6646    1.8185   -0.1782 C   0  0  0  0  0  0  0  0  0  0  0  0
    3.3698    0.4399   -0.0744 C   0  0  1  0  0  0  0  0  0  0  0  0
   -5.7526   -0.2743   -0.6885 C   0  0  0  0  0  0  0  0  0  0  0  0
   -5.2669   -1.5762   -0.7924 C   0  0  0  0  0  0  0  0  0  0  0  0
    0.0402   -2.1024   -1.0215 C   0  0  0  0  0  0  0  0  0  0  0  0
   -0.4454   -2.4713    1.3163 C   0  0  0  0  0  0  0  0  0  0  0  0
    4.6162   -0.1701   -0.7195 C   0  0  0  0  0  0  0  0  0  0  0  0
    0.9911   -3.1224   -0.9848 C   0  0  0  0  0  0  0  0  0  0  0  0
    0.5055   -3.4912    1.3529 C   0  0  0  0  0  0  0  0  0  0  0  0
    1.2237   -3.8167    0.2024 C   0  0  0  0  0  0  0  0  0  0  0  0
    5.8889    0.5630   -0.3641 C   0  0  0  0  0  0  0  0  0  0  0  0
   -1.6656    3.1519    0.7048 H   0  0  0  0  0  0  0  0  0  0  0  0
    0.0681    1.2979    1.7709 H   0  0  0  0  0  0  0  0  0  0  0  0
   -3.5016    4.1480    1.8407 H   0  0  0  0  0  0  0  0  0  0  0  0
   -3.2928    2.5201    2.4967 H   0  0  0  0  0  0  0  0  0  0  0  0
   -4.6288    2.8780    1.3979 H   0  0  0  0  0  0  0  0  0  0  0  0
   -2.4217    3.1784   -1.6887 H   0  0  0  0  0  0  0  0  0  0  0  0
   -2.9705    4.5498   -0.7186 H   0  0  0  0  0  0  0  0  0  0  0  0
   -4.0998    3.2763   -1.1458 H   0  0  0  0  0  0  0  0  0  0  0  0
   -5.3244    1.7805   -0.2763 H   0  0  0  0  0  0  0  0  0  0  0  0
   -3.5540   -2.8784   -0.6412 H   0  0  0  0  0  0  0  0  0  0  0  0
    2.0505    2.5477    1.3075 H   0  0  0  0  0  0  0  0  0  0  0  0
    3.0680    2.0055   -1.5520 H   0  0  0  0  0  0  0  0  0  0  0  0
    4.0220    2.5103   -0.1736 H   0  0  0  0  0  0  0  0  0  0  0  0
    0.4280    1.7782   -1.2396 H   0  0  0  0  0  0  0  0  0  0  0  0
    2.5062   -0.1564   -0.3872 H   0  0  0  0  0  0  0  0  0  0  0  0
   -6.8053   -0.0786   -0.8765 H   0  0  0  0  0  0  0  0  0  0  0  0
   -5.9435   -2.3836   -1.0600 H   0  0  0  0  0  0  0  0  0  0  0  0
   -0.1280   -1.5701   -1.9548 H   0  0  0  0  0  0  0  0  0  0  0  0
   -0.9966   -2.2301    2.2220 H   0  0  0  0  0  0  0  0  0  0  0  0
    4.7506   -1.2097   -0.3988 H   0  0  0  0  0  0  0  0  0  0  0  0
    4.4981   -0.1775   -1.8094 H   0  0  0  0  0  0  0  0  0  0  0  0
    1.5514   -3.3752   -1.8800 H   0  0  0  0  0  0  0  0  0  0  0  0
    0.6870   -4.0319    2.2770 H   0  0  0  0  0  0  0  0  0  0  0  0
    2.5963    4.3676    0.0474 H   0  0  0  0  0  0  0  0  0  0  0  0
    3.5608   -0.6075    1.5627 H   0  0  0  0  0  0  0  0  0  0  0  0
    7.3860    1.4810   -1.2067 H   0  0  0  0  0  0  0  0  0  0  0  0
  1 29  1  0  0  0  0
  2 18  1  0  0  0  0
  2 54  1  0  0  0  0
  3 21  1  0  0  0  0
  3 55  1  0  0  0  0
  4 30  1  0  0  0  0
  4 56  1  0  0  0  0
  5 30  2  0  0  0  0
  6  7  1  0  0  0  0
  6  8  1  0  0  0  0
  6  9  1  0  0  0  0
  7 13  1  0  0  0  0
  7 14  1  0  0  0  0
  7 31  1  0  0  0  0
  8 10  2  0  0  0  0
  8 12  1  0  0  0  0
  9 11  1  0  0  0  0
  9 16  2  0  0  0  0
 10 11  1  0  0  0  0
 10 15  1  0  0  0  0
 11 17  2  0  0  0  0
 12 20  2  0  0  0  0
 12 32  1  0  0  0  0
 13 33  1  0  0  0  0
 13 34  1  0  0  0  0
 13 35  1  0  0  0  0
 14 36  1  0  0  0  0
 14 37  1  0  0  0  0
 14 38  1  0  0  0  0
 15 24  2  0  0  0  0
 15 25  1  0  0  0  0
 16 22  1  0  0  0  0
 16 39  1  0  0  0  0
 17 23  1  0  0  0  0
 17 40  1  0  0  0  0
 18 19  1  0  0  0  0
 18 20  1  0  0  0  0
 18 41  1  0  0  0  0
 19 21  1  0  0  0  0
 19 42  1  0  0  0  0
 19 43  1  0  0  0  0
 20 44  1  0  0  0  0
 21 26  1  0  0  0  0
 21 45  1  0  0  0  0
 22 23  2  0  0  0  0
 22 46  1  0  0  0  0
 23 47  1  0  0  0  0
 24 27  1  0  0  0  0
 24 48  1  0  0  0  0
 25 28  2  0  0  0  0
 25 49  1  0  0  0  0
 26 30  1  0  0  0  0
 26 50  1  0  0  0  0
 26 51  1  0  0  0  0
 27 29  2  0  0  0  0
 27 52  1  0  0  0  0
 28 29  1  0  0  0  0
 28 53  1  0  0  0  0
M  END
> <DATABASE_ID>
DB01095

> <DATABASE_NAME>
drugbank

> <ORIGINAL_SOURCE>
PUBCHEM

> <ORIGINAL_SOURCE_URL>
https://pubchem.ncbi.nlm.nih.gov/rest/pug/compound/inchikey/FJLGEFLZQAZZCD-JUFISIKESA-N/SDF?record_type=3d

> <SMILES>
CC(C)N1C(\C=C\[C@H](O)C[C@H](O)CC(O)=O)=C(C2=CC=C(F)C=C2)C2=CC=CC=C12

> <INCHI_IDENTIFIER>
InChI=1S/C24H26FNO4/c1-15(2)26-21-6-4-3-5-20(21)24(16-7-9-17(25)10-8-16)22(26)12-11-18(27)13-19(28)14-23(29)30/h3-12,15,18-19,27-28H,13-14H2,1-2H3,(H,29,30)/b12-11+/t18-,19-/m0/s1

> <INCHI_KEY>
FJLGEFLZQAZZCD-JUFISIKESA-N

> <FORMULA>
C24H26FNO4

> <MOLECULAR_WEIGHT>
411.4659

> <EXACT_MASS>
411.18458653

> <JCHEM_ACCEPTOR_COUNT>
4

> <JCHEM_AVERAGE_POLARIZABILITY>
44.314175993841545

> <JCHEM_BIOAVAILABILITY>
1

> <JCHEM_DONOR_COUNT>
3

> <JCHEM_FORMAL_CHARGE>
0

> <JCHEM_GHOSE_FILTER>
1

> <JCHEM_IUPAC>
(3S,5R,6E)-7-[3-(4-fluorophenyl)-1-(propan-2-yl)-1H-indol-2-yl]-3,5-dihydroxyhept-6-enoic acid

> <ALOGPS_LOGP>
3.69

> <JCHEM_LOGP>
3.825949093666666

> <ALOGPS_LOGS>
-4.97

> <JCHEM_MDDR_LIKE_RULE>
1

> <JCHEM_NUMBER_OF_RINGS>
3

> <JCHEM_PHYSIOLOGICAL_CHARGE>
-1

> <JCHEM_PKA>
14.644783424148272

> <JCHEM_PKA_STRONGEST_ACIDIC>
4.5570100486599445

> <JCHEM_PKA_STRONGEST_BASIC>
-2.8401489650869784

> <JCHEM_POLAR_SURFACE_AREA>
82.69

> <JCHEM_REFRACTIVITY>
114.85530000000003

> <JCHEM_ROTATABLE_BOND_COUNT>
8

> <JCHEM_RULE_OF_FIVE>
1

> <ALOGPS_SOLUBILITY>
4.41e-03 g/l

> <JCHEM_TRADITIONAL_IUPAC>
fluvastatin

> <JCHEM_VEBER_RULE>
0

> <DRUGBANK_ID>
DB01095

> <SECONDARY_ACCESSION_NUMBERS>
APRD00346

> <DRUG_GROUPS>
approved

> <GENERIC_NAME>
Fluvastatin

> <SYNONYMS>
Fluvastatin; fluvastatina; fluvastatine; fluvastatinum

> <PRODUCTS>
Fluvastatin; Fluvastatin Sodium; Fluvastatin Sodium ER; Lescol; Lescol 20mg; Lescol 40mg; Lescol XL; Sandoz Fluvastatin; Sandoz Fluvastatin XL; Teva-fluvastatin

> <INTERNATIONAL_BRANDS>
Canef; Cranoc

> <SALTS>
Fluvastatin sodium

$$$$
