439278
  -OEChem-10051719403D

 18 17  0     1  0  0  0  0  0999 V2000
    1.7366   -0.0431   -0.0542 P   0  0  0  0  0  0  0  0  0  0  0  0
    0.3633   -0.8975   -0.0306 O   0  0  0  0  0  0  0  0  0  0  0  0
   -2.2786   -1.6397   -0.7381 O   0  0  0  0  0  0  0  0  0  0  0  0
    2.8137   -1.0638   -0.6971 O   0  0  0  0  0  0  0  0  0  0  0  0
    2.1558    0.0053    1.5069 O   0  0  0  0  0  0  0  0  0  0  0  0
   -1.6320    1.8547    0.8297 O   0  0  0  0  0  0  0  0  0  0  0  0
    1.6403    1.2953   -0.7264 O   0  0  0  0  0  0  0  0  0  0  0  0
   -0.9956    1.2017   -1.2542 O   0  0  0  0  0  0  0  0  0  0  0  0
   -0.7688   -0.3383    0.6193 C   0  0  2  0  0  0  0  0  0  0  0  0
   -1.9141   -1.3420    0.6053 C   0  0  0  0  0  0  0  0  0  0  0  0
   -1.1205    0.9674   -0.0606 C   0  0  0  0  0  0  0  0  0  0  0  0
   -0.4862   -0.1307    1.6577 H   0  0  0  0  0  0  0  0  0  0  0  0
   -1.6072   -2.2785    1.0817 H   0  0  0  0  0  0  0  0  0  0  0  0
   -2.7929   -0.9409    1.1198 H   0  0  0  0  0  0  0  0  0  0  0  0
   -3.0074   -2.2822   -0.6997 H   0  0  0  0  0  0  0  0  0  0  0  0
    3.7231   -0.7428   -0.8763 H   0  0  0  0  0  0  0  0  0  0  0  0
    2.9216    0.5561    1.7757 H   0  0  0  0  0  0  0  0  0  0  0  0
   -1.8784    2.7021    0.4012 H   0  0  0  0  0  0  0  0  0  0  0  0
  1  2  1  0  0  0  0
  1  4  1  0  0  0  0
  1  5  1  0  0  0  0
  1  7  2  0  0  0  0
  2  9  1  0  0  0  0
  3 10  1  0  0  0  0
  3 15  1  0  0  0  0
  4 16  1  0  0  0  0
  5 17  1  0  0  0  0
  6 11  1  0  0  0  0
  6 18  1  0  0  0  0
  8 11  2  0  0  0  0
  9 10  1  0  0  0  0
  9 11  1  0  0  0  0
  9 12  1  0  0  0  0
 10 13  1  0  0  0  0
 10 14  1  0  0  0  0
M  END
> <DATABASE_ID>
DB01709

> <DATABASE_NAME>
drugbank

> <ORIGINAL_SOURCE>
PUBCHEM

> <ORIGINAL_SOURCE_URL>
https://pubchem.ncbi.nlm.nih.gov/rest/pug/compound/inchikey/GXIURPTVHJPJLF-UWTATZPHSA-N/SDF?record_type=3d

> <SMILES>
OC[C@@H](OP(O)(O)=O)C(O)=O

> <INCHI_IDENTIFIER>
InChI=1S/C3H7O7P/c4-1-2(3(5)6)10-11(7,8)9/h2,4H,1H2,(H,5,6)(H2,7,8,9)/t2-/m1/s1

> <INCHI_KEY>
GXIURPTVHJPJLF-UWTATZPHSA-N

> <FORMULA>
C3H7O7P

> <MOLECULAR_WEIGHT>
186.0572

> <EXACT_MASS>
185.99293909

> <JCHEM_ACCEPTOR_COUNT>
6

> <JCHEM_AVERAGE_POLARIZABILITY>
13.363889103271454

> <JCHEM_BIOAVAILABILITY>
1

> <JCHEM_DONOR_COUNT>
4

> <JCHEM_FORMAL_CHARGE>
0

> <JCHEM_GHOSE_FILTER>
0

> <JCHEM_IUPAC>
(2R)-3-hydroxy-2-(phosphonooxy)propanoic acid

> <ALOGPS_LOGP>
-2.24

> <JCHEM_LOGP>
-1.642305516

> <ALOGPS_LOGS>
-0.96

> <JCHEM_MDDR_LIKE_RULE>
0

> <JCHEM_NUMBER_OF_RINGS>
0

> <JCHEM_PHYSIOLOGICAL_CHARGE>
-3

> <JCHEM_PKA>
3.483549412336347

> <JCHEM_PKA_STRONGEST_ACIDIC>
0.8080623457428864

> <JCHEM_PKA_STRONGEST_BASIC>
-3.0640832510433764

> <JCHEM_POLAR_SURFACE_AREA>
124.29000000000002

> <JCHEM_REFRACTIVITY>
31.2564

> <JCHEM_ROTATABLE_BOND_COUNT>
4

> <JCHEM_RULE_OF_FIVE>
1

> <ALOGPS_SOLUBILITY>
2.03e+01 g/l

> <JCHEM_TRADITIONAL_IUPAC>
(+-)-2-phosphoglycerate

> <JCHEM_VEBER_RULE>
0

> <DRUGBANK_ID>
DB01709

> <SECONDARY_ACCESSION_NUMBERS>
EXPT00143; EXPT02490; DB03465

> <DRUG_GROUPS>
experimental

> <GENERIC_NAME>
2-phospho-D-glyceric acid

> <SYNONYMS>
2-phospho-D-glycerate; D-glycerate 2-phosphate

$$$$
