447488
  -OEChem-10051719413D

 46 49  0     0  0  0  0  0  0999 V2000
    5.4750    2.7823    0.4612 Cl  0  0  0  0  0  0  0  0  0  0  0  0
   -4.2927    0.1583   -0.4924 O   0  0  0  0  0  0  0  0  0  0  0  0
   -1.6537    0.9550   -0.5740 O   0  0  0  0  0  0  0  0  0  0  0  0
    0.8378    0.4311    0.3266 N   0  0  0  0  0  0  0  0  0  0  0  0
    6.8534   -1.3197   -0.5874 N   0  0  0  0  0  0  0  0  0  0  0  0
    7.2070    0.9380   -0.0991 N   0  0  0  0  0  0  0  0  0  0  0  0
   -5.2558    0.4294    0.5184 C   0  0  0  0  0  0  0  0  0  0  0  0
   -6.6466    0.1162   -0.0113 C   0  0  0  0  0  0  0  0  0  0  0  0
   -5.3240    1.9230    0.7986 C   0  0  0  0  0  0  0  0  0  0  0  0
   -7.0165    1.3321   -0.8596 C   0  0  0  0  0  0  0  0  0  0  0  0
   -6.1448    2.4843   -0.3597 C   0  0  0  0  0  0  0  0  0  0  0  0
   -3.3000   -0.7212   -0.1817 C   0  0  0  0  0  0  0  0  0  0  0  0
   -1.9626   -0.3267   -0.2198 C   0  0  0  0  0  0  0  0  0  0  0  0
   -0.9552   -1.2380    0.1009 C   0  0  0  0  0  0  0  0  0  0  0  0
    0.4345   -0.8515    0.0680 C   0  0  0  0  0  0  0  0  0  0  0  0
   -3.6318   -2.0275    0.1774 C   0  0  0  0  0  0  0  0  0  0  0  0
    2.6861   -0.7429   -0.1012 C   0  0  0  0  0  0  0  0  0  0  0  0
    2.2078    0.5267    0.2303 C   0  0  0  0  0  0  0  0  0  0  0  0
    1.5561   -1.6020   -0.2005 C   0  0  0  0  0  0  0  0  0  0  0  0
   -1.2889   -2.5450    0.4600 C   0  0  0  0  0  0  0  0  0  0  0  0
   -2.6261   -2.9395    0.4981 C   0  0  0  0  0  0  0  0  0  0  0  0
    4.0741   -0.9241   -0.2619 C   0  0  0  0  0  0  0  0  0  0  0  0
    3.0516    1.6285    0.4095 C   0  0  0  0  0  0  0  0  0  0  0  0
    4.9302    0.1690   -0.0857 C   0  0  0  0  0  0  0  0  0  0  0  0
    4.4246    1.4248    0.2445 C   0  0  0  0  0  0  0  0  0  0  0  0
    6.3603   -0.0607   -0.2591 C   0  0  0  0  0  0  0  0  0  0  0  0
   -5.0470   -0.1207    1.4442 H   0  0  0  0  0  0  0  0  0  0  0  0
   -7.3544    0.0262    0.8213 H   0  0  0  0  0  0  0  0  0  0  0  0
   -6.6861   -0.8041   -0.6020 H   0  0  0  0  0  0  0  0  0  0  0  0
   -4.3374    2.3936    0.8494 H   0  0  0  0  0  0  0  0  0  0  0  0
   -5.8502    2.1073    1.7426 H   0  0  0  0  0  0  0  0  0  0  0  0
   -8.0832    1.5633   -0.7744 H   0  0  0  0  0  0  0  0  0  0  0  0
   -6.8071    1.1394   -1.9182 H   0  0  0  0  0  0  0  0  0  0  0  0
   -5.4830    2.8241   -1.1650 H   0  0  0  0  0  0  0  0  0  0  0  0
   -6.7448    3.3439   -0.0447 H   0  0  0  0  0  0  0  0  0  0  0  0
   -4.6681   -2.3532    0.2031 H   0  0  0  0  0  0  0  0  0  0  0  0
    1.5774   -2.6552   -0.4485 H   0  0  0  0  0  0  0  0  0  0  0  0
    0.2282    1.2024    0.5623 H   0  0  0  0  0  0  0  0  0  0  0  0
   -0.5286   -3.2762    0.7232 H   0  0  0  0  0  0  0  0  0  0  0  0
   -2.8848   -3.9567    0.7774 H   0  0  0  0  0  0  0  0  0  0  0  0
    4.4096   -1.9204   -0.5183 H   0  0  0  0  0  0  0  0  0  0  0  0
    2.6443    2.6016    0.6666 H   0  0  0  0  0  0  0  0  0  0  0  0
   -2.4812    1.4317   -0.7602 H   0  0  0  0  0  0  0  0  0  0  0  0
    7.8526   -1.4569   -0.7014 H   0  0  0  0  0  0  0  0  0  0  0  0
    6.2830   -2.1429   -0.7296 H   0  0  0  0  0  0  0  0  0  0  0  0
    8.1570    0.5851   -0.2589 H   0  0  0  0  0  0  0  0  0  0  0  0
  1 25  1  0  0  0  0
  2  7  1  0  0  0  0
  2 12  1  0  0  0  0
  3 13  1  0  0  0  0
  3 43  1  0  0  0  0
  4 15  1  0  0  0  0
  4 18  1  0  0  0  0
  4 38  1  0  0  0  0
  5 26  1  0  0  0  0
  5 44  1  0  0  0  0
  5 45  1  0  0  0  0
  6 26  2  0  0  0  0
  6 46  1  0  0  0  0
  7  8  1  0  0  0  0
  7  9  1  0  0  0  0
  7 27  1  0  0  0  0
  8 10  1  0  0  0  0
  8 28  1  0  0  0  0
  8 29  1  0  0  0  0
  9 11  1  0  0  0  0
  9 30  1  0  0  0  0
  9 31  1  0  0  0  0
 10 11  1  0  0  0  0
 10 32  1  0  0  0  0
 10 33  1  0  0  0  0
 11 34  1  0  0  0  0
 11 35  1  0  0  0  0
 12 13  1  0  0  0  0
 12 16  2  0  0  0  0
 13 14  2  0  0  0  0
 14 15  1  0  0  0  0
 14 20  1  0  0  0  0
 15 19  2  0  0  0  0
 16 21  1  0  0  0  0
 16 36  1  0  0  0  0
 17 18  1  0  0  0  0
 17 19  1  0  0  0  0
 17 22  2  0  0  0  0
 18 23  2  0  0  0  0
 19 37  1  0  0  0  0
 20 21  2  0  0  0  0
 20 39  1  0  0  0  0
 21 40  1  0  0  0  0
 22 24  1  0  0  0  0
 22 41  1  0  0  0  0
 23 25  1  0  0  0  0
 23 42  1  0  0  0  0
 24 25  2  0  0  0  0
 24 26  1  0  0  0  0
M  END
> <DATABASE_ID>
DB01771

> <DATABASE_NAME>
drugbank

> <ORIGINAL_SOURCE>
PUBCHEM

> <ORIGINAL_SOURCE_URL>
https://pubchem.ncbi.nlm.nih.gov/rest/pug/compound/inchikey/QXAURVOBXQBPAP-UHFFFAOYSA-N/SDF?record_type=3d

> <SMILES>
NC(=[NH2+])C1=C(Cl)C=C2NC(=CC2=C1)C1=CC=CC(OC2CCCC2)=C1[O-]

> <INCHI_IDENTIFIER>
InChI=1S/C20H20ClN3O2/c21-15-10-16-11(8-14(15)20(22)23)9-17(24-16)13-6-3-7-18(19(13)25)26-12-4-1-2-5-12/h3,6-10,12,24-25H,1-2,4-5H2,(H3,22,23)

> <INCHI_KEY>
QXAURVOBXQBPAP-UHFFFAOYSA-N

> <FORMULA>
C20H20ClN3O2

> <MOLECULAR_WEIGHT>
369.845

> <EXACT_MASS>
369.124404606

> <JCHEM_ACCEPTOR_COUNT>
3

> <JCHEM_AVERAGE_POLARIZABILITY>
40.26249758564327

> <JCHEM_BIOAVAILABILITY>
1

> <JCHEM_DONOR_COUNT>
3

> <JCHEM_FORMAL_CHARGE>
0

> <JCHEM_GHOSE_FILTER>
1

> <JCHEM_IUPAC>
2-{5-[amino(iminiumyl)methyl]-6-chloro-1H-indol-2-yl}-6-(cyclopentyloxy)benzen-1-olate

> <ALOGPS_LOGP>
1.81

> <JCHEM_LOGP>
3.589156100123488

> <ALOGPS_LOGS>
-6.20

> <JCHEM_MDDR_LIKE_RULE>
0

> <JCHEM_NUMBER_OF_RINGS>
4

> <JCHEM_PHYSIOLOGICAL_CHARGE>
1

> <JCHEM_PKA>
14.757121531255663

> <JCHEM_PKA_STRONGEST_ACIDIC>
9.490081797003576

> <JCHEM_PKA_STRONGEST_BASIC>
10.142514401917447

> <JCHEM_POLAR_SURFACE_AREA>
99.69000000000001

> <JCHEM_REFRACTIVITY>
124.84309999999999

> <JCHEM_ROTATABLE_BOND_COUNT>
4

> <JCHEM_RULE_OF_FIVE>
1

> <ALOGPS_SOLUBILITY>
2.64e-04 g/l

> <JCHEM_TRADITIONAL_IUPAC>
2-{5-[amino(iminio)methyl]-6-chloro-1H-indol-2-yl}-6-(cyclopentyloxy)benzenolate

> <JCHEM_VEBER_RULE>
0

> <DRUGBANK_ID>
DB01771

> <SECONDARY_ACCESSION_NUMBERS>
EXPT00350

> <DRUG_GROUPS>
experimental

> <GENERIC_NAME>
CRA_10991

$$$$
