5288801
  -OEChem-10051719433D

 53 53  0     1  0  0  0  0  0999 V2000
   -2.2125   -1.6254   -0.3596 O   0  0  0  0  0  0  0  0  0  0  0  0
    4.2785    2.6561   -0.4634 O   0  0  0  0  0  0  0  0  0  0  0  0
    4.8579    1.7222    1.5210 O   0  0  0  0  0  0  0  0  0  0  0  0
    5.2448   -1.0788   -2.3172 N   0  0  0  0  0  0  0  0  0  0  0  0
   -1.0363   -0.7457    1.5664 C   0  0  1  0  0  0  0  0  0  0  0  0
   -2.3488   -0.7237    0.7444 C   0  0  1  0  0  0  0  0  0  0  0  0
   -2.7439    0.6550    0.1894 C   0  0  0  0  0  0  0  0  0  0  0  0
    0.1493   -0.2183    0.7844 C   0  0  0  0  0  0  0  0  0  0  0  0
   -1.1761    0.0404    2.8750 C   0  0  0  0  0  0  0  0  0  0  0  0
   -4.1976    0.7033   -0.2243 C   0  0  0  0  0  0  0  0  0  0  0  0
    1.2856   -0.8693    0.4626 C   0  0  0  0  0  0  0  0  0  0  0  0
    4.5655   -0.0859   -1.4745 C   0  0  2  0  0  0  0  0  0  0  0  0
    5.5748    0.6398   -0.5440 C   0  0  2  0  0  0  0  0  0  0  0  0
    2.3427   -0.2138   -0.2987 C   0  0  0  0  0  0  0  0  0  0  0  0
    3.5017   -0.7886   -0.6596 C   0  0  0  0  0  0  0  0  0  0  0  0
   -4.5436    0.3640   -1.5214 C   0  0  0  0  0  0  0  0  0  0  0  0
   -5.1528    1.0853    0.7026 C   0  0  0  0  0  0  0  0  0  0  0  0
    1.5801   -2.3118    0.7709 C   0  0  0  0  0  0  0  0  0  0  0  0
    6.2915   -0.2997    0.4291 C   0  0  0  0  0  0  0  0  0  0  0  0
   -1.8945   -2.9331    0.0848 C   0  0  0  0  0  0  0  0  0  0  0  0
    4.8714    1.6999    0.2966 C   0  0  0  0  0  0  0  0  0  0  0  0
   -5.8845    0.4082   -1.9031 C   0  0  0  0  0  0  0  0  0  0  0  0
   -6.4937    1.1293    0.3208 C   0  0  0  0  0  0  0  0  0  0  0  0
   -6.8595    0.7908   -0.9820 C   0  0  0  0  0  0  0  0  0  0  0  0
   -0.8364   -1.7649    1.8998 H   0  0  0  0  0  0  0  0  0  0  0  0
   -3.1634   -1.0925    1.3839 H   0  0  0  0  0  0  0  0  0  0  0  0
   -2.1242    0.9135   -0.6792 H   0  0  0  0  0  0  0  0  0  0  0  0
   -2.5779    1.4449    0.9302 H   0  0  0  0  0  0  0  0  0  0  0  0
    0.0633    0.8262    0.4834 H   0  0  0  0  0  0  0  0  0  0  0  0
   -2.0457   -0.3043    3.4449 H   0  0  0  0  0  0  0  0  0  0  0  0
   -1.2848    1.1166    2.7068 H   0  0  0  0  0  0  0  0  0  0  0  0
   -0.2906   -0.1012    3.5059 H   0  0  0  0  0  0  0  0  0  0  0  0
    4.0942    0.6490   -2.1391 H   0  0  0  0  0  0  0  0  0  0  0  0
    6.3349    1.1549   -1.1456 H   0  0  0  0  0  0  0  0  0  0  0  0
    2.1481    0.8103   -0.6096 H   0  0  0  0  0  0  0  0  0  0  0  0
    3.7450   -1.8059   -0.3653 H   0  0  0  0  0  0  0  0  0  0  0  0
   -3.7922    0.0645   -2.2461 H   0  0  0  0  0  0  0  0  0  0  0  0
   -4.8775    1.3480    1.7199 H   0  0  0  0  0  0  0  0  0  0  0  0
    1.6351   -2.9123   -0.1438 H   0  0  0  0  0  0  0  0  0  0  0  0
    2.5199   -2.4120    1.3274 H   0  0  0  0  0  0  0  0  0  0  0  0
    0.8388   -2.7791    1.4208 H   0  0  0  0  0  0  0  0  0  0  0  0
    5.6037   -0.7919    1.1254 H   0  0  0  0  0  0  0  0  0  0  0  0
    7.0200    0.2541    1.0333 H   0  0  0  0  0  0  0  0  0  0  0  0
    6.8456   -1.0773   -0.1063 H   0  0  0  0  0  0  0  0  0  0  0  0
   -2.3454   -3.1873    1.0499 H   0  0  0  0  0  0  0  0  0  0  0  0
   -2.3083   -3.6301   -0.6517 H   0  0  0  0  0  0  0  0  0  0  0  0
   -0.8209   -3.0992    0.0799 H   0  0  0  0  0  0  0  0  0  0  0  0
    6.0077   -0.6292   -2.8223 H   0  0  0  0  0  0  0  0  0  0  0  0
    4.5987   -1.4193   -3.0289 H   0  0  0  0  0  0  0  0  0  0  0  0
   -6.1694    0.1444   -2.9174 H   0  0  0  0  0  0  0  0  0  0  0  0
   -7.2531    1.4265    1.0381 H   0  0  0  0  0  0  0  0  0  0  0  0
   -7.9036    0.8250   -1.2790 H   0  0  0  0  0  0  0  0  0  0  0  0
    3.8395    3.3397    0.0862 H   0  0  0  0  0  0  0  0  0  0  0  0
  1  6  1  0  0  0  0
  1 20  1  0  0  0  0
  2 21  1  0  0  0  0
  2 53  1  0  0  0  0
  3 21  2  0  0  0  0
  4 12  1  0  0  0  0
  4 48  1  0  0  0  0
  4 49  1  0  0  0  0
  5  6  1  0  0  0  0
  5  8  1  0  0  0  0
  5  9  1  0  0  0  0
  5 25  1  0  0  0  0
  6  7  1  0  0  0  0
  6 26  1  0  0  0  0
  7 10  1  0  0  0  0
  7 27  1  0  0  0  0
  7 28  1  0  0  0  0
  8 11  2  0  0  0  0
  8 29  1  0  0  0  0
  9 30  1  0  0  0  0
  9 31  1  0  0  0  0
  9 32  1  0  0  0  0
 10 16  2  0  0  0  0
 10 17  1  0  0  0  0
 11 14  1  0  0  0  0
 11 18  1  0  0  0  0
 12 13  1  0  0  0  0
 12 15  1  0  0  0  0
 12 33  1  0  0  0  0
 13 19  1  0  0  0  0
 13 21  1  0  0  0  0
 13 34  1  0  0  0  0
 14 15  2  0  0  0  0
 14 35  1  0  0  0  0
 15 36  1  0  0  0  0
 16 22  1  0  0  0  0
 16 37  1  0  0  0  0
 17 23  2  0  0  0  0
 17 38  1  0  0  0  0
 18 39  1  0  0  0  0
 18 40  1  0  0  0  0
 18 41  1  0  0  0  0
 19 42  1  0  0  0  0
 19 43  1  0  0  0  0
 19 44  1  0  0  0  0
 20 45  1  0  0  0  0
 20 46  1  0  0  0  0
 20 47  1  0  0  0  0
 22 24  2  0  0  0  0
 22 50  1  0  0  0  0
 23 24  1  0  0  0  0
 23 51  1  0  0  0  0
 24 52  1  0  0  0  0
M  END
> <DATABASE_ID>
DB01850

> <DATABASE_NAME>
drugbank

> <ORIGINAL_SOURCE>
PUBCHEM

> <ORIGINAL_SOURCE_URL>
https://pubchem.ncbi.nlm.nih.gov/rest/pug/compound/inchikey/HJVCHYDYCYBBQX-AWKNMOFVSA-N/SDF?record_type=3d

> <SMILES>
[H]\C(=C(\[H])[C@]([H])(N)[C@]([H])(C)C(O)=O)\C(\C)=C(/[H])[C@@]([H])(C)[C@@]([H])(CC1=CC=CC=C1)OC

> <INCHI_IDENTIFIER>
InChI=1S/C20H29NO3/c1-14(10-11-18(21)16(3)20(22)23)12-15(2)19(24-4)13-17-8-6-5-7-9-17/h5-12,15-16,18-19H,13,21H2,1-4H3,(H,22,23)/b11-10+,14-12+/t15-,16+,18+,19-/m1/s1

> <INCHI_KEY>
HJVCHYDYCYBBQX-AWKNMOFVSA-N

> <FORMULA>
C20H29NO3

> <MOLECULAR_WEIGHT>
331.4492

> <EXACT_MASS>
331.214743799

> <JCHEM_ACCEPTOR_COUNT>
4

> <JCHEM_AVERAGE_POLARIZABILITY>
38.149162828284034

> <JCHEM_BIOAVAILABILITY>
1

> <JCHEM_DONOR_COUNT>
2

> <JCHEM_FORMAL_CHARGE>
0

> <JCHEM_GHOSE_FILTER>
1

> <JCHEM_IUPAC>
(2S,3S,4E,6E,8R,9R)-3-amino-9-methoxy-2,6,8-trimethyl-10-phenyldeca-4,6-dienoic acid

> <ALOGPS_LOGP>
0.71

> <JCHEM_LOGP>
1.4064528216177834

> <ALOGPS_LOGS>
-4.61

> <JCHEM_MDDR_LIKE_RULE>
0

> <JCHEM_NUMBER_OF_RINGS>
1

> <JCHEM_PHYSIOLOGICAL_CHARGE>
0

> <JCHEM_PKA_STRONGEST_ACIDIC>
4.007927306128151

> <JCHEM_PKA_STRONGEST_BASIC>
10.009518149716884

> <JCHEM_POLAR_SURFACE_AREA>
72.55000000000001

> <JCHEM_REFRACTIVITY>
99.1746

> <JCHEM_ROTATABLE_BOND_COUNT>
9

> <JCHEM_RULE_OF_FIVE>
1

> <ALOGPS_SOLUBILITY>
8.13e-03 g/l

> <JCHEM_TRADITIONAL_IUPAC>
(2S,3S,4E,6E,8R,9R)-3-amino-9-methoxy-2,6,8-trimethyl-10-phenyldeca-4,6-dienoic acid

> <JCHEM_VEBER_RULE>
0

> <DRUGBANK_ID>
DB01850

> <SECONDARY_ACCESSION_NUMBERS>
EXPT02162

> <DRUG_GROUPS>
experimental

> <GENERIC_NAME>
(2s,3s,8s,9s)-3-Amino-9-Methoxy-2,6,8-Trimethyl-10-Phenyldeca-4,6-Dienoic Acid

$$$$
