4469371
  -OEChem-10051719393D

 17 18  0     0  0  0  0  0  0999 V2000
    1.1644   -1.2177   -0.2329 N   0  0  0  0  0  0  0  0  0  0  0  0
    1.1645    1.2177   -0.2331 N   0  0  0  0  0  0  0  0  0  0  0  0
    3.1036    0.0003    0.6473 N   0  0  0  0  0  0  0  0  0  0  0  0
    2.0163   -0.0004   -0.3305 C   0  0  0  0  0  0  0  0  0  0  0  0
   -0.0241   -0.7391   -0.1068 C   0  0  0  0  0  0  0  0  0  0  0  0
   -0.0240    0.7392   -0.1069 C   0  0  0  0  0  0  0  0  0  0  0  0
   -1.2940   -1.4607    0.0306 C   0  0  0  0  0  0  0  0  0  0  0  0
   -1.2940    1.4608    0.0306 C   0  0  0  0  0  0  0  0  0  0  0  0
   -2.4064   -0.7242    0.1508 C   0  0  0  0  0  0  0  0  0  0  0  0
   -2.4064    0.7242    0.1508 C   0  0  0  0  0  0  0  0  0  0  0  0
    2.4711    0.0021   -1.3285 H   0  0  0  0  0  0  0  0  0  0  0  0
   -1.3025   -2.5424    0.0319 H   0  0  0  0  0  0  0  0  0  0  0  0
   -1.3026    2.5426    0.0319 H   0  0  0  0  0  0  0  0  0  0  0  0
   -3.3695   -1.2140    0.2552 H   0  0  0  0  0  0  0  0  0  0  0  0
   -3.3696    1.2140    0.2551 H   0  0  0  0  0  0  0  0  0  0  0  0
    3.6403   -0.8603    0.5470 H   0  0  0  0  0  0  0  0  0  0  0  0
    2.7030   -0.0238    1.5840 H   0  0  0  0  0  0  0  0  0  0  0  0
  1  4  1  0  0  0  0
  1  5  2  0  0  0  0
  2  4  1  0  0  0  0
  2  6  2  0  0  0  0
  3  4  1  0  0  0  0
  3 16  1  0  0  0  0
  3 17  1  0  0  0  0
  4 11  1  0  0  0  0
  5  6  1  0  0  0  0
  5  7  1  0  0  0  0
  6  8  1  0  0  0  0
  7  9  2  0  0  0  0
  7 12  1  0  0  0  0
  8 10  2  0  0  0  0
  8 13  1  0  0  0  0
  9 10  1  0  0  0  0
  9 14  1  0  0  0  0
 10 15  1  0  0  0  0
M  END
> <DATABASE_ID>
DB01665

> <DATABASE_NAME>
drugbank

> <ORIGINAL_SOURCE>
PUBCHEM

> <ORIGINAL_SOURCE_URL>
https://pubchem.ncbi.nlm.nih.gov/rest/pug/compound/inchikey/DERVZEOWPBCBHO-UHFFFAOYSA-N/SDF?record_type=3d

> <SMILES>
NC1N=C2C=CC=CC2=N1

> <INCHI_IDENTIFIER>
InChI=1S/C7H7N3/c8-7-9-5-3-1-2-4-6(5)10-7/h1-4,7H,8H2

> <INCHI_KEY>
DERVZEOWPBCBHO-UHFFFAOYSA-N

> <FORMULA>
C7H7N3

> <MOLECULAR_WEIGHT>
133.1506

> <EXACT_MASS>
133.063997239

> <JCHEM_ACCEPTOR_COUNT>
3

> <JCHEM_AVERAGE_POLARIZABILITY>
13.595213054526441

> <JCHEM_BIOAVAILABILITY>
1

> <JCHEM_DONOR_COUNT>
1

> <JCHEM_FORMAL_CHARGE>
0

> <JCHEM_GHOSE_FILTER>
0

> <JCHEM_IUPAC>
2H-1,3-benzodiazol-2-amine

> <ALOGPS_LOGP>
-0.19

> <JCHEM_LOGP>
1.5455018169999994

> <ALOGPS_LOGS>
-1.83

> <JCHEM_MDDR_LIKE_RULE>
0

> <JCHEM_NUMBER_OF_RINGS>
2

> <JCHEM_PHYSIOLOGICAL_CHARGE>
0

> <JCHEM_PKA_STRONGEST_ACIDIC>
14.858231335171197

> <JCHEM_PKA_STRONGEST_BASIC>
3.287780624276035

> <JCHEM_POLAR_SURFACE_AREA>
50.739999999999995

> <JCHEM_REFRACTIVITY>
41.3063

> <JCHEM_ROTATABLE_BOND_COUNT>
0

> <JCHEM_RULE_OF_FIVE>
1

> <ALOGPS_SOLUBILITY>
1.95e+00 g/l

> <JCHEM_TRADITIONAL_IUPAC>
2H-benzoimidazol-2-ylamine

> <JCHEM_VEBER_RULE>
0

> <DRUGBANK_ID>
DB01665

> <SECONDARY_ACCESSION_NUMBERS>
EXPT00097

> <DRUG_GROUPS>
experimental

> <GENERIC_NAME>
2H-Benzimidazol-2-amine

> <SYNONYMS>
2H-Benzoimidazol-2-ylamine

$$$$
