5284596
  -OEChem-10301717463D

 45 49  0     1  0  0  0  0  0999 V2000
   -2.3481   -0.0431   -1.4754 O   0  0  0  0  0  0  0  0  0  0  0  0
    1.0921    2.6455   -0.1296 O   0  0  0  0  0  0  0  0  0  0  0  0
   -3.6117    1.9732   -0.1866 O   0  0  0  0  0  0  0  0  0  0  0  0
   -3.6888   -2.5505   -0.8043 O   0  0  0  0  0  0  0  0  0  0  0  0
    2.6104    0.3444    0.0358 N   0  0  2  0  0  0  0  0  0  0  0  0
   -0.2097    0.6516   -0.5852 C   0  0  1  0  0  0  0  0  0  0  0  0
    0.4832    1.5008    0.4907 C   0  0  1  0  0  0  0  0  0  0  0  0
    1.6095    0.6012    1.1041 C   0  0  1  0  0  0  0  0  0  0  0  0
   -1.5552    1.1417   -1.1443 C   0  0  2  0  0  0  0  0  0  0  0  0
    0.8033    0.2982   -1.6997 C   0  0  0  0  0  0  0  0  0  0  0  0
   -0.7182   -0.6102    0.0221 C   0  0  0  0  0  0  0  0  0  0  0  0
   -0.5179    2.0544    1.5203 C   0  0  0  0  0  0  0  0  0  0  0  0
    1.0363   -0.6938    1.7816 C   0  0  0  0  0  0  0  0  0  0  0  0
    2.0809   -0.3545   -1.1396 C   0  0  0  0  0  0  0  0  0  0  0  0
   -0.1438   -1.3032    1.0706 C   0  0  0  0  0  0  0  0  0  0  0  0
   -1.6307    2.8400    0.8283 C   0  0  0  0  0  0  0  0  0  0  0  0
   -2.3803    1.9644   -0.1502 C   0  0  0  0  0  0  0  0  0  0  0  0
   -1.9039   -0.9850   -0.5767 C   0  0  0  0  0  0  0  0  0  0  0  0
    3.8375   -0.2778    0.5209 C   0  0  0  0  0  0  0  0  0  0  0  0
   -0.7726   -2.4861    1.4592 C   0  0  0  0  0  0  0  0  0  0  0  0
   -2.5321   -2.1555   -0.2190 C   0  0  0  0  0  0  0  0  0  0  0  0
   -1.9478   -2.9157    0.8047 C   0  0  0  0  0  0  0  0  0  0  0  0
    4.9109   -0.2685   -0.5237 C   0  0  0  0  0  0  0  0  0  0  0  0
    5.4967   -1.3713   -1.0038 C   0  0  0  0  0  0  0  0  0  0  0  0
    2.1228    1.1908    1.8758 H   0  0  0  0  0  0  0  0  0  0  0  0
   -1.4280    1.7467   -2.0492 H   0  0  0  0  0  0  0  0  0  0  0  0
    1.0771    1.2089   -2.2484 H   0  0  0  0  0  0  0  0  0  0  0  0
    0.3612   -0.3802   -2.4415 H   0  0  0  0  0  0  0  0  0  0  0  0
    0.0010    2.7299    2.2114 H   0  0  0  0  0  0  0  0  0  0  0  0
   -0.9628    1.2568    2.1247 H   0  0  0  0  0  0  0  0  0  0  0  0
    0.6971   -0.4147    2.7881 H   0  0  0  0  0  0  0  0  0  0  0  0
    1.8111   -1.4531    1.9226 H   0  0  0  0  0  0  0  0  0  0  0  0
    1.8849   -1.4094   -0.9097 H   0  0  0  0  0  0  0  0  0  0  0  0
    2.8058   -0.3502   -1.9618 H   0  0  0  0  0  0  0  0  0  0  0  0
   -1.2537    3.7187    0.2966 H   0  0  0  0  0  0  0  0  0  0  0  0
   -2.3389    3.1958    1.5854 H   0  0  0  0  0  0  0  0  0  0  0  0
    0.4687    3.0200   -0.7739 H   0  0  0  0  0  0  0  0  0  0  0  0
    3.6603   -1.3031    0.8655 H   0  0  0  0  0  0  0  0  0  0  0  0
    4.2223    0.2844    1.3808 H   0  0  0  0  0  0  0  0  0  0  0  0
   -0.3739   -3.0765    2.2798 H   0  0  0  0  0  0  0  0  0  0  0  0
   -2.4203   -3.8410    1.1268 H   0  0  0  0  0  0  0  0  0  0  0  0
    5.2369    0.6979   -0.9009 H   0  0  0  0  0  0  0  0  0  0  0  0
   -3.9331   -1.8900   -1.4759 H   0  0  0  0  0  0  0  0  0  0  0  0
    6.2734   -1.2967   -1.7570 H   0  0  0  0  0  0  0  0  0  0  0  0
    5.2143   -2.3600   -0.6597 H   0  0  0  0  0  0  0  0  0  0  0  0
  1  9  1  0  0  0  0
  1 18  1  0  0  0  0
  2  7  1  0  0  0  0
  2 37  1  0  0  0  0
  3 17  2  0  0  0  0
  4 21  1  0  0  0  0
  4 43  1  0  0  0  0
  5  8  1  0  0  0  0
  5 14  1  0  0  0  0
  5 19  1  0  0  0  0
  6  7  1  0  0  0  0
  6  9  1  0  0  0  0
  6 10  1  0  0  0  0
  6 11  1  0  0  0  0
  7  8  1  0  0  0  0
  7 12  1  0  0  0  0
  8 13  1  0  0  0  0
  8 25  1  0  0  0  0
  9 17  1  0  0  0  0
  9 26  1  0  0  0  0
 10 14  1  0  0  0  0
 10 27  1  0  0  0  0
 10 28  1  0  0  0  0
 11 15  2  0  0  0  0
 11 18  1  0  0  0  0
 12 16  1  0  0  0  0
 12 29  1  0  0  0  0
 12 30  1  0  0  0  0
 13 15  1  0  0  0  0
 13 31  1  0  0  0  0
 13 32  1  0  0  0  0
 14 33  1  0  0  0  0
 14 34  1  0  0  0  0
 15 20  1  0  0  0  0
 16 17  1  0  0  0  0
 16 35  1  0  0  0  0
 16 36  1  0  0  0  0
 18 21  2  0  0  0  0
 19 23  1  0  0  0  0
 19 38  1  0  0  0  0
 19 39  1  0  0  0  0
 20 22  2  0  0  0  0
 20 40  1  0  0  0  0
 21 22  1  0  0  0  0
 22 41  1  0  0  0  0
 23 24  2  0  0  0  0
 23 42  1  0  0  0  0
 24 44  1  0  0  0  0
 24 45  1  0  0  0  0
M  END
> <DATABASE_ID>
DB01183

> <DATABASE_NAME>
drugbank

> <ORIGINAL_SOURCE>
PUBCHEM

> <ORIGINAL_SOURCE_URL>
https://pubchem.ncbi.nlm.nih.gov/rest/pug/compound/inchikey/UZHSEJADLWPNLE-GRGSLBFTSA-N/SDF?record_type=3d

> <SMILES>
OC1=CC=C2C[C@H]3N(CC=C)CC[C@@]45[C@@H](OC1=C24)C(=O)CC[C@@]35O

> <INCHI_IDENTIFIER>
InChI=1S/C19H21NO4/c1-2-8-20-9-7-18-15-11-3-4-12(21)16(15)24-17(18)13(22)5-6-19(18,23)14(20)10-11/h2-4,14,17,21,23H,1,5-10H2/t14-,17+,18+,19-/m1/s1

> <INCHI_KEY>
UZHSEJADLWPNLE-GRGSLBFTSA-N

> <FORMULA>
C19H21NO4

> <MOLECULAR_WEIGHT>
327.3743

> <EXACT_MASS>
327.147058165

> <JCHEM_ACCEPTOR_COUNT>
5

> <JCHEM_ATOM_COUNT>
45

> <JCHEM_AVERAGE_POLARIZABILITY>
33.828785511966494

> <JCHEM_BIOAVAILABILITY>
1

> <JCHEM_DONOR_COUNT>
2

> <JCHEM_FORMAL_CHARGE>
0

> <JCHEM_GHOSE_FILTER>
1

> <JCHEM_IUPAC>
(1S,5R,13R,17S)-10,17-dihydroxy-4-(prop-2-en-1-yl)-12-oxa-4-azapentacyclo[9.6.1.0^{1,13}.0^{5,17}.0^{7,18}]octadeca-7(18),8,10-trien-14-one

> <ALOGPS_LOGP>
1.47

> <JCHEM_LOGP>
1.620221160000001

> <ALOGPS_LOGS>
-1.76

> <JCHEM_MDDR_LIKE_RULE>
0

> <JCHEM_NUMBER_OF_RINGS>
5

> <JCHEM_PHYSIOLOGICAL_CHARGE>
1

> <JCHEM_PKA>
13.58559645438904

> <JCHEM_PKA_STRONGEST_ACIDIC>
10.066372343167222

> <JCHEM_PKA_STRONGEST_BASIC>
7.838895733634625

> <JCHEM_POLAR_SURFACE_AREA>
70.0

> <JCHEM_REFRACTIVITY>
88.72220000000002

> <JCHEM_ROTATABLE_BOND_COUNT>
2

> <JCHEM_RULE_OF_FIVE>
1

> <ALOGPS_SOLUBILITY>
5.64e+00 g/l

> <JCHEM_TRADITIONAL_IUPAC>
(1S,5R,13R,17S)-10,17-dihydroxy-4-(prop-2-en-1-yl)-12-oxa-4-azapentacyclo[9.6.1.0^{1,13}.0^{5,17}.0^{7,18}]octadeca-7(18),8,10-trien-14-one

> <JCHEM_VEBER_RULE>
0

> <DRUGBANK_ID>
DB01183

> <SECONDARY_ACCESSION_NUMBERS>
APRD00025

> <DRUG_GROUPS>
approved; vet_approved

> <GENERIC_NAME>
Naloxone

> <SYNONYMS>
(−)-naloxone; 1-N-Allyl-14-hydroxynordihydromorphinone; 17-allyl-3,14-dihydroxy-4,5α-epoxymorphinan-6-one; Nalossone; Naloxona; Naloxone; Naloxonum

> <PRODUCTS>
Act Buprenorphine/naloxone; Bunavail; Buprenorphine HCl and Naloxone HCl; Buprenorphine Hydrochloride and Naloxone Hydrochloride Dihydrate; Buprenorphine and Naloxone; Buprenorphine and Naloxone Sublingual Film; Evzio; Injectable Naloxone Hydrochloride; Mylan-buprenorphine/naloxone; Naloxone HCl; Naloxone HCl Injection - 0.4mg/ml USP; Naloxone HCl Injection - 1mg/ml USP; Naloxone Hci; Naloxone Hydrochloride; Naloxone Hydrochloride Fine; Naloxone Hydrochloride Injection; Naloxone Hydrochloride Injection Sdz Preservative Free; Naloxone Hydrochloride Injection USP; Naloxone Hydrochloride Injection, USP; Naloxone Injectable; Narcan; Narcan Injection 0.02mg/ml; Narcan Injection 0.4mg/ml; Narcan Injection 1mg/ml; Narcan Naloxone Hci; Narcan Nasal Spray; PMS-buprenorphine-naloxone; Pentazocine HCl and Naloxone HCl; Pentazocine Hydrochloride and Naloxone Hydrochloride; Pentazocine and Naloxone; Pentazocine and naloxone; Pentazocine and naloxone hydrochlorides; S.O.S. Naloxone Hydrochloride Injection; Suboxone; TALWIN Nx; Targin; Targiniq ER; Zubsolv

> <INTERNATIONAL_BRANDS>
Narcanti; Narcon

> <SALTS>
Naloxone hydrochloride; Naloxone hydrochloride dihydrate

$$$$
