5310966
  -OEChem-10051719333D

 29 32  0     1  0  0  0  0  0999 V2000
   -2.7924   -0.0002    1.5767 N   0  0  0  0  0  0  0  0  0  0  0  0
    2.7467   -1.3915    0.1005 N   0  0  0  0  0  0  0  0  0  0  0  0
    2.7468    1.3914    0.1003 N   0  0  0  0  0  0  0  0  0  0  0  0
   -2.1833   -1.1879   -0.5652 C   0  0  1  0  0  0  0  0  0  0  0  0
   -2.1833    1.1881   -0.5648 C   0  0  2  0  0  0  0  0  0  0  0  0
   -2.7497    0.0003   -1.3629 C   0  0  0  0  0  0  0  0  0  0  0  0
   -0.7651   -0.6994   -0.4032 C   0  0  0  0  0  0  0  0  0  0  0  0
   -0.7651    0.6995   -0.4030 C   0  0  0  0  0  0  0  0  0  0  0  0
   -2.9145   -1.2400    0.7924 C   0  0  0  0  0  0  0  0  0  0  0  0
   -2.9142    1.2398    0.7926 C   0  0  0  0  0  0  0  0  0  0  0  0
    0.4057   -1.4073   -0.2298 C   0  0  0  0  0  0  0  0  0  0  0  0
    0.4058    1.4073   -0.2295 C   0  0  0  0  0  0  0  0  0  0  0  0
    1.6013   -0.7098   -0.0633 C   0  0  0  0  0  0  0  0  0  0  0  0
    1.6013    0.7097   -0.0633 C   0  0  0  0  0  0  0  0  0  0  0  0
    3.8800   -0.6849    0.2613 C   0  0  0  0  0  0  0  0  0  0  0  0
    3.8801    0.6849    0.2614 C   0  0  0  0  0  0  0  0  0  0  0  0
   -2.2534   -2.1266   -1.1215 H   0  0  0  0  0  0  0  0  0  0  0  0
   -2.2532    2.1270   -1.1209 H   0  0  0  0  0  0  0  0  0  0  0  0
   -2.3648    0.0004   -2.3926 H   0  0  0  0  0  0  0  0  0  0  0  0
   -3.8440    0.0004   -1.4142 H   0  0  0  0  0  0  0  0  0  0  0  0
   -3.9767   -1.4551    0.6239 H   0  0  0  0  0  0  0  0  0  0  0  0
   -2.5099   -2.0609    1.3952 H   0  0  0  0  0  0  0  0  0  0  0  0
   -2.5096    2.0606    1.3957 H   0  0  0  0  0  0  0  0  0  0  0  0
   -3.9764    1.4551    0.6242 H   0  0  0  0  0  0  0  0  0  0  0  0
   -3.4569   -0.0001    2.3487 H   0  0  0  0  0  0  0  0  0  0  0  0
    0.3912   -2.4934   -0.2211 H   0  0  0  0  0  0  0  0  0  0  0  0
    0.3913    2.4934   -0.2206 H   0  0  0  0  0  0  0  0  0  0  0  0
    4.7877   -1.2607    0.3906 H   0  0  0  0  0  0  0  0  0  0  0  0
    4.7879    1.2606    0.3906 H   0  0  0  0  0  0  0  0  0  0  0  0
  1  9  1  0  0  0  0
  1 10  1  0  0  0  0
  1 25  1  0  0  0  0
  2 13  2  0  0  0  0
  2 15  1  0  0  0  0
  3 14  2  0  0  0  0
  3 16  1  0  0  0  0
  4  6  1  0  0  0  0
  4  7  1  0  0  0  0
  4  9  1  0  0  0  0
  4 17  1  0  0  0  0
  5  6  1  0  0  0  0
  5  8  1  0  0  0  0
  5 10  1  0  0  0  0
  5 18  1  0  0  0  0
  6 19  1  0  0  0  0
  6 20  1  0  0  0  0
  7  8  1  0  0  0  0
  7 11  2  0  0  0  0
  8 12  2  0  0  0  0
  9 21  1  0  0  0  0
  9 22  1  0  0  0  0
 10 23  1  0  0  0  0
 10 24  1  0  0  0  0
 11 13  1  0  0  0  0
 11 26  1  0  0  0  0
 12 14  1  0  0  0  0
 12 27  1  0  0  0  0
 13 14  1  0  0  0  0
 15 16  2  0  0  0  0
 15 28  1  0  0  0  0
 16 29  1  0  0  0  0
M  END
> <DATABASE_ID>
DB01273

> <DATABASE_NAME>
drugbank

> <ORIGINAL_SOURCE>
PUBCHEM

> <ORIGINAL_SOURCE_URL>
https://pubchem.ncbi.nlm.nih.gov/rest/pug/compound/inchikey/JQSHBVHOMNKWFT-DTORHVGOSA-N/SDF?record_type=3d

> <SMILES>
[H][C@]12C[C@]([H])(CNC1)C1=CC3=NC=CN=C3C=C21

> <INCHI_IDENTIFIER>
InChI=1S/C13H13N3/c1-2-16-13-5-11-9-3-8(6-14-7-9)10(11)4-12(13)15-1/h1-2,4-5,8-9,14H,3,6-7H2/t8-,9+

> <INCHI_KEY>
JQSHBVHOMNKWFT-DTORHVGOSA-N

> <FORMULA>
C13H13N3

> <MOLECULAR_WEIGHT>
211.2624

> <EXACT_MASS>
211.110947431

> <JCHEM_ACCEPTOR_COUNT>
3

> <JCHEM_AVERAGE_POLARIZABILITY>
23.11535472093646

> <JCHEM_BIOAVAILABILITY>
1

> <JCHEM_DONOR_COUNT>
1

> <JCHEM_FORMAL_CHARGE>
0

> <JCHEM_GHOSE_FILTER>
1

> <JCHEM_IUPAC>
(1R,12S)-5,8,14-triazatetracyclo[10.3.1.0²,¹¹.0⁴,⁹]hexadeca-2,4,6,8,10-pentaene

> <ALOGPS_LOGP>
1.39

> <JCHEM_LOGP>
1.0076279959999996

> <ALOGPS_LOGS>
-3.38

> <JCHEM_MDDR_LIKE_RULE>
0

> <JCHEM_NUMBER_OF_RINGS>
4

> <JCHEM_PHYSIOLOGICAL_CHARGE>
1

> <JCHEM_PKA_STRONGEST_BASIC>
9.726333010947785

> <JCHEM_POLAR_SURFACE_AREA>
37.81

> <JCHEM_REFRACTIVITY>
61.30300000000001

> <JCHEM_ROTATABLE_BOND_COUNT>
0

> <JCHEM_RULE_OF_FIVE>
1

> <ALOGPS_SOLUBILITY>
8.77e-02 g/l

> <JCHEM_TRADITIONAL_IUPAC>
chantix

> <JCHEM_VEBER_RULE>
1

> <DRUGBANK_ID>
DB01273

> <DRUG_GROUPS>
approved; investigational

> <GENERIC_NAME>
Varenicline

> <SYNONYMS>
vareniclina; Varenicline

> <PRODUCTS>
Apo-varenicline; Champix; Chantix; Gd-varenicline; PMS-varenicline; Teva-varenicline

> <SALTS>
Varenicline tartrate

$$$$
