61306
  -OEChem-10051719363D

 57 59  0     1  0  0  0  0  0999 V2000
   -4.3147    1.5807   -0.5165 O   0  0  0  0  0  0  0  0  0  0  0  0
    4.0773   -0.1340   -0.0872 O   0  0  0  0  0  0  0  0  0  0  0  0
    6.7703   -0.5203    0.6887 O   0  0  0  0  0  0  0  0  0  0  0  0
   -3.8112    2.0473    1.6893 O   0  0  0  0  0  0  0  0  0  0  0  0
    0.4795    0.2703    0.6036 N   0  0  0  0  0  0  0  0  0  0  0  0
   -2.4958    0.4402    0.4439 C   0  0  0  0  0  0  0  0  0  0  0  0
   -1.6931    0.3510    1.7695 C   0  0  0  0  0  0  0  0  0  0  0  0
   -1.5355    1.0519   -0.6116 C   0  0  0  0  0  0  0  0  0  0  0  0
   -0.3651   -0.3931    1.6028 C   0  0  0  0  0  0  0  0  0  0  0  0
   -0.1871    0.3249   -0.7021 C   0  0  0  0  0  0  0  0  0  0  0  0
   -3.1514   -0.8958    0.0645 C   0  0  0  0  0  0  0  0  0  0  0  0
    1.7726   -0.4037    0.4932 C   0  0  0  0  0  0  0  0  0  0  0  0
   -3.6051    1.4515    0.6406 C   0  0  0  0  0  0  0  0  0  0  0  0
    2.8373    0.5569   -0.0121 C   0  0  0  0  0  0  0  0  0  0  0  0
   -4.0513   -1.5043    0.9396 C   0  0  0  0  0  0  0  0  0  0  0  0
   -2.8474   -1.5006   -1.1551 C   0  0  0  0  0  0  0  0  0  0  0  0
    6.4061   -0.0846   -0.6319 C   0  0  2  0  0  0  0  0  0  0  0  0
    7.5858    0.7178   -1.1530 C   0  0  0  0  0  0  0  0  0  0  0  0
    5.1139    0.7068   -0.5750 C   0  0  0  0  0  0  0  0  0  0  0  0
    8.7459   -0.0055   -0.5163 C   0  0  0  0  0  0  0  0  0  0  0  0
    8.1871   -0.3538    0.8470 C   0  0  0  0  0  0  0  0  0  0  0  0
   -4.6471   -2.7176    0.5951 C   0  0  0  0  0  0  0  0  0  0  0  0
   -3.4433   -2.7139   -1.4996 C   0  0  0  0  0  0  0  0  0  0  0  0
   -4.3431   -3.3223   -0.6243 C   0  0  0  0  0  0  0  0  0  0  0  0
   -5.4011    2.5111   -0.4709 C   0  0  0  0  0  0  0  0  0  0  0  0
   -6.0834    2.5391   -1.8221 C   0  0  0  0  0  0  0  0  0  0  0  0
   -1.4655    1.3602    2.1432 H   0  0  0  0  0  0  0  0  0  0  0  0
   -2.2749   -0.1320    2.5638 H   0  0  0  0  0  0  0  0  0  0  0  0
   -1.9954    1.0991   -1.6069 H   0  0  0  0  0  0  0  0  0  0  0  0
   -1.3333    2.1011   -0.3470 H   0  0  0  0  0  0  0  0  0  0  0  0
   -0.5464   -1.4420    1.3356 H   0  0  0  0  0  0  0  0  0  0  0  0
    0.1415   -0.3899    2.5759 H   0  0  0  0  0  0  0  0  0  0  0  0
    0.4268    0.8863   -1.4156 H   0  0  0  0  0  0  0  0  0  0  0  0
   -0.2921   -0.6826   -1.1144 H   0  0  0  0  0  0  0  0  0  0  0  0
    1.7254   -1.3056   -0.1313 H   0  0  0  0  0  0  0  0  0  0  0  0
    2.1095   -0.7559    1.4782 H   0  0  0  0  0  0  0  0  0  0  0  0
    2.5864    0.9372   -1.0080 H   0  0  0  0  0  0  0  0  0  0  0  0
    2.9358    1.4078    0.6732 H   0  0  0  0  0  0  0  0  0  0  0  0
    6.2636   -0.9944   -1.2284 H   0  0  0  0  0  0  0  0  0  0  0  0
   -4.3094   -1.0482    1.8912 H   0  0  0  0  0  0  0  0  0  0  0  0
   -2.1952   -1.0587   -1.8969 H   0  0  0  0  0  0  0  0  0  0  0  0
    7.6346    0.7410   -2.2451 H   0  0  0  0  0  0  0  0  0  0  0  0
    7.5517    1.7515   -0.7879 H   0  0  0  0  0  0  0  0  0  0  0  0
    5.2238    1.5585    0.1069 H   0  0  0  0  0  0  0  0  0  0  0  0
    4.8538    1.0755   -1.5739 H   0  0  0  0  0  0  0  0  0  0  0  0
    8.9649   -0.9223   -1.0764 H   0  0  0  0  0  0  0  0  0  0  0  0
    9.6610    0.5899   -0.4633 H   0  0  0  0  0  0  0  0  0  0  0  0
    8.3482    0.4608    1.5609 H   0  0  0  0  0  0  0  0  0  0  0  0
    8.6224   -1.2691    1.2578 H   0  0  0  0  0  0  0  0  0  0  0  0
   -5.3496   -3.1902    1.2753 H   0  0  0  0  0  0  0  0  0  0  0  0
   -3.2156   -3.1804   -2.4536 H   0  0  0  0  0  0  0  0  0  0  0  0
   -4.8094   -4.2654   -0.8939 H   0  0  0  0  0  0  0  0  0  0  0  0
   -6.1162    2.1994    0.2985 H   0  0  0  0  0  0  0  0  0  0  0  0
   -5.0175    3.5085   -0.2289 H   0  0  0  0  0  0  0  0  0  0  0  0
   -6.9213    3.2417   -1.8230 H   0  0  0  0  0  0  0  0  0  0  0  0
   -6.4556    1.5437   -2.0860 H   0  0  0  0  0  0  0  0  0  0  0  0
   -5.3755    2.8313   -2.6049 H   0  0  0  0  0  0  0  0  0  0  0  0
  1 13  1  0  0  0  0
  1 25  1  0  0  0  0
  2 14  1  0  0  0  0
  2 19  1  0  0  0  0
  3 17  1  0  0  0  0
  3 21  1  0  0  0  0
  4 13  2  0  0  0  0
  5  9  1  0  0  0  0
  5 10  1  0  0  0  0
  5 12  1  0  0  0  0
  6  7  1  0  0  0  0
  6  8  1  0  0  0  0
  6 11  1  0  0  0  0
  6 13  1  0  0  0  0
  7  9  1  0  0  0  0
  7 27  1  0  0  0  0
  7 28  1  0  0  0  0
  8 10  1  0  0  0  0
  8 29  1  0  0  0  0
  8 30  1  0  0  0  0
  9 31  1  0  0  0  0
  9 32  1  0  0  0  0
 10 33  1  0  0  0  0
 10 34  1  0  0  0  0
 11 15  2  0  0  0  0
 11 16  1  0  0  0  0
 12 14  1  0  0  0  0
 12 35  1  0  0  0  0
 12 36  1  0  0  0  0
 14 37  1  0  0  0  0
 14 38  1  0  0  0  0
 15 22  1  0  0  0  0
 15 40  1  0  0  0  0
 16 23  2  0  0  0  0
 16 41  1  0  0  0  0
 17 18  1  0  0  0  0
 17 19  1  0  0  0  0
 17 39  1  0  0  0  0
 18 20  1  0  0  0  0
 18 42  1  0  0  0  0
 18 43  1  0  0  0  0
 19 44  1  0  0  0  0
 19 45  1  0  0  0  0
 20 21  1  0  0  0  0
 20 46  1  0  0  0  0
 20 47  1  0  0  0  0
 21 48  1  0  0  0  0
 21 49  1  0  0  0  0
 22 24  2  0  0  0  0
 22 50  1  0  0  0  0
 23 24  1  0  0  0  0
 23 51  1  0  0  0  0
 24 52  1  0  0  0  0
 25 26  1  0  0  0  0
 25 53  1  0  0  0  0
 25 54  1  0  0  0  0
 26 55  1  0  0  0  0
 26 56  1  0  0  0  0
 26 57  1  0  0  0  0
M  END
> <DATABASE_ID>
DB01464

> <DATABASE_NAME>
drugbank

> <ORIGINAL_SOURCE>
PUBCHEM

> <ORIGINAL_SOURCE_URL>
https://pubchem.ncbi.nlm.nih.gov/rest/pug/compound/inchikey/NNCOZXNZFLUYGG-UHFFFAOYSA-N/SDF?record_type=3d

> <SMILES>
CCOC(=O)C1(CCN(CCOCC2CCCO2)CC1)C1=CC=CC=C1

> <INCHI_IDENTIFIER>
InChI=1S/C21H31NO4/c1-2-25-20(23)21(18-7-4-3-5-8-18)10-12-22(13-11-21)14-16-24-17-19-9-6-15-26-19/h3-5,7-8,19H,2,6,9-17H2,1H3

> <INCHI_KEY>
NNCOZXNZFLUYGG-UHFFFAOYSA-N

> <FORMULA>
C21H31NO4

> <MOLECULAR_WEIGHT>
361.4751

> <EXACT_MASS>
361.225308485

> <JCHEM_ACCEPTOR_COUNT>
4

> <JCHEM_AVERAGE_POLARIZABILITY>
41.232768207676926

> <JCHEM_BIOAVAILABILITY>
1

> <JCHEM_DONOR_COUNT>
0

> <JCHEM_FORMAL_CHARGE>
0

> <JCHEM_GHOSE_FILTER>
1

> <JCHEM_IUPAC>
ethyl 1-[2-(oxolan-2-ylmethoxy)ethyl]-4-phenylpiperidine-4-carboxylate

> <ALOGPS_LOGP>
2.86

> <JCHEM_LOGP>
2.8274139159999994

> <ALOGPS_LOGS>
-3.87

> <JCHEM_MDDR_LIKE_RULE>
1

> <JCHEM_NUMBER_OF_RINGS>
3

> <JCHEM_PHYSIOLOGICAL_CHARGE>
1

> <JCHEM_PKA_STRONGEST_BASIC>
7.984128725172105

> <JCHEM_POLAR_SURFACE_AREA>
48.00000000000001

> <JCHEM_REFRACTIVITY>
101.78190000000001

> <JCHEM_ROTATABLE_BOND_COUNT>
9

> <JCHEM_RULE_OF_FIVE>
1

> <ALOGPS_SOLUBILITY>
4.85e-02 g/l

> <JCHEM_TRADITIONAL_IUPAC>
furethidine

> <JCHEM_VEBER_RULE>
0

> <DRUGBANK_ID>
DB01464

> <DRUG_GROUPS>
experimental; illicit

> <GENERIC_NAME>
Furethidine

$$$$
