447229
  -OEChem-10051720053D

 49 51  0     1  0  0  0  0  0999 V2000
   -2.1136   -2.7051   -0.2953 O   0  0  0  0  0  0  0  0  0  0  0  0
   -5.2506    0.9135   -0.3178 O   0  0  0  0  0  0  0  0  0  0  0  0
   -4.6078   -1.7020   -0.9625 O   0  0  0  0  0  0  0  0  0  0  0  0
   -0.0394    2.2686    0.7187 N   0  0  3  0  0  0  0  0  0  0  0  0
    2.8234    1.5857   -1.5066 N   0  0  0  0  0  0  0  0  0  0  0  0
    4.5800    0.0831   -1.3709 N   0  0  0  0  0  0  0  0  0  0  0  0
    4.7968   -1.4348    0.4860 N   0  0  0  0  0  0  0  0  0  0  0  0
    3.2056   -1.4191    2.2178 N   0  0  0  0  0  0  0  0  0  0  0  0
    6.3690   -1.4316   -1.2491 N   0  0  0  0  0  0  0  0  0  0  0  0
   -0.8541    1.5681    1.6976 C   0  0  0  0  0  0  0  0  0  0  0  0
   -1.8506    0.7000    0.9917 C   0  0  0  0  0  0  0  0  0  0  0  0
    1.1345    1.6880    0.2173 C   0  0  0  0  0  0  0  0  0  0  0  0
   -3.1010    1.2127    0.6610 C   0  0  0  0  0  0  0  0  0  0  0  0
   -1.5187   -0.6131    0.6724 C   0  0  0  0  0  0  0  0  0  0  0  0
   -0.4743    3.5775    0.2601 C   0  0  0  0  0  0  0  0  0  0  0  0
    1.7864    0.6743    0.8972 C   0  0  0  0  0  0  0  0  0  0  0  0
   -2.4467   -1.4214    0.0159 C   0  0  0  0  0  0  0  0  0  0  0  0
   -4.0291    0.4041    0.0045 C   0  0  0  0  0  0  0  0  0  0  0  0
    2.9599    0.1240    0.3612 C   0  0  0  0  0  0  0  0  0  0  0  0
   -3.7018   -0.9128   -0.3181 C   0  0  0  0  0  0  0  0  0  0  0  0
    1.6913    2.1047   -0.9732 C   0  0  0  0  0  0  0  0  0  0  0  0
    3.4611    0.6037   -0.8546 C   0  0  0  0  0  0  0  0  0  0  0  0
    3.6717   -0.8973    0.9857 C   0  0  0  0  0  0  0  0  0  0  0  0
    5.1892   -0.9037   -0.6805 C   0  0  0  0  0  0  0  0  0  0  0  0
   -0.8106   -3.1462    0.0816 C   0  0  0  0  0  0  0  0  0  0  0  0
   -5.3746    1.5438   -1.5913 C   0  0  0  0  0  0  0  0  0  0  0  0
   -5.4960   -2.4646   -0.1488 C   0  0  0  0  0  0  0  0  0  0  0  0
   -1.3995    2.2992    2.3113 H   0  0  0  0  0  0  0  0  0  0  0  0
   -0.2977    1.0023    2.4503 H   0  0  0  0  0  0  0  0  0  0  0  0
   -3.3625    2.2381    0.9099 H   0  0  0  0  0  0  0  0  0  0  0  0
   -0.5377   -0.9633    0.9683 H   0  0  0  0  0  0  0  0  0  0  0  0
   -0.8661    3.5206   -0.7613 H   0  0  0  0  0  0  0  0  0  0  0  0
    0.3483    4.3008    0.2905 H   0  0  0  0  0  0  0  0  0  0  0  0
   -1.2733    3.9837    0.8901 H   0  0  0  0  0  0  0  0  0  0  0  0
    1.4193    0.3084    1.8460 H   0  0  0  0  0  0  0  0  0  0  0  0
    1.2510    2.8857   -1.5844 H   0  0  0  0  0  0  0  0  0  0  0  0
    2.7947   -0.7813    2.8877 H   0  0  0  0  0  0  0  0  0  0  0  0
    3.7501   -2.1823    2.6033 H   0  0  0  0  0  0  0  0  0  0  0  0
   -0.6823   -3.1440    1.1695 H   0  0  0  0  0  0  0  0  0  0  0  0
   -0.0268   -2.5792   -0.4327 H   0  0  0  0  0  0  0  0  0  0  0  0
   -0.7157   -4.1866   -0.2466 H   0  0  0  0  0  0  0  0  0  0  0  0
   -6.4052    1.8916   -1.7025 H   0  0  0  0  0  0  0  0  0  0  0  0
   -4.7045    2.4068   -1.6586 H   0  0  0  0  0  0  0  0  0  0  0  0
   -5.1559    0.8343   -2.3955 H   0  0  0  0  0  0  0  0  0  0  0  0
   -6.1123   -1.8059    0.4710 H   0  0  0  0  0  0  0  0  0  0  0  0
   -4.9369   -3.1609    0.4844 H   0  0  0  0  0  0  0  0  0  0  0  0
   -6.1529   -3.0408   -0.8059 H   0  0  0  0  0  0  0  0  0  0  0  0
    6.7056   -1.0624   -2.1276 H   0  0  0  0  0  0  0  0  0  0  0  0
    6.8635   -2.1715   -0.7702 H   0  0  0  0  0  0  0  0  0  0  0  0
  1 17  1  0  0  0  0
  1 25  1  0  0  0  0
  2 18  1  0  0  0  0
  2 26  1  0  0  0  0
  3 20  1  0  0  0  0
  3 27  1  0  0  0  0
  4 10  1  0  0  0  0
  4 12  1  0  0  0  0
  4 15  1  0  0  0  0
  5 21  2  0  0  0  0
  5 22  1  0  0  0  0
  6 22  2  0  0  0  0
  6 24  1  0  0  0  0
  7 23  1  0  0  0  0
  7 24  2  0  0  0  0
  8 23  1  0  0  0  0
  8 37  1  0  0  0  0
  8 38  1  0  0  0  0
  9 24  1  0  0  0  0
  9 48  1  0  0  0  0
  9 49  1  0  0  0  0
 10 11  1  0  0  0  0
 10 28  1  0  0  0  0
 10 29  1  0  0  0  0
 11 13  2  0  0  0  0
 11 14  1  0  0  0  0
 12 16  2  0  0  0  0
 12 21  1  0  0  0  0
 13 18  1  0  0  0  0
 13 30  1  0  0  0  0
 14 17  2  0  0  0  0
 14 31  1  0  0  0  0
 15 32  1  0  0  0  0
 15 33  1  0  0  0  0
 15 34  1  0  0  0  0
 16 19  1  0  0  0  0
 16 35  1  0  0  0  0
 17 20  1  0  0  0  0
 18 20  2  0  0  0  0
 19 22  1  0  0  0  0
 19 23  2  0  0  0  0
 21 36  1  0  0  0  0
 25 39  1  0  0  0  0
 25 40  1  0  0  0  0
 25 41  1  0  0  0  0
 26 42  1  0  0  0  0
 26 43  1  0  0  0  0
 26 44  1  0  0  0  0
 27 45  1  0  0  0  0
 27 46  1  0  0  0  0
 27 47  1  0  0  0  0
M  END
> <DATABASE_ID>
DB02919

> <DATABASE_NAME>
drugbank

> <ORIGINAL_SOURCE>
PUBCHEM

> <ORIGINAL_SOURCE_URL>
https://pubchem.ncbi.nlm.nih.gov/rest/pug/compound/inchikey/PUOZHLHNKHRTOW-UHFFFAOYSA-N/SDF?record_type=3d

> <SMILES>
COC1=CC(CN(C)C2=CN=C3N=C(N)N=C(N)C3=C2)=CC(OC)=C1OC

> <INCHI_IDENTIFIER>
InChI=1S/C18H22N6O3/c1-24(9-10-5-13(25-2)15(27-4)14(6-10)26-3)11-7-12-16(19)22-18(20)23-17(12)21-8-11/h5-8H,9H2,1-4H3,(H4,19,20,21,22,23)

> <INCHI_KEY>
PUOZHLHNKHRTOW-UHFFFAOYSA-N

> <FORMULA>
C18H22N6O3

> <MOLECULAR_WEIGHT>
370.4057

> <EXACT_MASS>
370.1753386

> <JCHEM_ACCEPTOR_COUNT>
9

> <JCHEM_AVERAGE_POLARIZABILITY>
37.740835819967835

> <JCHEM_BIOAVAILABILITY>
1

> <JCHEM_DONOR_COUNT>
2

> <JCHEM_FORMAL_CHARGE>
0

> <JCHEM_GHOSE_FILTER>
1

> <JCHEM_IUPAC>
N6-methyl-N6-[(3,4,5-trimethoxyphenyl)methyl]pyrido[2,3-d]pyrimidine-2,4,6-triamine

> <ALOGPS_LOGP>
2.16

> <JCHEM_LOGP>
1.507289488666667

> <ALOGPS_LOGS>
-3.02

> <JCHEM_MDDR_LIKE_RULE>
1

> <JCHEM_NUMBER_OF_RINGS>
3

> <JCHEM_PHYSIOLOGICAL_CHARGE>
0

> <JCHEM_PKA_STRONGEST_ACIDIC>
16.083320465170384

> <JCHEM_PKA_STRONGEST_BASIC>
4.29724670934639

> <JCHEM_POLAR_SURFACE_AREA>
121.64

> <JCHEM_REFRACTIVITY>
106.30749999999998

> <JCHEM_ROTATABLE_BOND_COUNT>
6

> <JCHEM_RULE_OF_FIVE>
1

> <ALOGPS_SOLUBILITY>
3.51e-01 g/l

> <JCHEM_TRADITIONAL_IUPAC>
N6-methyl-N6-[(3,4,5-trimethoxyphenyl)methyl]pyrido[2,3-d]pyrimidine-2,4,6-triamine

> <JCHEM_VEBER_RULE>
0

> <DRUGBANK_ID>
DB02919

> <SECONDARY_ACCESSION_NUMBERS>
EXPT01286

> <DRUG_GROUPS>
experimental

> <GENERIC_NAME>
2,4-Diamino-6-[N-(3',4',5'-Trimethoxybenzyl)-N-Methylamino]Pyrido[2,3-D]Pyrimidine

$$$$
