3710
  -OEChem-10051720053D

 52 54  0     0  0  0  0  0  0999 V2000
    2.6938   -1.6725    0.4670 O   0  0  0  0  0  0  0  0  0  0  0  0
    0.3220    3.7353   -1.1334 O   0  0  0  0  0  0  0  0  0  0  0  0
    8.5479   -0.0041   -0.0047 O   0  0  0  0  0  0  0  0  0  0  0  0
    7.7323   -2.1050   -0.2852 O   0  0  0  0  0  0  0  0  0  0  0  0
   -2.2656    0.2977   -0.7894 N   0  0  0  0  0  0  0  0  0  0  0  0
    0.7565    4.9880    0.7432 N   0  0  0  0  0  0  0  0  0  0  0  0
   -0.9619    1.7105    0.3201 C   0  0  0  0  0  0  0  0  0  0  0  0
   -1.0826   -0.3714   -0.5700 C   0  0  0  0  0  0  0  0  0  0  0  0
   -0.2423    0.4979    0.1289 C   0  0  0  0  0  0  0  0  0  0  0  0
   -2.2021    1.5567   -0.2553 C   0  0  0  0  0  0  0  0  0  0  0  0
   -3.4105   -0.2520   -1.4861 C   0  0  0  0  0  0  0  0  0  0  0  0
   -0.4678    2.9188    1.0134 C   0  0  0  0  0  0  0  0  0  0  0  0
    1.0473    0.0551    0.4843 C   0  0  0  0  0  0  0  0  0  0  0  0
   -0.6961   -1.6665   -0.9328 C   0  0  0  0  0  0  0  0  0  0  0  0
   -3.3351    2.5029   -0.3414 C   0  0  0  0  0  0  0  0  0  0  0  0
    1.4475   -1.2379    0.1281 C   0  0  0  0  0  0  0  0  0  0  0  0
   -4.3469   -0.9508   -0.5378 C   0  0  0  0  0  0  0  0  0  0  0  0
    0.5876   -2.0838   -0.5696 C   0  0  0  0  0  0  0  0  0  0  0  0
    0.2352    3.8965    0.0807 C   0  0  0  0  0  0  0  0  0  0  0  0
   -5.3727   -0.2338    0.0631 C   0  0  0  0  0  0  0  0  0  0  0  0
   -4.1729   -2.3032   -0.2767 C   0  0  0  0  0  0  0  0  0  0  0  0
    3.7211   -0.6875    0.5562 C   0  0  0  0  0  0  0  0  0  0  0  0
    5.0685   -1.3079    0.2091 C   0  0  0  0  0  0  0  0  0  0  0  0
   -6.2409   -0.8814    0.9420 C   0  0  0  0  0  0  0  0  0  0  0  0
   -5.0413   -2.9507    0.6021 C   0  0  0  0  0  0  0  0  0  0  0  0
    6.2081   -0.2894    0.2703 C   0  0  0  0  0  0  0  0  0  0  0  0
   -6.0753   -2.2397    1.2115 C   0  0  0  0  0  0  0  0  0  0  0  0
    7.5462   -0.9218   -0.0376 C   0  0  0  0  0  0  0  0  0  0  0  0
   -3.0488   -0.9466   -2.2540 H   0  0  0  0  0  0  0  0  0  0  0  0
   -3.9227    0.5336   -2.0486 H   0  0  0  0  0  0  0  0  0  0  0  0
   -1.2934    3.4494    1.5031 H   0  0  0  0  0  0  0  0  0  0  0  0
    0.2355    2.6399    1.8077 H   0  0  0  0  0  0  0  0  0  0  0  0
    1.6863    0.7242    1.0511 H   0  0  0  0  0  0  0  0  0  0  0  0
   -1.3408   -2.3308   -1.4954 H   0  0  0  0  0  0  0  0  0  0  0  0
   -3.8857    2.4486   -1.2825 H   0  0  0  0  0  0  0  0  0  0  0  0
   -2.9739    3.5354   -0.2717 H   0  0  0  0  0  0  0  0  0  0  0  0
   -4.0240    2.3545    0.4946 H   0  0  0  0  0  0  0  0  0  0  0  0
    0.9156   -3.0837   -0.8441 H   0  0  0  0  0  0  0  0  0  0  0  0
   -5.5405    0.8141   -0.1587 H   0  0  0  0  0  0  0  0  0  0  0  0
   -3.3889   -2.8801   -0.7538 H   0  0  0  0  0  0  0  0  0  0  0  0
    3.7455   -0.2921    1.5784 H   0  0  0  0  0  0  0  0  0  0  0  0
    3.5486    0.1373   -0.1476 H   0  0  0  0  0  0  0  0  0  0  0  0
    5.2676   -2.1435    0.8924 H   0  0  0  0  0  0  0  0  0  0  0  0
    5.0163   -1.7573   -0.7911 H   0  0  0  0  0  0  0  0  0  0  0  0
   -7.0510   -0.3299    1.4102 H   0  0  0  0  0  0  0  0  0  0  0  0
   -4.9156   -4.0097    0.8084 H   0  0  0  0  0  0  0  0  0  0  0  0
    6.0307    0.5086   -0.4590 H   0  0  0  0  0  0  0  0  0  0  0  0
    6.2616    0.1472    1.2735 H   0  0  0  0  0  0  0  0  0  0  0  0
   -6.7531   -2.7447    1.8935 H   0  0  0  0  0  0  0  0  0  0  0  0
    1.2489    5.7182    0.2395 H   0  0  0  0  0  0  0  0  0  0  0  0
    0.6705    5.1037    1.7479 H   0  0  0  0  0  0  0  0  0  0  0  0
    9.4198   -0.4079   -0.2023 H   0  0  0  0  0  0  0  0  0  0  0  0
  1 16  1  0  0  0  0
  1 22  1  0  0  0  0
  2 19  2  0  0  0  0
  3 28  1  0  0  0  0
  3 52  1  0  0  0  0
  4 28  2  0  0  0  0
  5  8  1  0  0  0  0
  5 10  1  0  0  0  0
  5 11  1  0  0  0  0
  6 19  1  0  0  0  0
  6 50  1  0  0  0  0
  6 51  1  0  0  0  0
  7  9  1  0  0  0  0
  7 10  2  0  0  0  0
  7 12  1  0  0  0  0
  8  9  2  0  0  0  0
  8 14  1  0  0  0  0
  9 13  1  0  0  0  0
 10 15  1  0  0  0  0
 11 17  1  0  0  0  0
 11 29  1  0  0  0  0
 11 30  1  0  0  0  0
 12 19  1  0  0  0  0
 12 31  1  0  0  0  0
 12 32  1  0  0  0  0
 13 16  2  0  0  0  0
 13 33  1  0  0  0  0
 14 18  2  0  0  0  0
 14 34  1  0  0  0  0
 15 35  1  0  0  0  0
 15 36  1  0  0  0  0
 15 37  1  0  0  0  0
 16 18  1  0  0  0  0
 17 20  2  0  0  0  0
 17 21  1  0  0  0  0
 18 38  1  0  0  0  0
 20 24  1  0  0  0  0
 20 39  1  0  0  0  0
 21 25  2  0  0  0  0
 21 40  1  0  0  0  0
 22 23  1  0  0  0  0
 22 41  1  0  0  0  0
 22 42  1  0  0  0  0
 23 26  1  0  0  0  0
 23 43  1  0  0  0  0
 23 44  1  0  0  0  0
 24 27  2  0  0  0  0
 24 45  1  0  0  0  0
 25 27  1  0  0  0  0
 25 46  1  0  0  0  0
 26 28  1  0  0  0  0
 26 47  1  0  0  0  0
 26 48  1  0  0  0  0
 27 49  1  0  0  0  0
M  END
> <DATABASE_ID>
DB02936

> <DATABASE_NAME>
drugbank

> <ORIGINAL_SOURCE>
PUBCHEM

> <ORIGINAL_SOURCE_URL>
https://pubchem.ncbi.nlm.nih.gov/rest/pug/compound/inchikey/STENXUCYNKOBHJ-UHFFFAOYSA-N/SDF?record_type=3d

> <SMILES>
CC1=C(CC(N)=O)C2=C(C=CC(OCCCC(O)=O)=C2)N1CC1=CC=CC=C1

> <INCHI_IDENTIFIER>
InChI=1S/C22H24N2O4/c1-15-18(13-21(23)25)19-12-17(28-11-5-8-22(26)27)9-10-20(19)24(15)14-16-6-3-2-4-7-16/h2-4,6-7,9-10,12H,5,8,11,13-14H2,1H3,(H2,23,25)(H,26,27)

> <INCHI_KEY>
STENXUCYNKOBHJ-UHFFFAOYSA-N

> <FORMULA>
C22H24N2O4

> <MOLECULAR_WEIGHT>
380.437

> <EXACT_MASS>
380.173607266

> <JCHEM_ACCEPTOR_COUNT>
4

> <JCHEM_AVERAGE_POLARIZABILITY>
41.7028446854371

> <JCHEM_BIOAVAILABILITY>
1

> <JCHEM_DONOR_COUNT>
2

> <JCHEM_FORMAL_CHARGE>
0

> <JCHEM_GHOSE_FILTER>
1

> <JCHEM_IUPAC>
4-{[1-benzyl-3-(carbamoylmethyl)-2-methyl-1H-indol-5-yl]oxy}butanoic acid

> <ALOGPS_LOGP>
3.23

> <JCHEM_LOGP>
2.896509974666666

> <ALOGPS_LOGS>
-4.86

> <JCHEM_MDDR_LIKE_RULE>
1

> <JCHEM_NUMBER_OF_RINGS>
3

> <JCHEM_PHYSIOLOGICAL_CHARGE>
-1

> <JCHEM_PKA>
16.263920332456436

> <JCHEM_PKA_STRONGEST_ACIDIC>
4.1564378101495265

> <JCHEM_PKA_STRONGEST_BASIC>
-2.1898385470005004

> <JCHEM_POLAR_SURFACE_AREA>
94.55000000000001

> <JCHEM_REFRACTIVITY>
106.93549999999998

> <JCHEM_ROTATABLE_BOND_COUNT>
9

> <JCHEM_RULE_OF_FIVE>
1

> <ALOGPS_SOLUBILITY>
5.29e-03 g/l

> <JCHEM_TRADITIONAL_IUPAC>
4-{[1-benzyl-3-(carbamoylmethyl)-2-methylindol-5-yl]oxy}butanoic acid

> <JCHEM_VEBER_RULE>
0

> <DRUGBANK_ID>
DB02936

> <SECONDARY_ACCESSION_NUMBERS>
EXPT00286

> <DRUG_GROUPS>
experimental

> <GENERIC_NAME>
4-(1-Benzyl-3-Carbamoylmethyl-2-Methyl-1h-Indol-5-Yloxy)-Butyric Acid

$$$$
