447736
  -OEChem-10051720003D

 55 58  0     1  0  0  0  0  0999 V2000
    0.1613   -2.4239    0.6195 O   0  0  0  0  0  0  0  0  0  0  0  0
   -6.9289    0.7145   -0.3503 N   0  0  0  0  0  0  0  0  0  0  0  0
   -0.8462   -0.3838    0.0272 N   0  0  0  0  0  0  0  0  0  0  0  0
    8.9431    0.2389   -0.4994 N   0  0  0  0  0  0  0  0  0  0  0  0
    7.9344    2.2798    0.0282 N   0  0  0  0  0  0  0  0  0  0  0  0
   -5.5382    1.0863   -0.6777 C   0  0  1  0  0  0  0  0  0  0  0  0
   -5.2757    2.4404   -0.0058 C   0  0  0  0  0  0  0  0  0  0  0  0
   -4.5173    0.0198   -0.3018 C   0  0  0  0  0  0  0  0  0  0  0  0
   -4.9359   -1.2982   -0.0268 C   0  0  0  0  0  0  0  0  0  0  0  0
   -6.3998   -1.6567   -0.0392 C   0  0  0  0  0  0  0  0  0  0  0  0
   -7.2319   -0.6376   -0.8126 C   0  0  0  0  0  0  0  0  0  0  0  0
   -6.3126    3.4642   -0.4542 C   0  0  0  0  0  0  0  0  0  0  0  0
   -5.2828    2.2895    1.5113 C   0  0  0  0  0  0  0  0  0  0  0  0
   -3.1413    0.3008   -0.2980 C   0  0  0  0  0  0  0  0  0  0  0  0
   -3.9918   -2.2814    0.3041 C   0  0  0  0  0  0  0  0  0  0  0  0
   -2.2082   -0.6876    0.0205 C   0  0  0  0  0  0  0  0  0  0  0  0
   -2.6332   -1.9759    0.3279 C   0  0  0  0  0  0  0  0  0  0  0  0
    0.2265   -1.2376    0.3160 C   0  0  0  0  0  0  0  0  0  0  0  0
    1.5722   -0.6084    0.2672 C   0  0  0  0  0  0  0  0  0  0  0  0
    3.9436   -0.8180   -0.0733 C   0  0  0  0  0  0  0  0  0  0  0  0
    2.6653   -1.3977   -0.0240 C   0  0  0  0  0  0  0  0  0  0  0  0
    4.0856    0.5676    0.1777 C   0  0  0  0  0  0  0  0  0  0  0  0
    1.6826    0.7404    0.5151 C   0  0  0  0  0  0  0  0  0  0  0  0
    2.9449    1.3328    0.4706 C   0  0  0  0  0  0  0  0  0  0  0  0
    5.3639    1.1472    0.1286 C   0  0  0  0  0  0  0  0  0  0  0  0
    5.0841   -1.5832   -0.3659 C   0  0  0  0  0  0  0  0  0  0  0  0
    6.4862    0.3717   -0.1638 C   0  0  0  0  0  0  0  0  0  0  0  0
    6.3465   -0.9908   -0.4107 C   0  0  0  0  0  0  0  0  0  0  0  0
    7.8032    0.9869   -0.2105 C   0  0  0  0  0  0  0  0  0  0  0  0
   -5.4683    1.2124   -1.7675 H   0  0  0  0  0  0  0  0  0  0  0  0
   -4.2967    2.8282   -0.3106 H   0  0  0  0  0  0  0  0  0  0  0  0
   -7.5726    1.3559   -0.8117 H   0  0  0  0  0  0  0  0  0  0  0  0
   -6.5397   -2.6449   -0.4932 H   0  0  0  0  0  0  0  0  0  0  0  0
   -6.7494   -1.7114    0.9995 H   0  0  0  0  0  0  0  0  0  0  0  0
   -7.0508   -0.7219   -1.8917 H   0  0  0  0  0  0  0  0  0  0  0  0
   -8.2951   -0.8466   -0.6503 H   0  0  0  0  0  0  0  0  0  0  0  0
   -7.2994    3.3021   -0.0081 H   0  0  0  0  0  0  0  0  0  0  0  0
   -5.9973    4.4680   -0.1456 H   0  0  0  0  0  0  0  0  0  0  0  0
   -6.4158    3.4803   -1.5445 H   0  0  0  0  0  0  0  0  0  0  0  0
   -6.2416    1.9239    1.8940 H   0  0  0  0  0  0  0  0  0  0  0  0
   -5.1037    3.2632    1.9825 H   0  0  0  0  0  0  0  0  0  0  0  0
   -4.4962    1.6204    1.8718 H   0  0  0  0  0  0  0  0  0  0  0  0
   -2.7859    1.2951   -0.5565 H   0  0  0  0  0  0  0  0  0  0  0  0
   -4.3148   -3.2926    0.5399 H   0  0  0  0  0  0  0  0  0  0  0  0
   -1.9757   -2.7927    0.5892 H   0  0  0  0  0  0  0  0  0  0  0  0
   -0.6390    0.5699   -0.2551 H   0  0  0  0  0  0  0  0  0  0  0  0
    2.5501   -2.4609   -0.2224 H   0  0  0  0  0  0  0  0  0  0  0  0
    0.8443    1.3727    0.7875 H   0  0  0  0  0  0  0  0  0  0  0  0
    3.0316    2.3978    0.6760 H   0  0  0  0  0  0  0  0  0  0  0  0
    5.4608    2.2137    0.3233 H   0  0  0  0  0  0  0  0  0  0  0  0
    4.9981   -2.6500   -0.5620 H   0  0  0  0  0  0  0  0  0  0  0  0
    7.1844   -1.6390   -0.6424 H   0  0  0  0  0  0  0  0  0  0  0  0
    9.8535    0.6863   -0.5258 H   0  0  0  0  0  0  0  0  0  0  0  0
    8.9328   -0.7544   -0.6939 H   0  0  0  0  0  0  0  0  0  0  0  0
    8.9284    2.5223   -0.0491 H   0  0  0  0  0  0  0  0  0  0  0  0
  1 18  2  0  0  0  0
  2  6  1  0  0  0  0
  2 11  1  0  0  0  0
  2 32  1  0  0  0  0
  3 16  1  0  0  0  0
  3 18  1  0  0  0  0
  3 46  1  0  0  0  0
  4 29  1  0  0  0  0
  4 53  1  0  0  0  0
  4 54  1  0  0  0  0
  5 29  2  0  0  0  0
  5 55  1  0  0  0  0
  6  7  1  0  0  0  0
  6  8  1  0  0  0  0
  6 30  1  0  0  0  0
  7 12  1  0  0  0  0
  7 13  1  0  0  0  0
  7 31  1  0  0  0  0
  8  9  2  0  0  0  0
  8 14  1  0  0  0  0
  9 10  1  0  0  0  0
  9 15  1  0  0  0  0
 10 11  1  0  0  0  0
 10 33  1  0  0  0  0
 10 34  1  0  0  0  0
 11 35  1  0  0  0  0
 11 36  1  0  0  0  0
 12 37  1  0  0  0  0
 12 38  1  0  0  0  0
 12 39  1  0  0  0  0
 13 40  1  0  0  0  0
 13 41  1  0  0  0  0
 13 42  1  0  0  0  0
 14 16  2  0  0  0  0
 14 43  1  0  0  0  0
 15 17  2  0  0  0  0
 15 44  1  0  0  0  0
 16 17  1  0  0  0  0
 17 45  1  0  0  0  0
 18 19  1  0  0  0  0
 19 21  2  0  0  0  0
 19 23  1  0  0  0  0
 20 21  1  0  0  0  0
 20 22  2  0  0  0  0
 20 26  1  0  0  0  0
 21 47  1  0  0  0  0
 22 24  1  0  0  0  0
 22 25  1  0  0  0  0
 23 24  2  0  0  0  0
 23 48  1  0  0  0  0
 24 49  1  0  0  0  0
 25 27  2  0  0  0  0
 25 50  1  0  0  0  0
 26 28  2  0  0  0  0
 26 51  1  0  0  0  0
 27 28  1  0  0  0  0
 27 29  1  0  0  0  0
 28 52  1  0  0  0  0
M  END
> <DATABASE_ID>
DB02705

> <DATABASE_NAME>
drugbank

> <ORIGINAL_SOURCE>
PUBCHEM

> <ORIGINAL_SOURCE_URL>
https://pubchem.ncbi.nlm.nih.gov/rest/pug/compound/inchikey/DARQQJKHXPXSRO-QFIPXVFZSA-N/SDF?record_type=3d

> <SMILES>
[H][C@]1(NCCC2=C1C=C(NC(=O)C1=CC=C3C=C(C=CC3=C1)C(N)=N)C=C2)C(C)C

> <INCHI_IDENTIFIER>
InChI=1S/C24H26N4O/c1-14(2)22-21-13-20(8-7-15(21)9-10-27-22)28-24(29)19-6-4-16-11-18(23(25)26)5-3-17(16)12-19/h3-8,11-14,22,27H,9-10H2,1-2H3,(H3,25,26)(H,28,29)/t22-/m0/s1

> <INCHI_KEY>
DARQQJKHXPXSRO-QFIPXVFZSA-N

> <FORMULA>
C24H26N4O

> <MOLECULAR_WEIGHT>
386.4894

> <EXACT_MASS>
386.210661474

> <JCHEM_ACCEPTOR_COUNT>
4

> <JCHEM_AVERAGE_POLARIZABILITY>
44.914370427313514

> <JCHEM_BIOAVAILABILITY>
1

> <JCHEM_DONOR_COUNT>
4

> <JCHEM_FORMAL_CHARGE>
0

> <JCHEM_GHOSE_FILTER>
1

> <JCHEM_IUPAC>
6-carbamimidoyl-N-[(1S)-1-(propan-2-yl)-1,2,3,4-tetrahydroisoquinolin-7-yl]naphthalene-2-carboxamide

> <ALOGPS_LOGP>
2.68

> <JCHEM_LOGP>
3.525005485615441

> <ALOGPS_LOGS>
-5.03

> <JCHEM_MDDR_LIKE_RULE>
0

> <JCHEM_NUMBER_OF_RINGS>
4

> <JCHEM_PHYSIOLOGICAL_CHARGE>
2

> <JCHEM_PKA_STRONGEST_ACIDIC>
12.05257434669706

> <JCHEM_PKA_STRONGEST_BASIC>
11.211115119193234

> <JCHEM_POLAR_SURFACE_AREA>
91

> <JCHEM_REFRACTIVITY>
129.68619999999999

> <JCHEM_ROTATABLE_BOND_COUNT>
4

> <JCHEM_RULE_OF_FIVE>
1

> <ALOGPS_SOLUBILITY>
3.61e-03 g/l

> <JCHEM_TRADITIONAL_IUPAC>
6-carbamimidoyl-N-[(1S)-1-isopropyl-1,2,3,4-tetrahydroisoquinolin-7-yl]naphthalene-2-carboxamide

> <JCHEM_VEBER_RULE>
0

> <DRUGBANK_ID>
DB02705

> <SECONDARY_ACCESSION_NUMBERS>
EXPT00148

> <DRUG_GROUPS>
experimental

> <GENERIC_NAME>
6-[N-(1-Isopropyl-1,2,3,4-Tetrahydro-7-Isoquinolinyl)Carbamyl]-2-Naphthalenecarboxamidine

$$$$
