443201
  -OEChem-10051719563D

 24 23  0     1  0  0  0  0  0999 V2000
   -3.1886    0.1248    0.0108 P   0  0  0  0  0  0  0  0  0  0  0  0
   -1.6544    0.5776    0.2384 O   0  0  0  0  0  0  0  0  0  0  0  0
    0.8660    0.4149    1.4498 O   0  0  0  0  0  0  0  0  0  0  0  0
    1.8252   -1.7539   -0.1294 O   0  0  0  0  0  0  0  0  0  0  0  0
    4.0634   -0.4709    0.4990 O   0  0  0  0  0  0  0  0  0  0  0  0
   -3.2189   -1.4079    0.5256 O   0  0  0  0  0  0  0  0  0  0  0  0
   -3.2810   -0.0211   -1.5971 O   0  0  0  0  0  0  0  0  0  0  0  0
   -4.2171    1.0287    0.6253 O   0  0  0  0  0  0  0  0  0  0  0  0
    0.7290    0.3905    0.0262 C   0  0  1  0  0  0  0  0  0  0  0  0
    1.8956   -0.4048   -0.5664 C   0  0  1  0  0  0  0  0  0  0  0  0
   -0.6228   -0.2323   -0.3165 C   0  0  0  0  0  0  0  0  0  0  0  0
    3.2484    0.1730   -0.1622 C   0  0  0  0  0  0  0  0  0  0  0  0
    3.5553    1.5813   -0.6035 C   0  0  0  0  0  0  0  0  0  0  0  0
    0.7430    1.4327   -0.3122 H   0  0  0  0  0  0  0  0  0  0  0  0
    1.8447   -0.4126   -1.6602 H   0  0  0  0  0  0  0  0  0  0  0  0
   -0.7482   -0.2933   -1.4018 H   0  0  0  0  0  0  0  0  0  0  0  0
   -0.7072   -1.2340    0.1162 H   0  0  0  0  0  0  0  0  0  0  0  0
    1.6431    0.9569    1.6665 H   0  0  0  0  0  0  0  0  0  0  0  0
    3.0006    2.2938    0.0109 H   0  0  0  0  0  0  0  0  0  0  0  0
    4.6265    1.7732   -0.4932 H   0  0  0  0  0  0  0  0  0  0  0  0
    3.2915    1.7044   -1.6570 H   0  0  0  0  0  0  0  0  0  0  0  0
    1.7970   -1.7507    0.8429 H   0  0  0  0  0  0  0  0  0  0  0  0
   -4.0753   -1.8860    0.5422 H   0  0  0  0  0  0  0  0  0  0  0  0
   -4.1530   -0.2031   -2.0077 H   0  0  0  0  0  0  0  0  0  0  0  0
  1  2  1  0  0  0  0
  1  6  1  0  0  0  0
  1  7  1  0  0  0  0
  1  8  2  0  0  0  0
  2 11  1  0  0  0  0
  3  9  1  0  0  0  0
  3 18  1  0  0  0  0
  4 10  1  0  0  0  0
  4 22  1  0  0  0  0
  5 12  2  0  0  0  0
  6 23  1  0  0  0  0
  7 24  1  0  0  0  0
  9 10  1  0  0  0  0
  9 11  1  0  0  0  0
  9 14  1  0  0  0  0
 10 12  1  0  0  0  0
 10 15  1  0  0  0  0
 11 16  1  0  0  0  0
 11 17  1  0  0  0  0
 12 13  1  0  0  0  0
 13 19  1  0  0  0  0
 13 20  1  0  0  0  0
 13 21  1  0  0  0  0
M  END
> <DATABASE_ID>
DB02496

> <DATABASE_NAME>
drugbank

> <ORIGINAL_SOURCE>
PUBCHEM

> <ORIGINAL_SOURCE_URL>
https://pubchem.ncbi.nlm.nih.gov/rest/pug/compound/inchikey/AJPADPZSRRUGHI-RFZPGFLSSA-N/SDF?record_type=3d

> <SMILES>
CC(=O)[C@@H](O)[C@H](O)COP(O)(O)=O

> <INCHI_IDENTIFIER>
InChI=1S/C5H11O7P/c1-3(6)5(8)4(7)2-12-13(9,10)11/h4-5,7-8H,2H2,1H3,(H2,9,10,11)/t4-,5-/m1/s1

> <INCHI_KEY>
AJPADPZSRRUGHI-RFZPGFLSSA-N

> <FORMULA>
C5H11O7P

> <MOLECULAR_WEIGHT>
214.1104

> <EXACT_MASS>
214.024239218

> <JCHEM_ACCEPTOR_COUNT>
6

> <JCHEM_AVERAGE_POLARIZABILITY>
17.18461614262603

> <JCHEM_BIOAVAILABILITY>
1

> <JCHEM_DONOR_COUNT>
4

> <JCHEM_FORMAL_CHARGE>
0

> <JCHEM_GHOSE_FILTER>
0

> <JCHEM_IUPAC>
{[(2R,3S)-2,3-dihydroxy-4-oxopentyl]oxy}phosphonic acid

> <ALOGPS_LOGP>
-1.93

> <JCHEM_LOGP>
-1.9430149353333332

> <ALOGPS_LOGS>
-0.89

> <JCHEM_MDDR_LIKE_RULE>
0

> <JCHEM_NUMBER_OF_RINGS>
0

> <JCHEM_PHYSIOLOGICAL_CHARGE>
-2

> <JCHEM_PKA>
6.5046605893829295

> <JCHEM_PKA_STRONGEST_ACIDIC>
1.4788376412403776

> <JCHEM_PKA_STRONGEST_BASIC>
-3.578076314026042

> <JCHEM_POLAR_SURFACE_AREA>
124.29000000000002

> <JCHEM_REFRACTIVITY>
40.769999999999996

> <JCHEM_ROTATABLE_BOND_COUNT>
5

> <JCHEM_RULE_OF_FIVE>
1

> <ALOGPS_SOLUBILITY>
2.76e+01 g/l

> <JCHEM_TRADITIONAL_IUPAC>
1-deoxy-D-xylulose-5-phosphate

> <JCHEM_VEBER_RULE>
0

> <DRUGBANK_ID>
DB02496

> <SECONDARY_ACCESSION_NUMBERS>
EXPT01308

> <DRUG_GROUPS>
experimental

> <GENERIC_NAME>
1-Deoxy-D-xylulose 5-phosphate

$$$$
