6971029
  -OEChem-10051719483D

 27 27  0     1  0  0  0  0  0999 V2000
   -0.4207   -0.9719   -1.5382 O   0  0  0  0  0  0  0  0  0  0  0  0
   -2.5396   -0.0580    1.8447 O   0  5  0  0  0  0  0  0  0  0  0  0
   -3.2912   -1.6031    0.3410 O   0  0  0  0  0  0  0  0  0  0  0  0
   -3.5019    1.7314   -0.2930 N   0  3  0  0  0  0  0  0  0  0  0  0
    1.4932   -2.2626   -0.2244 N   0  0  0  0  0  0  0  0  0  0  0  0
   -2.5967    0.5446   -0.4369 C   0  0  1  0  0  0  0  0  0  0  0  0
   -1.1719    1.0973   -0.5465 C   0  0  0  0  0  0  0  0  0  0  0  0
   -0.1442    0.0173   -0.8635 C   0  0  0  0  0  0  0  0  0  0  0  0
    1.2381    0.1639   -0.3229 C   0  0  0  0  0  0  0  0  0  0  0  0
    1.9885   -0.9537   -0.0302 C   0  0  0  0  0  0  0  0  0  0  0  0
   -2.8342   -0.4795    0.6885 C   0  0  0  0  0  0  0  0  0  0  0  0
    1.7141    1.4443   -0.1356 C   0  0  0  0  0  0  0  0  0  0  0  0
    3.2778   -0.7839    0.4742 C   0  0  0  0  0  0  0  0  0  0  0  0
    3.0035    1.6140    0.3690 C   0  0  0  0  0  0  0  0  0  0  0  0
    3.7852    0.4999    0.6738 C   0  0  0  0  0  0  0  0  0  0  0  0
   -2.8855    0.0876   -1.3912 H   0  0  0  0  0  0  0  0  0  0  0  0
   -1.1114    1.8477   -1.3441 H   0  0  0  0  0  0  0  0  0  0  0  0
   -0.9112    1.5800    0.4027 H   0  0  0  0  0  0  0  0  0  0  0  0
   -4.4891    1.4431   -0.2676 H   0  0  0  0  0  0  0  0  0  0  0  0
   -3.3969    2.3872   -1.0788 H   0  0  0  0  0  0  0  0  0  0  0  0
   -3.3104    2.2507    0.5743 H   0  0  0  0  0  0  0  0  0  0  0  0
    1.1395    2.3305   -0.3844 H   0  0  0  0  0  0  0  0  0  0  0  0
    3.8982   -1.6433    0.7159 H   0  0  0  0  0  0  0  0  0  0  0  0
    3.4010    2.6135    0.5195 H   0  0  0  0  0  0  0  0  0  0  0  0
    4.7896    0.6322    1.0655 H   0  0  0  0  0  0  0  0  0  0  0  0
    2.0750   -3.0572    0.0069 H   0  0  0  0  0  0  0  0  0  0  0  0
    0.5536   -2.4176   -0.5620 H   0  0  0  0  0  0  0  0  0  0  0  0
  1  8  2  0  0  0  0
  2 11  1  0  0  0  0
  3 11  2  0  0  0  0
  4  6  1  0  0  0  0
  4 19  1  0  0  0  0
  4 20  1  0  0  0  0
  4 21  1  0  0  0  0
  5 10  1  0  0  0  0
  5 26  1  0  0  0  0
  5 27  1  0  0  0  0
  6  7  1  0  0  0  0
  6 11  1  0  0  0  0
  6 16  1  0  0  0  0
  7  8  1  0  0  0  0
  7 17  1  0  0  0  0
  7 18  1  0  0  0  0
  8  9  1  0  0  0  0
  9 10  1  0  0  0  0
  9 12  2  0  0  0  0
 10 13  2  0  0  0  0
 12 14  1  0  0  0  0
 12 22  1  0  0  0  0
 13 15  1  0  0  0  0
 13 23  1  0  0  0  0
 14 15  2  0  0  0  0
 14 24  1  0  0  0  0
 15 25  1  0  0  0  0
M  CHG  2   2  -1   4   1
M  END
> <DATABASE_ID>
DB02070

> <DATABASE_NAME>
drugbank

> <ORIGINAL_SOURCE>
PUBCHEM

> <ORIGINAL_SOURCE_URL>
https://pubchem.ncbi.nlm.nih.gov/rest/pug/compound/inchikey/YGPSJZOEDVAXAB-QMMMGPOBSA-N/SDF?record_type=3d

> <SMILES>
N[C@@H](CC(=O)C1=CC=CC=C1N)C(O)=O

> <INCHI_IDENTIFIER>
InChI=1S/C10H12N2O3/c11-7-4-2-1-3-6(7)9(13)5-8(12)10(14)15/h1-4,8H,5,11-12H2,(H,14,15)/t8-/m0/s1

> <INCHI_KEY>
YGPSJZOEDVAXAB-QMMMGPOBSA-N

> <FORMULA>
C10H12N2O3

> <MOLECULAR_WEIGHT>
208.2139

> <EXACT_MASS>
208.08479226

> <JCHEM_ACCEPTOR_COUNT>
5

> <JCHEM_AVERAGE_POLARIZABILITY>
20.589188360189617

> <JCHEM_BIOAVAILABILITY>
1

> <JCHEM_DONOR_COUNT>
3

> <JCHEM_FORMAL_CHARGE>
0

> <JCHEM_GHOSE_FILTER>
0

> <JCHEM_IUPAC>
(2S)-2-amino-4-(2-aminophenyl)-4-oxobutanoic acid

> <ALOGPS_LOGP>
-1.93

> <JCHEM_LOGP>
-1.9081918809836254

> <ALOGPS_LOGS>
-2.10

> <JCHEM_MDDR_LIKE_RULE>
0

> <JCHEM_NUMBER_OF_RINGS>
1

> <JCHEM_PHYSIOLOGICAL_CHARGE>
0

> <JCHEM_PKA>
16.06926978291992

> <JCHEM_PKA_STRONGEST_ACIDIC>
1.193089749657625

> <JCHEM_PKA_STRONGEST_BASIC>
8.96449885088756

> <JCHEM_POLAR_SURFACE_AREA>
106.41

> <JCHEM_REFRACTIVITY>
55.05020000000002

> <JCHEM_ROTATABLE_BOND_COUNT>
4

> <JCHEM_RULE_OF_FIVE>
1

> <ALOGPS_SOLUBILITY>
1.67e+00 g/l

> <JCHEM_TRADITIONAL_IUPAC>
L-kynurenine

> <JCHEM_VEBER_RULE>
0

> <DRUGBANK_ID>
DB02070

> <SECONDARY_ACCESSION_NUMBERS>
EXPT01985

> <DRUG_GROUPS>
experimental

> <GENERIC_NAME>
L-2-Amino-4-[2-Aminophenyl]-4-Oxobutanoic Acid

$$$$
