6120722
  -OEChem-10051720053D

 14 13  0     0  0  0  0  0  0999 V2000
   -1.4412    0.1023    0.0305 P   0  0  0  0  0  0  0  0  0  0  0  0
    0.0365   -0.4576    0.3705 O   0  0  0  0  0  0  0  0  0  0  0  0
   -2.4187   -1.0431    0.6225 O   0  0  0  0  0  0  0  0  0  0  0  0
   -1.5822   -0.0998   -1.5686 O   0  0  0  0  0  0  0  0  0  0  0  0
   -1.7474    1.4887    0.5173 O   0  0  0  0  0  0  0  0  0  0  0  0
    3.5867    0.1950   -0.1464 N   0  0  0  0  0  0  0  0  0  0  0  0
    1.1745    0.1405   -0.0547 C   0  0  0  0  0  0  0  0  0  0  0  0
    2.3918   -0.3261    0.2289 C   0  0  0  0  0  0  0  0  0  0  0  0
    1.0000    1.0298   -0.6430 H   0  0  0  0  0  0  0  0  0  0  0  0
    2.5104   -1.2245    0.8251 H   0  0  0  0  0  0  0  0  0  0  0  0
   -2.5964   -1.0626    1.5869 H   0  0  0  0  0  0  0  0  0  0  0  0
   -1.1549    0.5479   -2.1687 H   0  0  0  0  0  0  0  0  0  0  0  0
    3.6192    1.0361   -0.7086 H   0  0  0  0  0  0  0  0  0  0  0  0
    4.4442   -0.2614    0.1379 H   0  0  0  0  0  0  0  0  0  0  0  0
  1  2  1  0  0  0  0
  1  3  1  0  0  0  0
  1  4  1  0  0  0  0
  1  5  2  0  0  0  0
  2  7  1  0  0  0  0
  3 11  1  0  0  0  0
  4 12  1  0  0  0  0
  6  8  1  0  0  0  0
  6 13  1  0  0  0  0
  6 14  1  0  0  0  0
  7  8  2  0  0  0  0
  7  9  1  0  0  0  0
  8 10  1  0  0  0  0
M  END
> <DATABASE_ID>
DB02907

> <DATABASE_NAME>
drugbank

> <ORIGINAL_SOURCE>
PUBCHEM

> <ORIGINAL_SOURCE_URL>
https://pubchem.ncbi.nlm.nih.gov/rest/pug/compound/inchikey/KYMLMTPYCDIFEC-OWOJBTEDSA-N/SDF?record_type=3d

> <SMILES>
N\C=C\OP(O)(O)=O

> <INCHI_IDENTIFIER>
InChI=1S/C2H6NO4P/c3-1-2-7-8(4,5)6/h1-2H,3H2,(H2,4,5,6)/b2-1+

> <INCHI_KEY>
KYMLMTPYCDIFEC-OWOJBTEDSA-N

> <FORMULA>
C2H6NO4P

> <MOLECULAR_WEIGHT>
139.0471

> <EXACT_MASS>
139.003444197

> <JCHEM_ACCEPTOR_COUNT>
4

> <JCHEM_AVERAGE_POLARIZABILITY>
10.177186862187403

> <JCHEM_BIOAVAILABILITY>
1

> <JCHEM_DONOR_COUNT>
3

> <JCHEM_FORMAL_CHARGE>
0

> <JCHEM_GHOSE_FILTER>
0

> <JCHEM_IUPAC>
{[(E)-2-aminoethenyl]oxy}phosphonic acid

> <ALOGPS_LOGP>
-1.52

> <JCHEM_LOGP>
-2.386565627456768

> <ALOGPS_LOGS>
-0.87

> <JCHEM_MDDR_LIKE_RULE>
0

> <JCHEM_NUMBER_OF_RINGS>
0

> <JCHEM_PHYSIOLOGICAL_CHARGE>
-2

> <JCHEM_PKA>
6.737242590308603

> <JCHEM_PKA_STRONGEST_ACIDIC>
1.4013666300458572

> <JCHEM_PKA_STRONGEST_BASIC>
5.2538197356486664

> <JCHEM_POLAR_SURFACE_AREA>
92.78

> <JCHEM_REFRACTIVITY>
26.4616

> <JCHEM_ROTATABLE_BOND_COUNT>
2

> <JCHEM_RULE_OF_FIVE>
1

> <ALOGPS_SOLUBILITY>
1.88e+01 g/l

> <JCHEM_TRADITIONAL_IUPAC>
2-amino-vinyl-phosphate

> <JCHEM_VEBER_RULE>
0

> <DRUGBANK_ID>
DB02907

> <SECONDARY_ACCESSION_NUMBERS>
EXPT01321

> <DRUG_GROUPS>
experimental

> <GENERIC_NAME>
2-Amino-Vinyl-Phosphate

$$$$
