9084
  -OEChem-10051719513D

  9  8  0     0  0  0  0  0  0999 V2000
   -1.3312   -1.2235   -0.1042 O   0  5  0  0  0  0  0  0  0  0  0  0
    1.3309   -1.2236   -0.1045 O   0  5  0  0  0  0  0  0  0  0  0  0
   -1.9985    0.9514   -0.3456 O   0  0  0  0  0  0  0  0  0  0  0  0
    1.9987    0.9513   -0.3454 O   0  0  0  0  0  0  0  0  0  0  0  0
    0.0000    0.4903    0.8153 C   0  0  0  0  0  0  0  0  0  0  0  0
   -1.2297    0.0271    0.0422 C   0  0  0  0  0  0  0  0  0  0  0  0
    1.2298    0.0270    0.0422 C   0  0  0  0  0  0  0  0  0  0  0  0
    0.0000    0.0408    1.8141 H   0  0  0  0  0  0  0  0  0  0  0  0
    0.0001    1.5791    0.9354 H   0  0  0  0  0  0  0  0  0  0  0  0
  1  6  1  0  0  0  0
  2  7  1  0  0  0  0
  3  6  2  0  0  0  0
  4  7  2  0  0  0  0
  5  6  1  0  0  0  0
  5  7  1  0  0  0  0
  5  8  1  0  0  0  0
  5  9  1  0  0  0  0
M  CHG  2   1  -1   2  -1
M  END
> <DATABASE_ID>
DB02201

> <DATABASE_NAME>
drugbank

> <ORIGINAL_SOURCE>
PUBCHEM

> <ORIGINAL_SOURCE_URL>
https://pubchem.ncbi.nlm.nih.gov/rest/pug/compound/inchikey/OFOBLEOULBTSOW-UHFFFAOYSA-L/SDF?record_type=3d

> <SMILES>
[O-]C(=O)CC([O-])=O

> <INCHI_IDENTIFIER>
InChI=1S/C3H4O4/c4-2(5)1-3(6)7/h1H2,(H,4,5)(H,6,7)/p-2

> <INCHI_KEY>
OFOBLEOULBTSOW-UHFFFAOYSA-L

> <FORMULA>
C3H2O4

> <MOLECULAR_WEIGHT>
102.0456

> <EXACT_MASS>
101.995308552

> <JCHEM_ACCEPTOR_COUNT>
4

> <JCHEM_AVERAGE_POLARIZABILITY>
7.334352879082738

> <JCHEM_BIOAVAILABILITY>
1

> <JCHEM_DONOR_COUNT>
0

> <JCHEM_FORMAL_CHARGE>
-2

> <JCHEM_GHOSE_FILTER>
0

> <JCHEM_IUPAC>
propanedioate

> <ALOGPS_LOGP>
-0.45

> <JCHEM_LOGP>
-0.3311172683333333

> <ALOGPS_LOGS>
0.53

> <JCHEM_MDDR_LIKE_RULE>
0

> <JCHEM_NUMBER_OF_RINGS>
0

> <JCHEM_PHYSIOLOGICAL_CHARGE>
-2

> <JCHEM_PKA>
5.919487044057661

> <JCHEM_PKA_STRONGEST_ACIDIC>
2.4284239631132736

> <JCHEM_POLAR_SURFACE_AREA>
80.25999999999999

> <JCHEM_REFRACTIVITY>
40.662000000000006

> <JCHEM_ROTATABLE_BOND_COUNT>
2

> <JCHEM_RULE_OF_FIVE>
1

> <ALOGPS_SOLUBILITY>
4.67e+02 g/l

> <JCHEM_TRADITIONAL_IUPAC>
malonate

> <JCHEM_VEBER_RULE>
0

> <DRUGBANK_ID>
DB02201

> <SECONDARY_ACCESSION_NUMBERS>
EXPT02183

> <DRUG_GROUPS>
experimental

> <GENERIC_NAME>
Malonate Ion

$$$$
