546
  -OEChem-10051720033D

 13 12  0     0  0  0  0  0  0999 V2000
    1.2184   -0.0156    0.0847 P   0  0  0  0  0  0  0  0  0  0  0  0
    2.3134    1.1655    0.0506 O   0  0  0  0  0  0  0  0  0  0  0  0
    1.2485   -0.6139   -1.4112 O   0  0  0  0  0  0  0  0  0  0  0  0
    1.3616   -1.0079    1.1879 O   0  0  0  0  0  0  0  0  0  0  0  0
   -2.7108    0.7439    0.0679 O   0  0  0  0  0  0  0  0  0  0  0  0
   -1.5320   -1.1904   -0.1002 O   0  0  0  0  0  0  0  0  0  0  0  0
   -0.3380    0.8897    0.1163 C   0  0  0  0  0  0  0  0  0  0  0  0
   -1.5612    0.0288    0.0039 C   0  0  0  0  0  0  0  0  0  0  0  0
   -0.3918    1.4411    1.0605 H   0  0  0  0  0  0  0  0  0  0  0  0
   -0.3454    1.6041   -0.7132 H   0  0  0  0  0  0  0  0  0  0  0  0
    3.2664    0.9334    0.0565 H   0  0  0  0  0  0  0  0  0  0  0  0
    1.9995   -1.1837   -1.6823 H   0  0  0  0  0  0  0  0  0  0  0  0
   -3.5037    0.1691    0.0104 H   0  0  0  0  0  0  0  0  0  0  0  0
  1  2  1  0  0  0  0
  1  3  1  0  0  0  0
  1  4  2  0  0  0  0
  1  7  1  0  0  0  0
  2 11  1  0  0  0  0
  3 12  1  0  0  0  0
  5  8  1  0  0  0  0
  5 13  1  0  0  0  0
  6  8  2  0  0  0  0
  7  8  1  0  0  0  0
  7  9  1  0  0  0  0
  7 10  1  0  0  0  0
M  END
> <DATABASE_ID>
DB02823

> <DATABASE_NAME>
drugbank

> <ORIGINAL_SOURCE>
PUBCHEM

> <ORIGINAL_SOURCE_URL>
https://pubchem.ncbi.nlm.nih.gov/rest/pug/compound/inchikey/XUYJLQHKOGNDPB-UHFFFAOYSA-N/SDF?record_type=3d

> <SMILES>
OC(=O)CP(O)(O)=O

> <INCHI_IDENTIFIER>
InChI=1S/C2H5O5P/c3-2(4)1-8(5,6)7/h1H2,(H,3,4)(H2,5,6,7)

> <INCHI_KEY>
XUYJLQHKOGNDPB-UHFFFAOYSA-N

> <FORMULA>
C2H5O5P

> <MOLECULAR_WEIGHT>
140.0319

> <EXACT_MASS>
139.987459782

> <JCHEM_ACCEPTOR_COUNT>
5

> <JCHEM_AVERAGE_POLARIZABILITY>
9.629351340776928

> <JCHEM_BIOAVAILABILITY>
1

> <JCHEM_DONOR_COUNT>
3

> <JCHEM_FORMAL_CHARGE>
0

> <JCHEM_GHOSE_FILTER>
0

> <JCHEM_IUPAC>
2-phosphonoacetic acid

> <ALOGPS_LOGP>
-2.58

> <JCHEM_LOGP>
-1.6011253753333332

> <ALOGPS_LOGS>
-0.75

> <JCHEM_MDDR_LIKE_RULE>
0

> <JCHEM_NUMBER_OF_RINGS>
0

> <JCHEM_PHYSIOLOGICAL_CHARGE>
-2

> <JCHEM_PKA>
4.175716720456989

> <JCHEM_PKA_STRONGEST_ACIDIC>
1.6377235892899562

> <JCHEM_POLAR_SURFACE_AREA>
94.83000000000001

> <JCHEM_REFRACTIVITY>
23.634

> <JCHEM_ROTATABLE_BOND_COUNT>
2

> <JCHEM_RULE_OF_FIVE>
1

> <ALOGPS_SOLUBILITY>
2.51e+01 g/l

> <JCHEM_TRADITIONAL_IUPAC>
phosphonoacetic acid

> <JCHEM_VEBER_RULE>
0

> <DRUGBANK_ID>
DB02823

> <SECONDARY_ACCESSION_NUMBERS>
EXPT02488

> <DRUG_GROUPS>
experimental

> <GENERIC_NAME>
Phosphonoacetic Acid

$$$$
