51351707
  -OEChem-10051719523D

 32 31  0     1  0  0  0  0  0999 V2000
   -4.4056    0.1611   -1.1017 O   0  5  0  0  0  0  0  0  0  0  0  0
   -3.8288    0.6088    1.0596 O   0  0  0  0  0  0  0  0  0  0  0  0
   -1.9462   -1.0228   -1.5948 N   0  3  0  0  0  0  0  0  0  0  0  0
    1.6073    0.1766    1.0631 N   0  0  0  0  0  0  0  0  0  0  0  0
    3.4838   -0.8896    0.1629 N   0  0  0  0  0  0  0  0  0  0  0  0
    2.8477    1.1738   -0.7299 N   0  0  0  0  0  0  0  0  0  0  0  0
   -1.2590   -0.5006    0.6931 C   0  0  0  0  0  0  0  0  0  0  0  0
   -0.6402    0.8744    0.3976 C   0  0  0  0  0  0  0  0  0  0  0  0
   -2.4568   -0.8599   -0.1972 C   0  0  1  0  0  0  0  0  0  0  0  0
    0.5783    1.1665    1.2715 C   0  0  0  0  0  0  0  0  0  0  0  0
   -3.6787    0.0669   -0.0730 C   0  0  0  0  0  0  0  0  0  0  0  0
    2.6402    0.2130    0.1287 C   0  0  0  0  0  0  0  0  0  0  0  0
    3.0790   -2.2191    0.5584 C   0  0  0  0  0  0  0  0  0  0  0  0
    3.9789    1.0508   -1.6383 C   0  0  0  0  0  0  0  0  0  0  0  0
   -1.5702   -0.5264    1.7453 H   0  0  0  0  0  0  0  0  0  0  0  0
   -0.4993   -1.2851    0.5851 H   0  0  0  0  0  0  0  0  0  0  0  0
   -0.3371    0.9317   -0.6540 H   0  0  0  0  0  0  0  0  0  0  0  0
   -1.3825    1.6638    0.5588 H   0  0  0  0  0  0  0  0  0  0  0  0
   -2.8038   -1.8611    0.0871 H   0  0  0  0  0  0  0  0  0  0  0  0
    0.2847    1.1586    2.3273 H   0  0  0  0  0  0  0  0  0  0  0  0
    0.9627    2.1700    1.0575 H   0  0  0  0  0  0  0  0  0  0  0  0
   -2.6723   -1.4228   -2.2041 H   0  0  0  0  0  0  0  0  0  0  0  0
   -1.1347   -1.6540   -1.6363 H   0  0  0  0  0  0  0  0  0  0  0  0
   -1.6676   -0.1244   -2.0102 H   0  0  0  0  0  0  0  0  0  0  0  0
    1.5697   -0.6125    1.7017 H   0  0  0  0  0  0  0  0  0  0  0  0
    4.3582   -0.8648   -0.3520 H   0  0  0  0  0  0  0  0  0  0  0  0
    2.9712   -2.2874    1.6449 H   0  0  0  0  0  0  0  0  0  0  0  0
    3.8410   -2.9431    0.2538 H   0  0  0  0  0  0  0  0  0  0  0  0
    2.1357   -2.5015    0.0806 H   0  0  0  0  0  0  0  0  0  0  0  0
    3.9127    0.1512   -2.2594 H   0  0  0  0  0  0  0  0  0  0  0  0
    4.9339    1.0802   -1.1032 H   0  0  0  0  0  0  0  0  0  0  0  0
    3.9714    1.9066   -2.3214 H   0  0  0  0  0  0  0  0  0  0  0  0
  1 11  1  0  0  0  0
  2 11  2  0  0  0  0
  3  9  1  0  0  0  0
  3 22  1  0  0  0  0
  3 23  1  0  0  0  0
  3 24  1  0  0  0  0
  4 10  1  0  0  0  0
  4 12  1  0  0  0  0
  4 25  1  0  0  0  0
  5 12  1  0  0  0  0
  5 13  1  0  0  0  0
  5 26  1  0  0  0  0
  6 12  2  0  0  0  0
  6 14  1  0  0  0  0
  7  8  1  0  0  0  0
  7  9  1  0  0  0  0
  7 15  1  0  0  0  0
  7 16  1  0  0  0  0
  8 10  1  0  0  0  0
  8 17  1  0  0  0  0
  8 18  1  0  0  0  0
  9 11  1  0  0  0  0
  9 19  1  0  0  0  0
 10 20  1  0  0  0  0
 10 21  1  0  0  0  0
 13 27  1  0  0  0  0
 13 28  1  0  0  0  0
 13 29  1  0  0  0  0
 14 30  1  0  0  0  0
 14 31  1  0  0  0  0
 14 32  1  0  0  0  0
M  CHG  2   1  -1   3   1
M  END
> <DATABASE_ID>
DB02302

> <DATABASE_NAME>
drugbank

> <ORIGINAL_SOURCE>
PUBCHEM

> <ORIGINAL_SOURCE_URL>
https://pubchem.ncbi.nlm.nih.gov/rest/pug/compound/inchikey/HVPFXCBJHIIJGS-LURJTMIESA-N/SDF?record_type=3d

> <SMILES>
CN\C(NCCC[C@H](N)C(O)=O)=N/C

> <INCHI_IDENTIFIER>
InChI=1S/C8H18N4O2/c1-10-8(11-2)12-5-3-4-6(9)7(13)14/h6H,3-5,9H2,1-2H3,(H,13,14)(H2,10,11,12)/t6-/m0/s1

> <INCHI_KEY>
HVPFXCBJHIIJGS-LURJTMIESA-N

> <FORMULA>
C8H18N4O2

> <MOLECULAR_WEIGHT>
202.2541

> <EXACT_MASS>
202.14297584

> <JCHEM_ACCEPTOR_COUNT>
6

> <JCHEM_AVERAGE_POLARIZABILITY>
22.224320551780398

> <JCHEM_BIOAVAILABILITY>
1

> <JCHEM_DONOR_COUNT>
4

> <JCHEM_FORMAL_CHARGE>
0

> <JCHEM_GHOSE_FILTER>
0

> <JCHEM_IUPAC>
(2S)-2-amino-5-[(E)-2,3-dimethylcarbamimidamido]pentanoic acid

> <ALOGPS_LOGP>
-2.94

> <JCHEM_LOGP>
-2.654929684285306

> <ALOGPS_LOGS>
-2.11

> <JCHEM_MDDR_LIKE_RULE>
0

> <JCHEM_NUMBER_OF_RINGS>
0

> <JCHEM_PHYSIOLOGICAL_CHARGE>
1

> <JCHEM_PKA_STRONGEST_ACIDIC>
2.5397284499921278

> <JCHEM_PKA_STRONGEST_BASIC>
12.401054141729825

> <JCHEM_POLAR_SURFACE_AREA>
99.74

> <JCHEM_REFRACTIVITY>
53.179500000000004

> <JCHEM_ROTATABLE_BOND_COUNT>
5

> <JCHEM_RULE_OF_FIVE>
1

> <ALOGPS_SOLUBILITY>
1.56e+00 g/l

> <JCHEM_TRADITIONAL_IUPAC>
N3, N4-dimethylarginine

> <JCHEM_VEBER_RULE>
0

> <DRUGBANK_ID>
DB02302

> <SECONDARY_ACCESSION_NUMBERS>
EXPT00132

> <DRUG_GROUPS>
experimental

> <GENERIC_NAME>
N3, N4-Dimethylarginine

$$$$
