447532
  -OEChem-10051720023D

 24 25  0     0  0  0  0  0  0999 V2000
    3.1198   -1.0251   -0.0733 P   0  0  0  0  0  0  0  0  0  0  0  0
    1.5146   -0.8442   -0.0521 O   0  0  0  0  0  0  0  0  0  0  0  0
    3.5970   -0.5038    1.3816 O   0  0  0  0  0  0  0  0  0  0  0  0
    3.2953   -2.6297    0.0417 O   0  0  0  0  0  0  0  0  0  0  0  0
    3.8208   -0.4071   -1.2481 O   0  0  0  0  0  0  0  0  0  0  0  0
   -1.2371   -0.7539   -0.0204 N   0  0  0  0  0  0  0  0  0  0  0  0
   -3.8055   -2.9604   -0.0202 N   0  0  0  0  0  0  0  0  0  0  0  0
   -0.5313    0.3928   -0.0131 C   0  0  0  0  0  0  0  0  0  0  0  0
   -1.1615    1.6546    0.0098 C   0  0  0  0  0  0  0  0  0  0  0  0
    0.8603    0.3560   -0.0280 C   0  0  0  0  0  0  0  0  0  0  0  0
   -0.3934    2.8314    0.0171 C   0  0  0  0  0  0  0  0  0  0  0  0
    1.6242    1.5257   -0.0209 C   0  0  0  0  0  0  0  0  0  0  0  0
   -2.5623    1.6923    0.0251 C   0  0  0  0  0  0  0  0  0  0  0  0
    0.9967    2.7651    0.0017 C   0  0  0  0  0  0  0  0  0  0  0  0
   -3.2923    0.5124    0.0175 C   0  0  0  0  0  0  0  0  0  0  0  0
   -2.5874   -0.6738   -0.0052 C   0  0  0  0  0  0  0  0  0  0  0  0
   -3.2579   -1.9324   -0.0134 C   0  0  0  0  0  0  0  0  0  0  0  0
   -0.8746    3.8067    0.0351 H   0  0  0  0  0  0  0  0  0  0  0  0
    2.7076    1.5257   -0.0270 H   0  0  0  0  0  0  0  0  0  0  0  0
   -3.0922    2.6420    0.0430 H   0  0  0  0  0  0  0  0  0  0  0  0
    1.5861    3.6770    0.0087 H   0  0  0  0  0  0  0  0  0  0  0  0
   -4.3768    0.5381    0.0295 H   0  0  0  0  0  0  0  0  0  0  0  0
    4.5567   -0.4668    1.5808 H   0  0  0  0  0  0  0  0  0  0  0  0
    4.1921   -3.0162   -0.0513 H   0  0  0  0  0  0  0  0  0  0  0  0
  1  2  1  0  0  0  0
  1  3  1  0  0  0  0
  1  4  1  0  0  0  0
  1  5  2  0  0  0  0
  2 10  1  0  0  0  0
  3 23  1  0  0  0  0
  4 24  1  0  0  0  0
  6  8  1  0  0  0  0
  6 16  2  0  0  0  0
  7 17  3  0  0  0  0
  8  9  2  0  0  0  0
  8 10  1  0  0  0  0
  9 11  1  0  0  0  0
  9 13  1  0  0  0  0
 10 12  2  0  0  0  0
 11 14  2  0  0  0  0
 11 18  1  0  0  0  0
 12 14  1  0  0  0  0
 12 19  1  0  0  0  0
 13 15  2  0  0  0  0
 13 20  1  0  0  0  0
 14 21  1  0  0  0  0
 15 16  1  0  0  0  0
 15 22  1  0  0  0  0
 16 17  1  0  0  0  0
M  END
> <DATABASE_ID>
DB02762

> <DATABASE_NAME>
drugbank

> <ORIGINAL_SOURCE>
PUBCHEM

> <ORIGINAL_SOURCE_URL>
https://pubchem.ncbi.nlm.nih.gov/rest/pug/compound/inchikey/NQLPTOOPFMPCHQ-UHFFFAOYSA-N/SDF?record_type=3d

> <SMILES>
OP(O)(=O)OC1=CC=CC2=CC=C(N=C12)C#N

> <INCHI_IDENTIFIER>
InChI=1S/C10H7N2O4P/c11-6-8-5-4-7-2-1-3-9(10(7)12-8)16-17(13,14)15/h1-5H,(H2,13,14,15)

> <INCHI_KEY>
NQLPTOOPFMPCHQ-UHFFFAOYSA-N

> <FORMULA>
C10H7N2O4P

> <MOLECULAR_WEIGHT>
250.1473

> <EXACT_MASS>
250.014343234

> <JCHEM_ACCEPTOR_COUNT>
5

> <JCHEM_AVERAGE_POLARIZABILITY>
21.396203120492935

> <JCHEM_BIOAVAILABILITY>
1

> <JCHEM_DONOR_COUNT>
2

> <JCHEM_FORMAL_CHARGE>
0

> <JCHEM_GHOSE_FILTER>
1

> <JCHEM_IUPAC>
[(2-cyanoquinolin-8-yl)oxy]phosphonic acid

> <ALOGPS_LOGP>
0.65

> <JCHEM_LOGP>
1.415416518

> <ALOGPS_LOGS>
-2.66

> <JCHEM_MDDR_LIKE_RULE>
0

> <JCHEM_NUMBER_OF_RINGS>
2

> <JCHEM_PHYSIOLOGICAL_CHARGE>
-2

> <JCHEM_PKA>
6.693575647203192

> <JCHEM_PKA_STRONGEST_ACIDIC>
1.7246330405356445

> <JCHEM_PKA_STRONGEST_BASIC>
-1.6556902977972139

> <JCHEM_POLAR_SURFACE_AREA>
103.44000000000001

> <JCHEM_REFRACTIVITY>
58.182700000000004

> <JCHEM_ROTATABLE_BOND_COUNT>
2

> <JCHEM_RULE_OF_FIVE>
1

> <ALOGPS_SOLUBILITY>
5.52e-01 g/l

> <JCHEM_TRADITIONAL_IUPAC>
(2-cyanoquinolin-8-yl)oxyphosphonic acid

> <JCHEM_VEBER_RULE>
0

> <DRUGBANK_ID>
DB02762

> <SECONDARY_ACCESSION_NUMBERS>
EXPT00300

> <DRUG_GROUPS>
experimental

> <GENERIC_NAME>
RU79072

$$$$
