447478
  -OEChem-10051720103D

 46 49  0     0  0  0  0  0  0999 V2000
   -4.0802   -0.1396   -0.4930 O   0  0  0  0  0  0  0  0  0  0  0  0
   -1.4684   -1.0246   -0.5266 O   0  0  0  0  0  0  0  0  0  0  0  0
    1.0336   -0.5501    0.3677 N   0  0  0  0  0  0  0  0  0  0  0  0
    7.4247   -1.3969    0.0172 N   0  0  0  0  0  0  0  0  0  0  0  0
    7.0984    0.8491   -0.5400 N   0  0  0  0  0  0  0  0  0  0  0  0
   -5.0572   -0.3425    0.5204 C   0  0  0  0  0  0  0  0  0  0  0  0
   -5.1471   -1.8253    0.8464 C   0  0  0  0  0  0  0  0  0  0  0  0
   -6.4463   -0.0235   -0.0114 C   0  0  0  0  0  0  0  0  0  0  0  0
   -6.0086   -2.4119   -0.2710 C   0  0  0  0  0  0  0  0  0  0  0  0
   -6.8199   -1.2485   -0.8420 C   0  0  0  0  0  0  0  0  0  0  0  0
   -3.0608    0.7177   -0.2074 C   0  0  0  0  0  0  0  0  0  0  0  0
   -1.7370    0.2788   -0.2226 C   0  0  0  0  0  0  0  0  0  0  0  0
   -0.7019    1.1678    0.0720 C   0  0  0  0  0  0  0  0  0  0  0  0
    0.6745    0.7353    0.0623 C   0  0  0  0  0  0  0  0  0  0  0  0
   -3.3516    2.0463    0.1023 C   0  0  0  0  0  0  0  0  0  0  0  0
    2.9219    0.5463   -0.0895 C   0  0  0  0  0  0  0  0  0  0  0  0
    2.4002   -0.6942    0.2833 C   0  0  0  0  0  0  0  0  0  0  0  0
    1.8216    1.4385   -0.2250 C   0  0  0  0  0  0  0  0  0  0  0  0
   -0.9945    2.4970    0.3818 C   0  0  0  0  0  0  0  0  0  0  0  0
   -2.3184    2.9359    0.3970 C   0  0  0  0  0  0  0  0  0  0  0  0
    4.3160    0.6757   -0.2488 C   0  0  0  0  0  0  0  0  0  0  0  0
    3.2060   -1.8164    0.5059 C   0  0  0  0  0  0  0  0  0  0  0  0
    5.1344   -0.4383   -0.0295 C   0  0  0  0  0  0  0  0  0  0  0  0
    4.5858   -1.6640    0.3423 C   0  0  0  0  0  0  0  0  0  0  0  0
    6.5747   -0.3126   -0.1917 C   0  0  0  0  0  0  0  0  0  0  0  0
   -4.8351    0.2326    1.4278 H   0  0  0  0  0  0  0  0  0  0  0  0
   -5.6539   -1.9694    1.8079 H   0  0  0  0  0  0  0  0  0  0  0  0
   -4.1696   -2.3152    0.8917 H   0  0  0  0  0  0  0  0  0  0  0  0
   -6.4753    0.8877   -0.6165 H   0  0  0  0  0  0  0  0  0  0  0  0
   -7.1532    0.0846    0.8196 H   0  0  0  0  0  0  0  0  0  0  0  0
   -6.6547   -3.2110    0.1066 H   0  0  0  0  0  0  0  0  0  0  0  0
   -5.3768   -2.8449   -1.0552 H   0  0  0  0  0  0  0  0  0  0  0  0
   -6.5522   -1.0916   -1.8934 H   0  0  0  0  0  0  0  0  0  0  0  0
   -7.8964   -1.4437   -0.8043 H   0  0  0  0  0  0  0  0  0  0  0  0
   -4.3770    2.4060    0.1093 H   0  0  0  0  0  0  0  0  0  0  0  0
    1.8792    2.4811   -0.5095 H   0  0  0  0  0  0  0  0  0  0  0  0
    0.3976   -1.2923    0.6261 H   0  0  0  0  0  0  0  0  0  0  0  0
   -0.2122    3.2121    0.6239 H   0  0  0  0  0  0  0  0  0  0  0  0
   -2.5452    3.9704    0.6380 H   0  0  0  0  0  0  0  0  0  0  0  0
    4.7219    1.6403   -0.5389 H   0  0  0  0  0  0  0  0  0  0  0  0
    2.7789   -2.7708    0.7950 H   0  0  0  0  0  0  0  0  0  0  0  0
    5.1899   -2.5476    0.5205 H   0  0  0  0  0  0  0  0  0  0  0  0
   -2.3097   -1.4800   -0.7034 H   0  0  0  0  0  0  0  0  0  0  0  0
    8.4269   -1.2883   -0.0996 H   0  0  0  0  0  0  0  0  0  0  0  0
    7.1096   -2.3207    0.2853 H   0  0  0  0  0  0  0  0  0  0  0  0
    8.1166    0.7382   -0.6012 H   0  0  0  0  0  0  0  0  0  0  0  0
  1  6  1  0  0  0  0
  1 11  1  0  0  0  0
  2 12  1  0  0  0  0
  2 43  1  0  0  0  0
  3 14  1  0  0  0  0
  3 17  1  0  0  0  0
  3 37  1  0  0  0  0
  4 25  1  0  0  0  0
  4 44  1  0  0  0  0
  4 45  1  0  0  0  0
  5 25  2  0  0  0  0
  5 46  1  0  0  0  0
  6  7  1  0  0  0  0
  6  8  1  0  0  0  0
  6 26  1  0  0  0  0
  7  9  1  0  0  0  0
  7 27  1  0  0  0  0
  7 28  1  0  0  0  0
  8 10  1  0  0  0  0
  8 29  1  0  0  0  0
  8 30  1  0  0  0  0
  9 10  1  0  0  0  0
  9 31  1  0  0  0  0
  9 32  1  0  0  0  0
 10 33  1  0  0  0  0
 10 34  1  0  0  0  0
 11 12  1  0  0  0  0
 11 15  2  0  0  0  0
 12 13  2  0  0  0  0
 13 14  1  0  0  0  0
 13 19  1  0  0  0  0
 14 18  2  0  0  0  0
 15 20  1  0  0  0  0
 15 35  1  0  0  0  0
 16 17  2  0  0  0  0
 16 18  1  0  0  0  0
 16 21  1  0  0  0  0
 17 22  1  0  0  0  0
 18 36  1  0  0  0  0
 19 20  2  0  0  0  0
 19 38  1  0  0  0  0
 20 39  1  0  0  0  0
 21 23  2  0  0  0  0
 21 40  1  0  0  0  0
 22 24  2  0  0  0  0
 22 41  1  0  0  0  0
 23 24  1  0  0  0  0
 23 25  1  0  0  0  0
 24 42  1  0  0  0  0
M  END
> <DATABASE_ID>
DB03173

> <DATABASE_NAME>
drugbank

> <ORIGINAL_SOURCE>
PUBCHEM

> <ORIGINAL_SOURCE_URL>
https://pubchem.ncbi.nlm.nih.gov/rest/pug/compound/inchikey/CFSQPEBVGUSQII-UHFFFAOYSA-N/SDF?record_type=3d

> <SMILES>
NC(=[NH2+])C1=CC=C2NC(=CC2=C1)C1=CC=CC(OC2CCCC2)=C1[O-]

> <INCHI_IDENTIFIER>
InChI=1S/C20H21N3O2/c21-20(22)12-8-9-16-13(10-12)11-17(23-16)15-6-3-7-18(19(15)24)25-14-4-1-2-5-14/h3,6-11,14,23-24H,1-2,4-5H2,(H3,21,22)

> <INCHI_KEY>
CFSQPEBVGUSQII-UHFFFAOYSA-N

> <FORMULA>
C20H21N3O2

> <MOLECULAR_WEIGHT>
335.3996

> <EXACT_MASS>
335.163376931

> <JCHEM_ACCEPTOR_COUNT>
3

> <JCHEM_AVERAGE_POLARIZABILITY>
37.91983339179194

> <JCHEM_BIOAVAILABILITY>
1

> <JCHEM_DONOR_COUNT>
3

> <JCHEM_FORMAL_CHARGE>
0

> <JCHEM_GHOSE_FILTER>
1

> <JCHEM_IUPAC>
2-{5-[amino(iminiumyl)methyl]-1H-indol-2-yl}-6-(cyclopentyloxy)benzen-1-olate

> <ALOGPS_LOGP>
1.34

> <JCHEM_LOGP>
3.0064275127472864

> <ALOGPS_LOGS>
-5.59

> <JCHEM_MDDR_LIKE_RULE>
0

> <JCHEM_NUMBER_OF_RINGS>
4

> <JCHEM_PHYSIOLOGICAL_CHARGE>
1

> <JCHEM_PKA>
14.996019994926108

> <JCHEM_PKA_STRONGEST_ACIDIC>
9.655272011836885

> <JCHEM_PKA_STRONGEST_BASIC>
11.225752699158544

> <JCHEM_POLAR_SURFACE_AREA>
99.69000000000001

> <JCHEM_REFRACTIVITY>
120.03829999999999

> <JCHEM_ROTATABLE_BOND_COUNT>
4

> <JCHEM_RULE_OF_FIVE>
1

> <ALOGPS_SOLUBILITY>
1.00e-03 g/l

> <JCHEM_TRADITIONAL_IUPAC>
2-{5-[amino(iminio)methyl]-1H-indol-2-yl}-6-(cyclopentyloxy)benzenolate

> <JCHEM_VEBER_RULE>
0

> <DRUGBANK_ID>
DB03173

> <SECONDARY_ACCESSION_NUMBERS>
EXPT01012

> <DRUG_GROUPS>
experimental

> <GENERIC_NAME>
CRA_10433

$$$$
