38
  -OEChem-10051720223D

 20 19  0     0  0  0  0  0  0999 V2000
   -1.4882   -0.3836   -1.9013 O   0  0  0  0  0  0  0  0  0  0  0  0
    0.5976    1.7797   -0.1673 O   0  0  0  0  0  0  0  0  0  0  0  0
    2.6763    0.4066   -0.3091 O   0  0  0  0  0  0  0  0  0  0  0  0
    1.5008   -1.5052    0.1758 O   0  0  0  0  0  0  0  0  0  0  0  0
   -0.9668   -0.0036    0.4527 C   0  0  0  0  0  0  0  0  0  0  0  0
   -1.3848   -1.0194   -0.6321 C   0  0  0  0  0  0  0  0  0  0  0  0
   -1.9961    1.1352    0.4852 C   0  0  0  0  0  0  0  0  0  0  0  0
   -0.9173   -0.6992    1.8220 C   0  0  0  0  0  0  0  0  0  0  0  0
    0.3902    0.5961    0.0686 C   0  0  0  0  0  0  0  0  0  0  0  0
    1.5884   -0.3065    0.0056 C   0  0  0  0  0  0  0  0  0  0  0  0
   -2.3673   -1.4435   -0.3929 H   0  0  0  0  0  0  0  0  0  0  0  0
   -0.6853   -1.8536   -0.7280 H   0  0  0  0  0  0  0  0  0  0  0  0
   -3.0030    0.7535    0.6888 H   0  0  0  0  0  0  0  0  0  0  0  0
   -2.0350    1.6888   -0.4599 H   0  0  0  0  0  0  0  0  0  0  0  0
   -1.7530    1.8599    1.2715 H   0  0  0  0  0  0  0  0  0  0  0  0
   -1.9225   -0.9824    2.1544 H   0  0  0  0  0  0  0  0  0  0  0  0
   -0.3155   -1.6125    1.8074 H   0  0  0  0  0  0  0  0  0  0  0  0
   -0.4868   -0.0355    2.5803 H   0  0  0  0  0  0  0  0  0  0  0  0
   -1.7726   -1.0616   -2.5378 H   0  0  0  0  0  0  0  0  0  0  0  0
    3.4789   -0.1525   -0.3837 H   0  0  0  0  0  0  0  0  0  0  0  0
  1  6  1  0  0  0  0
  1 19  1  0  0  0  0
  2  9  2  0  0  0  0
  3 10  1  0  0  0  0
  3 20  1  0  0  0  0
  4 10  2  0  0  0  0
  5  6  1  0  0  0  0
  5  7  1  0  0  0  0
  5  8  1  0  0  0  0
  5  9  1  0  0  0  0
  6 11  1  0  0  0  0
  6 12  1  0  0  0  0
  7 13  1  0  0  0  0
  7 14  1  0  0  0  0
  7 15  1  0  0  0  0
  8 16  1  0  0  0  0
  8 17  1  0  0  0  0
  8 18  1  0  0  0  0
  9 10  1  0  0  0  0
M  END
> <DATABASE_ID>
DB03795

> <DATABASE_NAME>
drugbank

> <ORIGINAL_SOURCE>
PUBCHEM

> <ORIGINAL_SOURCE_URL>
https://pubchem.ncbi.nlm.nih.gov/rest/pug/compound/inchikey/PKVVTUWHANFMQC-UHFFFAOYSA-N/SDF?record_type=3d

> <SMILES>
CC(C)(CO)C(=O)C(O)=O

> <INCHI_IDENTIFIER>
InChI=1S/C6H10O4/c1-6(2,3-7)4(8)5(9)10/h7H,3H2,1-2H3,(H,9,10)

> <INCHI_KEY>
PKVVTUWHANFMQC-UHFFFAOYSA-N

> <FORMULA>
C6H10O4

> <MOLECULAR_WEIGHT>
146.1412

> <EXACT_MASS>
146.057908808

> <JCHEM_ACCEPTOR_COUNT>
4

> <JCHEM_AVERAGE_POLARIZABILITY>
13.833096792405735

> <JCHEM_BIOAVAILABILITY>
1

> <JCHEM_DONOR_COUNT>
2

> <JCHEM_FORMAL_CHARGE>
0

> <JCHEM_GHOSE_FILTER>
0

> <JCHEM_IUPAC>
4-hydroxy-3,3-dimethyl-2-oxobutanoic acid

> <ALOGPS_LOGP>
-0.35

> <JCHEM_LOGP>
0.5846392240000005

> <ALOGPS_LOGS>
-0.13

> <JCHEM_MDDR_LIKE_RULE>
0

> <JCHEM_NUMBER_OF_RINGS>
0

> <JCHEM_PHYSIOLOGICAL_CHARGE>
-1

> <JCHEM_PKA>
14.980989916536032

> <JCHEM_PKA_STRONGEST_ACIDIC>
3.245393682919492

> <JCHEM_PKA_STRONGEST_BASIC>
-2.820508568337858

> <JCHEM_POLAR_SURFACE_AREA>
74.6

> <JCHEM_REFRACTIVITY>
33.4668

> <JCHEM_ROTATABLE_BOND_COUNT>
3

> <JCHEM_RULE_OF_FIVE>
1

> <ALOGPS_SOLUBILITY>
1.09e+02 g/l

> <JCHEM_TRADITIONAL_IUPAC>
ketopantoic acid

> <JCHEM_VEBER_RULE>
0

> <DRUGBANK_ID>
DB03795

> <SECONDARY_ACCESSION_NUMBERS>
EXPT01981

> <DRUG_GROUPS>
experimental

> <GENERIC_NAME>
2-Dehydropantoate

$$$$
