1894
  -OEChem-10051720083D

 22 23  0     0  0  0  0  0  0999 V2000
   -3.4725    1.7107   -0.0004 O   0  5  0  0  0  0  0  0  0  0  0  0
   -1.4215    2.4933    0.0004 O   0  0  0  0  0  0  0  0  0  0  0  0
    1.7855   -0.0609    0.0002 N   0  0  0  0  0  0  0  0  0  0  0  0
    0.7133    0.7548    0.0003 N   0  0  0  0  0  0  0  0  0  0  0  0
   -2.2269    1.5255   -0.0001 N   0  3  0  0  0  0  0  0  0  0  0  0
    3.1728    1.8766   -0.0005 N   0  0  0  0  0  0  0  0  0  0  0  0
    4.0675   -0.2863    0.0000 N   0  0  0  0  0  0  0  0  0  0  0  0
    0.1246   -1.4393    0.0000 C   0  0  0  0  0  0  0  0  0  0  0  0
   -0.3454   -0.0745    0.0001 C   0  0  0  0  0  0  0  0  0  0  0  0
    1.4899   -1.3929    0.0000 C   0  0  0  0  0  0  0  0  0  0  0  0
   -1.7240    0.2072    0.0002 C   0  0  0  0  0  0  0  0  0  0  0  0
   -0.6466   -2.5946   -0.0001 C   0  0  0  0  0  0  0  0  0  0  0  0
   -2.5361   -0.9481    0.0000 C   0  0  0  0  0  0  0  0  0  0  0  0
   -2.0206   -2.2827   -0.0001 C   0  0  0  0  0  0  0  0  0  0  0  0
    3.0401    0.5112    0.0001 C   0  0  0  0  0  0  0  0  0  0  0  0
    2.2452   -2.1678    0.0000 H   0  0  0  0  0  0  0  0  0  0  0  0
   -0.2702   -3.6078   -0.0002 H   0  0  0  0  0  0  0  0  0  0  0  0
   -3.6216   -0.8448   -0.0001 H   0  0  0  0  0  0  0  0  0  0  0  0
   -2.7359   -3.1049   -0.0002 H   0  0  0  0  0  0  0  0  0  0  0  0
    4.0870    2.3161   -0.0015 H   0  0  0  0  0  0  0  0  0  0  0  0
    2.3660    2.4919   -0.0014 H   0  0  0  0  0  0  0  0  0  0  0  0
    4.9237    0.2789   -0.0004 H   0  0  0  0  0  0  0  0  0  0  0  0
  1  5  1  0  0  0  0
  2  5  2  0  0  0  0
  3  4  1  0  0  0  0
  3 10  1  0  0  0  0
  3 15  1  0  0  0  0
  4  9  2  0  0  0  0
  5 11  1  0  0  0  0
  6 15  1  0  0  0  0
  6 20  1  0  0  0  0
  6 21  1  0  0  0  0
  7 15  2  0  0  0  0
  7 22  1  0  0  0  0
  8  9  1  0  0  0  0
  8 10  2  0  0  0  0
  8 12  1  0  0  0  0
  9 11  1  0  0  0  0
 10 16  1  0  0  0  0
 11 13  2  0  0  0  0
 12 14  2  0  0  0  0
 12 17  1  0  0  0  0
 13 14  1  0  0  0  0
 13 18  1  0  0  0  0
 14 19  1  0  0  0  0
M  CHG  2   1  -1   5   1
M  END
> <DATABASE_ID>
DB03065

> <DATABASE_NAME>
drugbank

> <ORIGINAL_SOURCE>
PUBCHEM

> <ORIGINAL_SOURCE_URL>
https://pubchem.ncbi.nlm.nih.gov/rest/pug/compound/inchikey/GFYAZUABYOOPCN-UHFFFAOYSA-N/SDF?record_type=3d

> <SMILES>
NC(=N)N1C=C2C=CC=C(C2=N1)[N+]([O-])=O

> <INCHI_IDENTIFIER>
InChI=1S/C8H7N5O2/c9-8(10)12-4-5-2-1-3-6(13(14)15)7(5)11-12/h1-4H,(H3,9,10)

> <INCHI_KEY>
GFYAZUABYOOPCN-UHFFFAOYSA-N

> <FORMULA>
C8H7N5O2

> <MOLECULAR_WEIGHT>
205.1735

> <EXACT_MASS>
205.059974493

> <JCHEM_ACCEPTOR_COUNT>
5

> <JCHEM_AVERAGE_POLARIZABILITY>
18.832368724796645

> <JCHEM_BIOAVAILABILITY>
1

> <JCHEM_DONOR_COUNT>
2

> <JCHEM_FORMAL_CHARGE>
0

> <JCHEM_GHOSE_FILTER>
1

> <JCHEM_IUPAC>
7-nitro-2H-indazole-2-carboximidamide

> <ALOGPS_LOGP>
0.63

> <JCHEM_LOGP>
0.7063661686666669

> <ALOGPS_LOGS>
-2.52

> <JCHEM_MDDR_LIKE_RULE>
0

> <JCHEM_NUMBER_OF_RINGS>
2

> <JCHEM_PHYSIOLOGICAL_CHARGE>
1

> <JCHEM_PKA_STRONGEST_BASIC>
8.660598414949241

> <JCHEM_POLAR_SURFACE_AREA>
113.51

> <JCHEM_REFRACTIVITY>
74.3043

> <JCHEM_ROTATABLE_BOND_COUNT>
1

> <JCHEM_RULE_OF_FIVE>
1

> <ALOGPS_SOLUBILITY>
6.22e-01 g/l

> <JCHEM_TRADITIONAL_IUPAC>
7-nitroindazole-2-carboximidamide

> <JCHEM_VEBER_RULE>
0

> <DRUGBANK_ID>
DB03065

> <SECONDARY_ACCESSION_NUMBERS>
EXPT00312

> <DRUG_GROUPS>
experimental

> <GENERIC_NAME>
7-Nitroindazole-2-Carboxamidine

$$$$
