33791
  -OEChem-10051720133D

 16 17  0     0  0  0  0  0  0999 V2000
    1.5532    2.9425   -0.0024 Cl  0  0  0  0  0  0  0  0  0  0  0  0
   -0.7268   -2.9130   -0.0017 Cl  0  0  0  0  0  0  0  0  0  0  0  0
    3.5595    0.4692    0.0026 Cl  0  0  0  0  0  0  0  0  0  0  0  0
    2.4079   -2.4624    0.0001 Cl  0  0  0  0  0  0  0  0  0  0  0  0
   -2.6641    1.1757    0.0015 O   0  0  0  0  0  0  0  0  0  0  0  0
   -3.1155   -1.0797   -0.0002 O   0  0  0  0  0  0  0  0  0  0  0  0
   -0.3845    1.0828    0.0001 C   0  0  0  0  0  0  0  0  0  0  0  0
   -0.8769   -0.2063    0.0003 C   0  0  0  0  0  0  0  0  0  0  0  0
   -1.5022    2.0433   -0.0001 C   0  0  0  0  0  0  0  0  0  0  0  0
    0.9790    1.3124   -0.0005 C   0  0  0  0  0  0  0  0  0  0  0  0
   -0.0568   -1.3192    0.0001 C   0  0  0  0  0  0  0  0  0  0  0  0
   -2.3302   -0.1532    0.0008 C   0  0  0  0  0  0  0  0  0  0  0  0
    1.8362    0.2078   -0.0004 C   0  0  0  0  0  0  0  0  0  0  0  0
    1.3212   -1.0999   -0.0003 C   0  0  0  0  0  0  0  0  0  0  0  0
   -1.5301    2.6606    0.9019 H   0  0  0  0  0  0  0  0  0  0  0  0
   -1.5312    2.6589   -0.9031 H   0  0  0  0  0  0  0  0  0  0  0  0
  1 10  1  0  0  0  0
  2 11  1  0  0  0  0
  3 13  1  0  0  0  0
  4 14  1  0  0  0  0
  5  9  1  0  0  0  0
  5 12  1  0  0  0  0
  6 12  2  0  0  0  0
  7  8  2  0  0  0  0
  7  9  1  0  0  0  0
  7 10  1  0  0  0  0
  8 11  1  0  0  0  0
  8 12  1  0  0  0  0
  9 15  1  0  0  0  0
  9 16  1  0  0  0  0
 10 13  2  0  0  0  0
 11 14  2  0  0  0  0
 13 14  1  0  0  0  0
M  END
> <DATABASE_ID>
DB03302

> <DATABASE_NAME>
drugbank

> <ORIGINAL_SOURCE>
PUBCHEM

> <ORIGINAL_SOURCE_URL>
https://pubchem.ncbi.nlm.nih.gov/rest/pug/compound/inchikey/NMWKWBPNKPGATC-UHFFFAOYSA-N/SDF?record_type=3d

> <SMILES>
ClC1=C2COC(=O)C2=C(Cl)C(Cl)=C1Cl

> <INCHI_IDENTIFIER>
InChI=1S/C8H2Cl4O2/c9-4-2-1-14-8(13)3(2)5(10)7(12)6(4)11/h1H2

> <INCHI_KEY>
NMWKWBPNKPGATC-UHFFFAOYSA-N

> <FORMULA>
C8H2Cl4O2

> <MOLECULAR_WEIGHT>
271.912

> <EXACT_MASS>
269.880890136

> <JCHEM_ACCEPTOR_COUNT>
1

> <JCHEM_AVERAGE_POLARIZABILITY>
21.650682798531193

> <JCHEM_BIOAVAILABILITY>
1

> <JCHEM_DONOR_COUNT>
0

> <JCHEM_FORMAL_CHARGE>
0

> <JCHEM_GHOSE_FILTER>
0

> <JCHEM_IUPAC>
4,5,6,7-tetrachloro-1,3-dihydro-2-benzofuran-1-one

> <ALOGPS_LOGP>
4.15

> <JCHEM_LOGP>
3.944128786666667

> <ALOGPS_LOGS>
-4.73

> <JCHEM_MDDR_LIKE_RULE>
0

> <JCHEM_NUMBER_OF_RINGS>
2

> <JCHEM_PHYSIOLOGICAL_CHARGE>
0

> <JCHEM_PKA_STRONGEST_ACIDIC>
14.265660238434073

> <JCHEM_PKA_STRONGEST_BASIC>
-7.000756786988578

> <JCHEM_POLAR_SURFACE_AREA>
26.3

> <JCHEM_REFRACTIVITY>
55.85710000000001

> <JCHEM_ROTATABLE_BOND_COUNT>
0

> <JCHEM_RULE_OF_FIVE>
1

> <ALOGPS_SOLUBILITY>
5.02e-03 g/l

> <JCHEM_TRADITIONAL_IUPAC>
tetrachlorophthalide

> <JCHEM_VEBER_RULE>
1

> <DRUGBANK_ID>
DB03302

> <SECONDARY_ACCESSION_NUMBERS>
EXPT02586

> <DRUG_GROUPS>
experimental

> <GENERIC_NAME>
4,5,6,7-Tetrachloro-3h-Isobenzofuran-1-One

$$$$
