656948
  -OEChem-10051720233D

 40 42  0     0  0  0  0  0  0999 V2000
   -7.5534   -0.6045   -0.6199 P   0  0  0  0  0  0  0  0  0  0  0  0
   -5.9573   -0.3846   -0.4788 O   0  0  0  0  0  0  0  0  0  0  0  0
    4.8628   -2.2287    1.4489 O   0  0  0  0  0  0  0  0  0  0  0  0
   -5.9436    0.8409    1.4503 O   0  0  0  0  0  0  0  0  0  0  0  0
   -7.9213   -1.5482    0.6405 O   0  0  0  0  0  0  0  0  0  0  0  0
   -7.6708   -1.6059   -1.8839 O   0  0  0  0  0  0  0  0  0  0  0  0
   -8.3557    0.6586   -0.7338 O   0  0  0  0  0  0  0  0  0  0  0  0
    0.2829    0.3458   -0.1340 N   0  0  0  0  0  0  0  0  0  0  0  0
    3.3087   -0.1794    0.7295 N   0  0  0  0  0  0  0  0  0  0  0  0
    6.4732    0.5373   -0.9467 N   0  0  0  0  0  0  0  0  0  0  0  0
    4.4155    1.7762   -0.9540 N   0  0  0  0  0  0  0  0  0  0  0  0
    6.6980   -1.4957    0.2744 N   0  0  0  0  0  0  0  0  0  0  0  0
    8.4660   -0.6006   -0.9796 N   0  0  0  0  0  0  0  0  0  0  0  0
    1.1906    1.0015    0.7836 C   0  0  0  0  0  0  0  0  0  0  0  0
    2.5995    0.8870    0.3163 C   0  0  0  0  0  0  0  0  0  0  0  0
   -1.0913    0.3347    0.0262 C   0  0  0  0  0  0  0  0  0  0  0  0
    4.5787   -0.2398    0.2803 C   0  0  0  0  0  0  0  0  0  0  0  0
    5.1443    0.7137   -0.5504 C   0  0  0  0  0  0  0  0  0  0  0  0
   -1.6981    0.9791    1.1219 C   0  0  0  0  0  0  0  0  0  0  0  0
   -1.9234   -0.3212   -0.9020 C   0  0  0  0  0  0  0  0  0  0  0  0
    3.1425    1.8465   -0.5098 C   0  0  0  0  0  0  0  0  0  0  0  0
   -3.8888    0.3123    0.3524 C   0  0  0  0  0  0  0  0  0  0  0  0
   -3.0835    0.9678    1.2834 C   0  0  0  0  0  0  0  0  0  0  0  0
   -3.3089   -0.3322   -0.7404 C   0  0  0  0  0  0  0  0  0  0  0  0
    5.3899   -1.3988    0.7145 C   0  0  0  0  0  0  0  0  0  0  0  0
    7.1772   -0.5630   -0.5090 C   0  0  0  0  0  0  0  0  0  0  0  0
   -5.3334    0.3013    0.5203 C   0  0  0  0  0  0  0  0  0  0  0  0
    1.1135    0.5438    1.7780 H   0  0  0  0  0  0  0  0  0  0  0  0
    0.9339    2.0627    0.8935 H   0  0  0  0  0  0  0  0  0  0  0  0
    0.6652   -0.1440   -0.9359 H   0  0  0  0  0  0  0  0  0  0  0  0
   -1.1104    1.5001    1.8729 H   0  0  0  0  0  0  0  0  0  0  0  0
   -1.4875   -0.8286   -1.7599 H   0  0  0  0  0  0  0  0  0  0  0  0
    2.5792    2.7079   -0.8498 H   0  0  0  0  0  0  0  0  0  0  0  0
   -3.5160    1.4754    2.1417 H   0  0  0  0  0  0  0  0  0  0  0  0
   -3.8973   -0.8547   -1.4895 H   0  0  0  0  0  0  0  0  0  0  0  0
    6.8853    1.2348   -1.5535 H   0  0  0  0  0  0  0  0  0  0  0  0
    9.0928   -1.3586   -0.7325 H   0  0  0  0  0  0  0  0  0  0  0  0
    8.8291    0.1264   -1.5862 H   0  0  0  0  0  0  0  0  0  0  0  0
   -8.8625   -1.7641    0.8129 H   0  0  0  0  0  0  0  0  0  0  0  0
   -8.5601   -1.8249   -2.2350 H   0  0  0  0  0  0  0  0  0  0  0  0
  1  2  1  0  0  0  0
  1  5  1  0  0  0  0
  1  6  1  0  0  0  0
  1  7  2  0  0  0  0
  2 27  1  0  0  0  0
  3 25  2  0  0  0  0
  4 27  2  0  0  0  0
  5 39  1  0  0  0  0
  6 40  1  0  0  0  0
  8 14  1  0  0  0  0
  8 16  1  0  0  0  0
  8 30  1  0  0  0  0
  9 15  1  0  0  0  0
  9 17  2  0  0  0  0
 10 18  1  0  0  0  0
 10 26  1  0  0  0  0
 10 36  1  0  0  0  0
 11 18  2  0  0  0  0
 11 21  1  0  0  0  0
 12 25  1  0  0  0  0
 12 26  2  0  0  0  0
 13 26  1  0  0  0  0
 13 37  1  0  0  0  0
 13 38  1  0  0  0  0
 14 15  1  0  0  0  0
 14 28  1  0  0  0  0
 14 29  1  0  0  0  0
 15 21  2  0  0  0  0
 16 19  2  0  0  0  0
 16 20  1  0  0  0  0
 17 18  1  0  0  0  0
 17 25  1  0  0  0  0
 19 23  1  0  0  0  0
 19 31  1  0  0  0  0
 20 24  2  0  0  0  0
 20 32  1  0  0  0  0
 21 33  1  0  0  0  0
 22 23  2  0  0  0  0
 22 24  1  0  0  0  0
 22 27  1  0  0  0  0
 23 34  1  0  0  0  0
 24 35  1  0  0  0  0
M  END
> <DATABASE_ID>
DB03830

> <DATABASE_NAME>
drugbank

> <ORIGINAL_SOURCE>
PUBCHEM

> <ORIGINAL_SOURCE_URL>
https://pubchem.ncbi.nlm.nih.gov/rest/pug/compound/inchikey/DNKVHXNVVYQUDC-UHFFFAOYSA-N/SDF?record_type=3d

> <SMILES>
NC1=NC2=NC=C(CNC3=CC=C(C=C3)C(=O)OP(O)(O)=O)N=C2C(=O)N1

> <INCHI_IDENTIFIER>
InChI=1S/C14H13N6O6P/c15-14-19-11-10(12(21)20-14)18-9(6-17-11)5-16-8-3-1-7(2-4-8)13(22)26-27(23,24)25/h1-4,6,16H,5H2,(H2,23,24,25)(H3,15,17,19,20,21)

> <INCHI_KEY>
DNKVHXNVVYQUDC-UHFFFAOYSA-N

> <FORMULA>
C14H13N6O6P

> <MOLECULAR_WEIGHT>
392.2634

> <EXACT_MASS>
392.06341869

> <JCHEM_ACCEPTOR_COUNT>
10

> <JCHEM_AVERAGE_POLARIZABILITY>
35.77507864873863

> <JCHEM_BIOAVAILABILITY>
1

> <JCHEM_DONOR_COUNT>
5

> <JCHEM_FORMAL_CHARGE>
0

> <JCHEM_GHOSE_FILTER>
0

> <JCHEM_IUPAC>
(4-{[(2-amino-4-oxo-3,4-dihydropteridin-6-yl)methyl]amino}benzoyloxy)phosphonic acid

> <ALOGPS_LOGP>
0.18

> <JCHEM_LOGP>
-1.021429388674735

> <ALOGPS_LOGS>
-2.88

> <JCHEM_MDDR_LIKE_RULE>
1

> <JCHEM_NUMBER_OF_RINGS>
3

> <JCHEM_PHYSIOLOGICAL_CHARGE>
-2

> <JCHEM_PKA>
6.2306670861380145

> <JCHEM_PKA_STRONGEST_ACIDIC>
1.1647844901371815

> <JCHEM_PKA_STRONGEST_BASIC>
1.826440350280137

> <JCHEM_POLAR_SURFACE_AREA>
189.11999999999998

> <JCHEM_REFRACTIVITY>
94.51649999999997

> <JCHEM_ROTATABLE_BOND_COUNT>
6

> <JCHEM_RULE_OF_FIVE>
1

> <ALOGPS_SOLUBILITY>
5.16e-01 g/l

> <JCHEM_TRADITIONAL_IUPAC>
phosphorylated dihydropteroate

> <JCHEM_VEBER_RULE>
0

> <DRUGBANK_ID>
DB03830

> <SECONDARY_ACCESSION_NUMBERS>
EXPT02528

> <DRUG_GROUPS>
experimental

> <GENERIC_NAME>
Phosphorylated Dihydropteroate

$$$$
