1567
  -OEChem-10051720133D

 10  9  0     0  0  0  0  0  0999 V2000
   -1.6964    0.5628    0.1185 S   0  0  0  0  0  0  0  0  0  0  0  0
    1.3766    0.7130   -0.1644 O   0  0  0  0  0  0  0  0  0  0  0  0
   -0.5232   -0.7676   -0.2845 C   0  0  0  0  0  0  0  0  0  0  0  0
    0.8430   -0.5082    0.3304 C   0  0  0  0  0  0  0  0  0  0  0  0
   -0.9290   -1.7178    0.0746 H   0  0  0  0  0  0  0  0  0  0  0  0
   -0.4438   -0.8123   -1.3752 H   0  0  0  0  0  0  0  0  0  0  0  0
    1.5309   -1.3167    0.0626 H   0  0  0  0  0  0  0  0  0  0  0  0
    0.7847   -0.4521    1.4227 H   0  0  0  0  0  0  0  0  0  0  0  0
   -1.0091    1.5559   -0.4647 H   0  0  0  0  0  0  0  0  0  0  0  0
    2.2497    0.8302    0.2474 H   0  0  0  0  0  0  0  0  0  0  0  0
  1  3  1  0  0  0  0
  1  9  1  0  0  0  0
  2  4  1  0  0  0  0
  2 10  1  0  0  0  0
  3  4  1  0  0  0  0
  3  5  1  0  0  0  0
  3  6  1  0  0  0  0
  4  7  1  0  0  0  0
  4  8  1  0  0  0  0
M  END
> <DATABASE_ID>
DB03345

> <DATABASE_NAME>
drugbank

> <ORIGINAL_SOURCE>
PUBCHEM

> <ORIGINAL_SOURCE_URL>
https://pubchem.ncbi.nlm.nih.gov/rest/pug/compound/inchikey/DGVVWUTYPXICAM-UHFFFAOYSA-N/SDF?record_type=3d

> <SMILES>
OCCS

> <INCHI_IDENTIFIER>
InChI=1S/C2H6OS/c3-1-2-4/h3-4H,1-2H2

> <INCHI_KEY>
DGVVWUTYPXICAM-UHFFFAOYSA-N

> <FORMULA>
C2H6OS

> <MOLECULAR_WEIGHT>
78.133

> <EXACT_MASS>
78.013935504

> <JCHEM_ACCEPTOR_COUNT>
1

> <JCHEM_AVERAGE_POLARIZABILITY>
8.193986780152136

> <JCHEM_BIOAVAILABILITY>
1

> <JCHEM_DONOR_COUNT>
2

> <JCHEM_FORMAL_CHARGE>
0

> <JCHEM_GHOSE_FILTER>
0

> <JCHEM_IUPAC>
2-sulfanylethan-1-ol

> <ALOGPS_LOGP>
0.11

> <JCHEM_LOGP>
-0.11321714466666666

> <ALOGPS_LOGS>
-0.43

> <JCHEM_MDDR_LIKE_RULE>
0

> <JCHEM_NUMBER_OF_RINGS>
0

> <JCHEM_PHYSIOLOGICAL_CHARGE>
0

> <JCHEM_PKA>
16.2457525717659

> <JCHEM_PKA_STRONGEST_ACIDIC>
9.969782182709897

> <JCHEM_PKA_STRONGEST_BASIC>
-2.546776533865539

> <JCHEM_POLAR_SURFACE_AREA>
20.23

> <JCHEM_REFRACTIVITY>
20.7362

> <JCHEM_ROTATABLE_BOND_COUNT>
1

> <JCHEM_RULE_OF_FIVE>
1

> <ALOGPS_SOLUBILITY>
2.92e+01 g/l

> <JCHEM_TRADITIONAL_IUPAC>
Î²-mercaptoethanol

> <JCHEM_VEBER_RULE>
1

> <DRUGBANK_ID>
DB03345

> <SECONDARY_ACCESSION_NUMBERS>
EXPT02882; DB03131

> <DRUG_GROUPS>
experimental

> <GENERIC_NAME>
Mercaptoethanol

> <SYNONYMS>
2-mercaptoethanol; beta-mercaptoethanol; Thiomonoglycol

$$$$
