449101
  -OEChem-10051720233D

 21 21  0     1  0  0  0  0  0999 V2000
    0.7566    1.2412   -0.3022 O   0  0  0  0  0  0  0  0  0  0  0  0
   -0.3513   -2.1554    0.4408 O   0  0  0  0  0  0  0  0  0  0  0  0
   -2.7852   -0.6582   -0.4145 O   0  0  0  0  0  0  0  0  0  0  0  0
    3.2494    0.0741    0.0358 O   0  0  0  0  0  0  0  0  0  0  0  0
   -0.3071    1.9196    0.4331 N   0  0  0  0  0  0  0  0  0  0  0  0
   -0.3826   -0.8760   -0.1828 C   0  0  2  0  0  0  0  0  0  0  0  0
    0.8725   -0.0881    0.2163 C   0  0  1  0  0  0  0  0  0  0  0  0
   -1.6453   -0.1160    0.2475 C   0  0  1  0  0  0  0  0  0  0  0  0
   -1.5456    1.3676   -0.1107 C   0  0  0  0  0  0  0  0  0  0  0  0
    2.1386   -0.7088   -0.3632 C   0  0  0  0  0  0  0  0  0  0  0  0
   -0.4052   -1.0338   -1.2686 H   0  0  0  0  0  0  0  0  0  0  0  0
    0.9806   -0.0430    1.3094 H   0  0  0  0  0  0  0  0  0  0  0  0
   -1.8044   -0.2432    1.3258 H   0  0  0  0  0  0  0  0  0  0  0  0
   -1.5966    1.5117   -1.1978 H   0  0  0  0  0  0  0  0  0  0  0  0
   -2.4034    1.9063    0.3079 H   0  0  0  0  0  0  0  0  0  0  0  0
    2.1138   -0.7037   -1.4576 H   0  0  0  0  0  0  0  0  0  0  0  0
    2.2890   -1.7364   -0.0187 H   0  0  0  0  0  0  0  0  0  0  0  0
   -0.1845    2.8764    0.1046 H   0  0  0  0  0  0  0  0  0  0  0  0
   -1.1724   -2.6168    0.1987 H   0  0  0  0  0  0  0  0  0  0  0  0
   -3.5650   -0.1641   -0.1087 H   0  0  0  0  0  0  0  0  0  0  0  0
    3.2985    0.0441    1.0065 H   0  0  0  0  0  0  0  0  0  0  0  0
  1  5  1  0  0  0  0
  1  7  1  0  0  0  0
  2  6  1  0  0  0  0
  2 19  1  0  0  0  0
  3  8  1  0  0  0  0
  3 20  1  0  0  0  0
  4 10  1  0  0  0  0
  4 21  1  0  0  0  0
  5  9  1  0  0  0  0
  5 18  1  0  0  0  0
  6  7  1  0  0  0  0
  6  8  1  0  0  0  0
  6 11  1  0  0  0  0
  7 10  1  0  0  0  0
  7 12  1  0  0  0  0
  8  9  1  0  0  0  0
  8 13  1  0  0  0  0
  9 14  1  0  0  0  0
  9 15  1  0  0  0  0
 10 16  1  0  0  0  0
 10 17  1  0  0  0  0
M  END
> <DATABASE_ID>
DB03862

> <DATABASE_NAME>
drugbank

> <ORIGINAL_SOURCE>
PUBCHEM

> <ORIGINAL_SOURCE_URL>
https://pubchem.ncbi.nlm.nih.gov/rest/pug/compound/inchikey/KHVCOYGKHDJPBZ-WDCZJNDASA-N/SDF?record_type=3d

> <SMILES>
OC[C@H]1ONC[C@@H](O)[C@@H]1O

> <INCHI_IDENTIFIER>
InChI=1S/C5H11NO4/c7-2-4-5(9)3(8)1-6-10-4/h3-9H,1-2H2/t3-,4-,5+/m1/s1

> <INCHI_KEY>
KHVCOYGKHDJPBZ-WDCZJNDASA-N

> <FORMULA>
C5H11NO4

> <MOLECULAR_WEIGHT>
149.1451

> <EXACT_MASS>
149.068807845

> <JCHEM_ACCEPTOR_COUNT>
5

> <JCHEM_AVERAGE_POLARIZABILITY>
13.860715443769076

> <JCHEM_BIOAVAILABILITY>
1

> <JCHEM_DONOR_COUNT>
4

> <JCHEM_FORMAL_CHARGE>
0

> <JCHEM_GHOSE_FILTER>
0

> <JCHEM_IUPAC>
(4R,5S,6R)-6-(hydroxymethyl)-1,2-oxazinane-4,5-diol

> <ALOGPS_LOGP>
-1.95

> <JCHEM_LOGP>
-2.2013893606666666

> <ALOGPS_LOGS>
0.72

> <JCHEM_MDDR_LIKE_RULE>
0

> <JCHEM_NUMBER_OF_RINGS>
1

> <JCHEM_PHYSIOLOGICAL_CHARGE>
0

> <JCHEM_PKA>
14.314390819399822

> <JCHEM_PKA_STRONGEST_ACIDIC>
12.942457355488905

> <JCHEM_PKA_STRONGEST_BASIC>
4.0646717044359475

> <JCHEM_POLAR_SURFACE_AREA>
81.95

> <JCHEM_REFRACTIVITY>
42.57699999999999

> <JCHEM_ROTATABLE_BOND_COUNT>
1

> <JCHEM_RULE_OF_FIVE>
1

> <ALOGPS_SOLUBILITY>
7.83e+02 g/l

> <JCHEM_TRADITIONAL_IUPAC>
tetrahydrooxazine

> <JCHEM_VEBER_RULE>
0

> <DRUGBANK_ID>
DB03862

> <SECONDARY_ACCESSION_NUMBERS>
EXPT02466

> <DRUG_GROUPS>
experimental

> <GENERIC_NAME>
Tetrahydrooxazine

$$$$
