73271
  -OEChem-10051720073D

 18 18  0     0  0  0  0  0  0999 V2000
    2.1661    2.3700    0.2023 O   0  0  0  0  0  0  0  0  0  0  0  0
    2.3984   -2.2431    0.2258 O   0  0  0  0  0  0  0  0  0  0  0  0
   -3.9405    0.0096   -0.1579 O   0  0  0  0  0  0  0  0  0  0  0  0
   -2.2969   -0.0531    1.4135 O   0  0  0  0  0  0  0  0  0  0  0  0
    0.3064    1.1358   -0.3551 N   0  0  0  0  0  0  0  0  0  0  0  0
    2.3080    0.0682    0.2212 N   0  0  0  0  0  0  0  0  0  0  0  0
   -0.3103   -0.0783   -0.5472 C   0  0  0  0  0  0  0  0  0  0  0  0
   -1.7461   -0.0295   -0.9679 C   0  0  0  0  0  0  0  0  0  0  0  0
    0.3525   -1.2281   -0.3638 C   0  0  0  0  0  0  0  0  0  0  0  0
    1.6303    1.2739    0.0341 C   0  0  0  0  0  0  0  0  0  0  0  0
    1.7744   -1.2003    0.0532 C   0  0  0  0  0  0  0  0  0  0  0  0
   -2.6422   -0.0252    0.2417 C   0  0  0  0  0  0  0  0  0  0  0  0
   -1.9929   -0.9098   -1.5737 H   0  0  0  0  0  0  0  0  0  0  0  0
   -1.9467    0.8633   -1.5709 H   0  0  0  0  0  0  0  0  0  0  0  0
   -0.2409    1.9786   -0.5051 H   0  0  0  0  0  0  0  0  0  0  0  0
   -0.1141   -2.1957   -0.5084 H   0  0  0  0  0  0  0  0  0  0  0  0
    3.2813    0.1265    0.5069 H   0  0  0  0  0  0  0  0  0  0  0  0
   -4.5576    0.0110    0.6048 H   0  0  0  0  0  0  0  0  0  0  0  0
  1 10  2  0  0  0  0
  2 11  2  0  0  0  0
  3 12  1  0  0  0  0
  3 18  1  0  0  0  0
  4 12  2  0  0  0  0
  5  7  1  0  0  0  0
  5 10  1  0  0  0  0
  5 15  1  0  0  0  0
  6 10  1  0  0  0  0
  6 11  1  0  0  0  0
  6 17  1  0  0  0  0
  7  8  1  0  0  0  0
  7  9  2  0  0  0  0
  8 12  1  0  0  0  0
  8 13  1  0  0  0  0
  8 14  1  0  0  0  0
  9 11  1  0  0  0  0
  9 16  1  0  0  0  0
M  END
> <DATABASE_ID>
DB03048

> <DATABASE_NAME>
drugbank

> <ORIGINAL_SOURCE>
PUBCHEM

> <ORIGINAL_SOURCE_URL>
https://pubchem.ncbi.nlm.nih.gov/rest/pug/compound/inchikey/NQAUNZZEYKWTHM-UHFFFAOYSA-N/SDF?record_type=3d

> <SMILES>
OC(=O)CC1=CC(=O)NC(=O)N1

> <INCHI_IDENTIFIER>
InChI=1S/C6H6N2O4/c9-4-1-3(2-5(10)11)7-6(12)8-4/h1H,2H2,(H,10,11)(H2,7,8,9,12)

> <INCHI_KEY>
NQAUNZZEYKWTHM-UHFFFAOYSA-N

> <FORMULA>
C6H6N2O4

> <MOLECULAR_WEIGHT>
170.1228

> <EXACT_MASS>
170.03275669

> <JCHEM_ACCEPTOR_COUNT>
4

> <JCHEM_AVERAGE_POLARIZABILITY>
14.314315392855862

> <JCHEM_BIOAVAILABILITY>
1

> <JCHEM_DONOR_COUNT>
3

> <JCHEM_FORMAL_CHARGE>
0

> <JCHEM_GHOSE_FILTER>
0

> <JCHEM_IUPAC>
2-(2,6-dioxo-1,2,3,6-tetrahydropyrimidin-4-yl)acetic acid

> <ALOGPS_LOGP>
-0.83

> <JCHEM_LOGP>
-1.2950301999999998

> <ALOGPS_LOGS>
-1.63

> <JCHEM_MDDR_LIKE_RULE>
0

> <JCHEM_NUMBER_OF_RINGS>
1

> <JCHEM_PHYSIOLOGICAL_CHARGE>
-1

> <JCHEM_PKA>
10.037824392370592

> <JCHEM_PKA_STRONGEST_ACIDIC>
3.770268185517169

> <JCHEM_PKA_STRONGEST_BASIC>
-5.325793563773345

> <JCHEM_POLAR_SURFACE_AREA>
95.5

> <JCHEM_REFRACTIVITY>
37.8238

> <JCHEM_ROTATABLE_BOND_COUNT>
2

> <JCHEM_RULE_OF_FIVE>
1

> <ALOGPS_SOLUBILITY>
4.00e+00 g/l

> <JCHEM_TRADITIONAL_IUPAC>
uracil-6-acetic acid

> <JCHEM_VEBER_RULE>
0

> <DRUGBANK_ID>
DB03048

> <SECONDARY_ACCESSION_NUMBERS>
EXPT03164

> <DRUG_GROUPS>
experimental

> <GENERIC_NAME>
6-Carboxymethyluracil

$$$$
