447832
  -OEChem-10051720113D

 46 48  0     1  0  0  0  0  0999 V2000
    4.6575   -0.1584   -0.6720 P   0  0  2  0  0  0  0  0  0  0  0  0
    0.4870    1.0487   -0.7470 O   0  0  0  0  0  0  0  0  0  0  0  0
   -0.9238    3.8508   -0.0750 O   0  0  0  0  0  0  0  0  0  0  0  0
    1.1006    3.5777    1.7304 O   0  0  0  0  0  0  0  0  0  0  0  0
    3.2894    0.7006   -0.7822 O   0  0  0  0  0  0  0  0  0  0  0  0
    4.2870   -1.4105    0.2861 O   0  0  0  0  0  0  0  0  0  0  0  0
    5.6197    0.7464    0.2637 O   0  0  0  0  0  0  0  0  0  0  0  0
    5.2674   -0.5399   -1.9904 O   0  0  0  0  0  0  0  0  0  0  0  0
   -1.6750    0.3228   -0.0887 N   0  0  0  0  0  0  0  0  0  0  0  0
   -2.1962   -1.6359    0.8440 N   0  0  0  0  0  0  0  0  0  0  0  0
   -3.8270    0.9084   -1.0525 N   0  0  0  0  0  0  0  0  0  0  0  0
   -5.5011   -0.8077   -0.5957 N   0  0  0  0  0  0  0  0  0  0  0  0
   -5.0039   -2.7872    0.6537 N   0  0  0  0  0  0  0  0  0  0  0  0
   -0.8110    2.5816    0.5666 C   0  0  2  0  0  0  0  0  0  0  0  0
    0.5658    2.3948    1.1761 C   0  0  1  0  0  0  0  0  0  0  0  0
   -0.8677    1.4763   -0.4894 C   0  0  1  0  0  0  0  0  0  0  0  0
    1.3783    1.8995   -0.0077 C   0  0  1  0  0  0  0  0  0  0  0  0
    2.6183    1.1206    0.3929 C   0  0  0  0  0  0  0  0  0  0  0  0
   -2.9973    0.1108   -0.3632 C   0  0  0  0  0  0  0  0  0  0  0  0
   -1.2395   -0.7549    0.6379 C   0  0  0  0  0  0  0  0  0  0  0  0
   -3.3004   -1.1075    0.2237 C   0  0  0  0  0  0  0  0  0  0  0  0
   -4.6082   -1.5625    0.0888 C   0  0  0  0  0  0  0  0  0  0  0  0
   -5.0614    0.3635   -1.1162 C   0  0  0  0  0  0  0  0  0  0  0  0
    3.3619   -2.3733   -0.1889 C   0  0  0  0  0  0  0  0  0  0  0  0
    3.1752   -3.4432    0.8759 C   0  0  0  0  0  0  0  0  0  0  0  0
    2.2044   -4.5214    0.4290 C   0  0  0  0  0  0  0  0  0  0  0  0
   -1.6056    2.5288    1.3178 H   0  0  0  0  0  0  0  0  0  0  0  0
    0.5118    1.6260    1.9569 H   0  0  0  0  0  0  0  0  0  0  0  0
   -1.2780    1.8318   -1.4416 H   0  0  0  0  0  0  0  0  0  0  0  0
    1.6672    2.7263   -0.6695 H   0  0  0  0  0  0  0  0  0  0  0  0
    3.2907    1.7433    0.9904 H   0  0  0  0  0  0  0  0  0  0  0  0
    2.3420    0.2349    0.9734 H   0  0  0  0  0  0  0  0  0  0  0  0
   -1.8078    3.8941   -0.4782 H   0  0  0  0  0  0  0  0  0  0  0  0
    1.9924    3.3740    2.0590 H   0  0  0  0  0  0  0  0  0  0  0  0
   -0.2222   -0.8470    0.9937 H   0  0  0  0  0  0  0  0  0  0  0  0
   -5.8027    0.9418   -1.6575 H   0  0  0  0  0  0  0  0  0  0  0  0
    2.4086   -1.8835   -0.4127 H   0  0  0  0  0  0  0  0  0  0  0  0
    3.7518   -2.8148   -1.1121 H   0  0  0  0  0  0  0  0  0  0  0  0
   -5.9600   -3.0961    0.5425 H   0  0  0  0  0  0  0  0  0  0  0  0
   -4.3396   -3.3522    1.1653 H   0  0  0  0  0  0  0  0  0  0  0  0
    6.0970    1.5028   -0.1390 H   0  0  0  0  0  0  0  0  0  0  0  0
    4.1450   -3.8933    1.1197 H   0  0  0  0  0  0  0  0  0  0  0  0
    2.8163   -2.9798    1.8027 H   0  0  0  0  0  0  0  0  0  0  0  0
    2.5639   -5.0227   -0.4753 H   0  0  0  0  0  0  0  0  0  0  0  0
    2.0887   -5.2764    1.2128 H   0  0  0  0  0  0  0  0  0  0  0  0
    1.2176   -4.0971    0.2178 H   0  0  0  0  0  0  0  0  0  0  0  0
  1  5  1  0  0  0  0
  1  6  1  0  0  0  0
  1  7  1  0  0  0  0
  1  8  2  0  0  0  0
  2 16  1  0  0  0  0
  2 17  1  0  0  0  0
  3 14  1  0  0  0  0
  3 33  1  0  0  0  0
  4 15  1  0  0  0  0
  4 34  1  0  0  0  0
  5 18  1  0  0  0  0
  6 24  1  0  0  0  0
  7 41  1  0  0  0  0
  9 16  1  0  0  0  0
  9 19  1  0  0  0  0
  9 20  1  0  0  0  0
 10 20  2  0  0  0  0
 10 21  1  0  0  0  0
 11 19  2  0  0  0  0
 11 23  1  0  0  0  0
 12 22  1  0  0  0  0
 12 23  2  0  0  0  0
 13 22  1  0  0  0  0
 13 39  1  0  0  0  0
 13 40  1  0  0  0  0
 14 15  1  0  0  0  0
 14 16  1  0  0  0  0
 14 27  1  0  0  0  0
 15 17  1  0  0  0  0
 15 28  1  0  0  0  0
 16 29  1  0  0  0  0
 17 18  1  0  0  0  0
 17 30  1  0  0  0  0
 18 31  1  0  0  0  0
 18 32  1  0  0  0  0
 19 21  1  0  0  0  0
 20 35  1  0  0  0  0
 21 22  2  0  0  0  0
 23 36  1  0  0  0  0
 24 25  1  0  0  0  0
 24 37  1  0  0  0  0
 24 38  1  0  0  0  0
 25 26  1  0  0  0  0
 25 42  1  0  0  0  0
 25 43  1  0  0  0  0
 26 44  1  0  0  0  0
 26 45  1  0  0  0  0
 26 46  1  0  0  0  0
M  END
> <DATABASE_ID>
DB03230

> <DATABASE_NAME>
drugbank

> <ORIGINAL_SOURCE>
PUBCHEM

> <ORIGINAL_SOURCE_URL>
https://pubchem.ncbi.nlm.nih.gov/rest/pug/compound/inchikey/XAMXMSZRQHPMRX-QYVSTXNMSA-N/SDF?record_type=3d

> <SMILES>
[H][C@]1(COP(O)(=O)OCCC)O[C@@]([H])(N2C=NC3=C(N)N=CN=C23)[C@]([H])(O)[C@]1([H])O

> <INCHI_IDENTIFIER>
InChI=1S/C13H20N5O7P/c1-2-3-23-26(21,22)24-4-7-9(19)10(20)13(25-7)18-6-17-8-11(14)15-5-16-12(8)18/h5-7,9-10,13,19-20H,2-4H2,1H3,(H,21,22)(H2,14,15,16)/t7-,9-,10-,13-/m1/s1

> <INCHI_KEY>
XAMXMSZRQHPMRX-QYVSTXNMSA-N

> <FORMULA>
C13H20N5O7P

> <MOLECULAR_WEIGHT>
389.301

> <EXACT_MASS>
389.110034531

> <JCHEM_ACCEPTOR_COUNT>
9

> <JCHEM_AVERAGE_POLARIZABILITY>
35.44767235636917

> <JCHEM_BIOAVAILABILITY>
1

> <JCHEM_DONOR_COUNT>
4

> <JCHEM_FORMAL_CHARGE>
0

> <JCHEM_GHOSE_FILTER>
0

> <JCHEM_IUPAC>
{[(2R,3S,4R,5R)-5-(6-amino-9H-purin-9-yl)-3,4-dihydroxyoxolan-2-yl]methoxy}(propoxy)phosphinic acid

> <ALOGPS_LOGP>
-2.41

> <JCHEM_LOGP>
-3.6086801471522363

> <ALOGPS_LOGS>
-2.12

> <JCHEM_MDDR_LIKE_RULE>
1

> <JCHEM_NUMBER_OF_RINGS>
3

> <JCHEM_PHYSIOLOGICAL_CHARGE>
-1

> <JCHEM_PKA>
12.457192450176215

> <JCHEM_PKA_STRONGEST_ACIDIC>
1.9155343490462498

> <JCHEM_PKA_STRONGEST_BASIC>
4.9886479626889715

> <JCHEM_POLAR_SURFACE_AREA>
175.06999999999996

> <JCHEM_REFRACTIVITY>
87.82339999999999

> <JCHEM_ROTATABLE_BOND_COUNT>
7

> <JCHEM_RULE_OF_FIVE>
1

> <ALOGPS_SOLUBILITY>
2.98e+00 g/l

> <JCHEM_TRADITIONAL_IUPAC>
[(2R,3S,4R,5R)-5-(6-aminopurin-9-yl)-3,4-dihydroxyoxolan-2-yl]methoxy(propoxy)phosphinic acid

> <JCHEM_VEBER_RULE>
0

> <DRUGBANK_ID>
DB03230

> <SECONDARY_ACCESSION_NUMBERS>
EXPT02666

> <DRUG_GROUPS>
experimental

> <GENERIC_NAME>
Adenosine-5'-Propylphosphate

$$$$
