6027
  -OEChem-10051720143D

 20 20  0     1  0  0  0  0  0999 V2000
   -0.6204   -1.6154    0.7459 O   0  0  0  0  0  0  0  0  0  0  0  0
    1.2279    2.0399    0.2078 O   0  0  0  0  0  0  0  0  0  0  0  0
   -1.6420    1.8056   -0.0968 O   0  0  0  0  0  0  0  0  0  0  0  0
    2.5933   -0.4580   -0.5668 O   0  0  0  0  0  0  0  0  0  0  0  0
   -1.9031   -0.7992   -1.0730 O   0  0  0  0  0  0  0  0  0  0  0  0
    0.5783    0.8389   -0.2127 C   0  0  2  0  0  0  0  0  0  0  0  0
   -0.8016    0.7927    0.4451 C   0  0  2  0  0  0  0  0  0  0  0  0
    1.4116   -0.3677    0.2217 C   0  0  1  0  0  0  0  0  0  0  0  0
   -1.4729   -0.5712    0.2681 C   0  0  2  0  0  0  0  0  0  0  0  0
    0.6289   -1.6654    0.0608 C   0  0  0  0  0  0  0  0  0  0  0  0
    0.4881    0.8953   -1.3040 H   0  0  0  0  0  0  0  0  0  0  0  0
   -0.6891    0.9994    1.5174 H   0  0  0  0  0  0  0  0  0  0  0  0
    1.7210   -0.2429    1.2660 H   0  0  0  0  0  0  0  0  0  0  0  0
   -2.3790   -0.5839    0.8851 H   0  0  0  0  0  0  0  0  0  0  0  0
    0.4639   -1.9088   -0.9963 H   0  0  0  0  0  0  0  0  0  0  0  0
    1.2074   -2.4995    0.4737 H   0  0  0  0  0  0  0  0  0  0  0  0
    2.1166    2.0415   -0.1872 H   0  0  0  0  0  0  0  0  0  0  0  0
   -1.1820    2.6552    0.0132 H   0  0  0  0  0  0  0  0  0  0  0  0
    2.3280   -0.5475   -1.4981 H   0  0  0  0  0  0  0  0  0  0  0  0
   -2.6618   -1.4057   -1.0322 H   0  0  0  0  0  0  0  0  0  0  0  0
  1  9  1  0  0  0  0
  1 10  1  0  0  0  0
  2  6  1  0  0  0  0
  2 17  1  0  0  0  0
  3  7  1  0  0  0  0
  3 18  1  0  0  0  0
  4  8  1  0  0  0  0
  4 19  1  0  0  0  0
  5  9  1  0  0  0  0
  5 20  1  0  0  0  0
  6  7  1  0  0  0  0
  6  8  1  0  0  0  0
  6 11  1  0  0  0  0
  7  9  1  0  0  0  0
  7 12  1  0  0  0  0
  8 10  1  0  0  0  0
  8 13  1  0  0  0  0
  9 14  1  0  0  0  0
 10 15  1  0  0  0  0
 10 16  1  0  0  0  0
M  END
> <DATABASE_ID>
DB03389

> <DATABASE_NAME>
drugbank

> <ORIGINAL_SOURCE>
PUBCHEM

> <ORIGINAL_SOURCE_URL>
https://pubchem.ncbi.nlm.nih.gov/rest/pug/compound/inchikey/SRBFZHDQGSBBOR-LECHCGJUSA-N/SDF?record_type=3d

> <SMILES>
O[C@@H]1CO[C@H](O)[C@H](O)[C@H]1O

> <INCHI_IDENTIFIER>
InChI=1S/C5H10O5/c6-2-1-10-5(9)4(8)3(2)7/h2-9H,1H2/t2-,3+,4-,5+/m1/s1

> <INCHI_KEY>
SRBFZHDQGSBBOR-LECHCGJUSA-N

> <FORMULA>
C5H10O5

> <MOLECULAR_WEIGHT>
150.1299

> <EXACT_MASS>
150.05282343

> <JCHEM_ACCEPTOR_COUNT>
5

> <JCHEM_AVERAGE_POLARIZABILITY>
13.184993960607123

> <JCHEM_BIOAVAILABILITY>
1

> <JCHEM_DONOR_COUNT>
4

> <JCHEM_FORMAL_CHARGE>
0

> <JCHEM_GHOSE_FILTER>
0

> <JCHEM_IUPAC>
(2S,3R,4S,5R)-oxane-2,3,4,5-tetrol

> <ALOGPS_LOGP>
-2.57

> <JCHEM_LOGP>
-2.302204276

> <ALOGPS_LOGS>
0.91

> <JCHEM_MDDR_LIKE_RULE>
0

> <JCHEM_NUMBER_OF_RINGS>
1

> <JCHEM_PHYSIOLOGICAL_CHARGE>
0

> <JCHEM_PKA>
12.786263151759016

> <JCHEM_PKA_STRONGEST_ACIDIC>
11.310624247742409

> <JCHEM_PKA_STRONGEST_BASIC>
-3.5265718350182684

> <JCHEM_POLAR_SURFACE_AREA>
90.15

> <JCHEM_REFRACTIVITY>
29.9609

> <JCHEM_ROTATABLE_BOND_COUNT>
0

> <JCHEM_RULE_OF_FIVE>
1

> <ALOGPS_SOLUBILITY>
1.22e+03 g/l

> <JCHEM_TRADITIONAL_IUPAC>
Î±-D-xylose

> <JCHEM_VEBER_RULE>
0

> <DRUGBANK_ID>
DB03389

> <SECONDARY_ACCESSION_NUMBERS>
EXPT03270

> <DRUG_GROUPS>
experimental

> <GENERIC_NAME>
alpha-D-Xylopyranose

$$$$
