53001
  -OEChem-10051720083D

 29 30  0     0  0  0  0  0  0999 V2000
    0.8722   -1.1528   -0.9094 O   0  0  0  0  0  0  0  0  0  0  0  0
   -4.6632    1.6891   -0.2836 O   0  0  0  0  0  0  0  0  0  0  0  0
   -5.0880   -0.0337    1.1368 O   0  0  0  0  0  0  0  0  0  0  0  0
    3.4369   -0.2211    0.1061 N   0  0  0  0  0  0  0  0  0  0  0  0
    4.0392    1.6494    1.1023 N   0  0  0  0  0  0  0  0  0  0  0  0
    3.0800   -1.6282   -0.0616 C   0  0  0  0  0  0  0  0  0  0  0  0
    1.5853   -1.8734    0.0947 C   0  0  0  0  0  0  0  0  0  0  0  0
   -0.3871   -0.7403   -0.5995 C   0  0  0  0  0  0  0  0  0  0  0  0
    3.4901    0.7039   -0.8831 C   0  0  0  0  0  0  0  0  0  0  0  0
    3.7697    0.3748    1.2779 C   0  0  0  0  0  0  0  0  0  0  0  0
   -1.1632   -1.4791    0.2936 C   0  0  0  0  0  0  0  0  0  0  0  0
   -0.9026    0.4202   -1.1765 C   0  0  0  0  0  0  0  0  0  0  0  0
   -2.9700    0.1033    0.0328 C   0  0  0  0  0  0  0  0  0  0  0  0
   -2.4546   -1.0573    0.6098 C   0  0  0  0  0  0  0  0  0  0  0  0
   -2.1939    0.8421   -0.8603 C   0  0  0  0  0  0  0  0  0  0  0  0
    3.8662    1.8611   -0.2426 C   0  0  0  0  0  0  0  0  0  0  0  0
   -4.3169    0.5421    0.3624 C   0  0  0  0  0  0  0  0  0  0  0  0
    3.4178   -1.9183   -1.0634 H   0  0  0  0  0  0  0  0  0  0  0  0
    3.6519   -2.2029    0.6750 H   0  0  0  0  0  0  0  0  0  0  0  0
    1.3784   -2.9433   -0.0216 H   0  0  0  0  0  0  0  0  0  0  0  0
    1.2949   -1.5551    1.1047 H   0  0  0  0  0  0  0  0  0  0  0  0
    3.2667    0.4825   -1.9174 H   0  0  0  0  0  0  0  0  0  0  0  0
    3.8008   -0.1512    2.2223 H   0  0  0  0  0  0  0  0  0  0  0  0
   -0.8111   -2.4032    0.7423 H   0  0  0  0  0  0  0  0  0  0  0  0
   -0.3017    0.9993   -1.8725 H   0  0  0  0  0  0  0  0  0  0  0  0
   -3.0458   -1.6503    1.3029 H   0  0  0  0  0  0  0  0  0  0  0  0
   -2.5557    1.7513   -1.3322 H   0  0  0  0  0  0  0  0  0  0  0  0
    4.0210    2.8359   -0.6817 H   0  0  0  0  0  0  0  0  0  0  0  0
   -5.5727    1.9769   -0.0542 H   0  0  0  0  0  0  0  0  0  0  0  0
  1  7  1  0  0  0  0
  1  8  1  0  0  0  0
  2 17  1  0  0  0  0
  2 29  1  0  0  0  0
  3 17  2  0  0  0  0
  4  6  1  0  0  0  0
  4  9  1  0  0  0  0
  4 10  1  0  0  0  0
  5 10  2  0  0  0  0
  5 16  1  0  0  0  0
  6  7  1  0  0  0  0
  6 18  1  0  0  0  0
  6 19  1  0  0  0  0
  7 20  1  0  0  0  0
  7 21  1  0  0  0  0
  8 11  2  0  0  0  0
  8 12  1  0  0  0  0
  9 16  2  0  0  0  0
  9 22  1  0  0  0  0
 10 23  1  0  0  0  0
 11 14  1  0  0  0  0
 11 24  1  0  0  0  0
 12 15  2  0  0  0  0
 12 25  1  0  0  0  0
 13 14  2  0  0  0  0
 13 15  1  0  0  0  0
 13 17  1  0  0  0  0
 14 26  1  0  0  0  0
 15 27  1  0  0  0  0
 16 28  1  0  0  0  0
M  END
> <DATABASE_ID>
DB03052

> <DATABASE_NAME>
drugbank

> <ORIGINAL_SOURCE>
PUBCHEM

> <ORIGINAL_SOURCE_URL>
https://pubchem.ncbi.nlm.nih.gov/rest/pug/compound/inchikey/XQGZSYKGWHUSDH-UHFFFAOYSA-N/SDF?record_type=3d

> <SMILES>
OC(=O)C1=CC=C(OCCN2C=CN=C2)C=C1

> <INCHI_IDENTIFIER>
InChI=1S/C12H12N2O3/c15-12(16)10-1-3-11(4-2-10)17-8-7-14-6-5-13-9-14/h1-6,9H,7-8H2,(H,15,16)

> <INCHI_KEY>
XQGZSYKGWHUSDH-UHFFFAOYSA-N

> <FORMULA>
C12H12N2O3

> <MOLECULAR_WEIGHT>
232.2353

> <EXACT_MASS>
232.08479226

> <JCHEM_ACCEPTOR_COUNT>
4

> <JCHEM_AVERAGE_POLARIZABILITY>
23.34904375488626

> <JCHEM_BIOAVAILABILITY>
1

> <JCHEM_DONOR_COUNT>
1

> <JCHEM_FORMAL_CHARGE>
0

> <JCHEM_GHOSE_FILTER>
1

> <JCHEM_IUPAC>
4-[2-(1H-imidazol-1-yl)ethoxy]benzoic acid

> <ALOGPS_LOGP>
1.44

> <JCHEM_LOGP>
0.5099475058902694

> <ALOGPS_LOGS>
-2.26

> <JCHEM_MDDR_LIKE_RULE>
0

> <JCHEM_NUMBER_OF_RINGS>
2

> <JCHEM_PHYSIOLOGICAL_CHARGE>
-1

> <JCHEM_PKA_STRONGEST_ACIDIC>
4.3585805898669525

> <JCHEM_PKA_STRONGEST_BASIC>
6.773700236370969

> <JCHEM_POLAR_SURFACE_AREA>
64.35

> <JCHEM_REFRACTIVITY>
61.7179

> <JCHEM_ROTATABLE_BOND_COUNT>
5

> <JCHEM_RULE_OF_FIVE>
1

> <ALOGPS_SOLUBILITY>
1.28e+00 g/l

> <JCHEM_TRADITIONAL_IUPAC>
dazoxiben

> <JCHEM_VEBER_RULE>
0

> <DRUGBANK_ID>
DB03052

> <SECONDARY_ACCESSION_NUMBERS>
EXPT03297

> <DRUG_GROUPS>
experimental

> <GENERIC_NAME>
Dazoxiben

> <SYNONYMS>
Dazoxiben; Dazoxibene; Dazoxibenum

$$$$
