4478249
  -OEChem-10051720223D

 25 25  0     0  0  0  0  0  0999 V2000
   -3.0036    0.0366   -0.0082 S   0  0  0  0  0  0  0  0  0  0  0  0
    3.7806    0.3555   -0.2223 O   0  0  0  0  0  0  0  0  0  0  0  0
   -3.2095   -1.2737    0.6075 O   0  5  0  0  0  0  0  0  0  0  0  0
   -3.7387    1.1346    0.6181 O   0  0  0  0  0  0  0  0  0  0  0  0
   -3.0171    0.0400   -1.4703 O   0  0  0  0  0  0  0  0  0  0  0  0
    1.0520   -0.2750    0.2278 N   0  3  0  0  0  0  0  0  0  0  0  0
    1.4713    1.0869   -0.2736 C   0  0  0  0  0  0  0  0  0  0  0  0
    2.0418   -1.3321   -0.2025 C   0  0  0  0  0  0  0  0  0  0  0  0
   -0.3528   -0.6183   -0.1769 C   0  0  0  0  0  0  0  0  0  0  0  0
    2.8781    1.3674    0.2267 C   0  0  0  0  0  0  0  0  0  0  0  0
    3.4195   -0.9265    0.2937 C   0  0  0  0  0  0  0  0  0  0  0  0
   -1.3216    0.4045    0.3800 C   0  0  0  0  0  0  0  0  0  0  0  0
    1.0691   -0.2453    1.2569 H   0  0  0  0  0  0  0  0  0  0  0  0
    0.8016    1.8476    0.1296 H   0  0  0  0  0  0  0  0  0  0  0  0
    1.4236    1.0621   -1.3674 H   0  0  0  0  0  0  0  0  0  0  0  0
    2.0051   -1.3814   -1.2962 H   0  0  0  0  0  0  0  0  0  0  0  0
    1.7261   -2.2852    0.2325 H   0  0  0  0  0  0  0  0  0  0  0  0
   -0.5640   -1.6169    0.2205 H   0  0  0  0  0  0  0  0  0  0  0  0
   -0.3844   -0.6619   -1.2713 H   0  0  0  0  0  0  0  0  0  0  0  0
    3.2290    2.3245   -0.1719 H   0  0  0  0  0  0  0  0  0  0  0  0
    2.9146    1.4322    1.3209 H   0  0  0  0  0  0  0  0  0  0  0  0
    3.4666   -0.9078    1.3891 H   0  0  0  0  0  0  0  0  0  0  0  0
    4.1655   -1.6469   -0.0563 H   0  0  0  0  0  0  0  0  0  0  0  0
   -1.2441    0.4679    1.4709 H   0  0  0  0  0  0  0  0  0  0  0  0
   -1.1588    1.4019   -0.0378 H   0  0  0  0  0  0  0  0  0  0  0  0
  1  3  1  0  0  0  0
  1  4  2  0  0  0  0
  1  5  2  0  0  0  0
  1 12  1  0  0  0  0
  2 10  1  0  0  0  0
  2 11  1  0  0  0  0
  6  7  1  0  0  0  0
  6  8  1  0  0  0  0
  6  9  1  0  0  0  0
  6 13  1  0  0  0  0
  7 10  1  0  0  0  0
  7 14  1  0  0  0  0
  7 15  1  0  0  0  0
  8 11  1  0  0  0  0
  8 16  1  0  0  0  0
  8 17  1  0  0  0  0
  9 12  1  0  0  0  0
  9 18  1  0  0  0  0
  9 19  1  0  0  0  0
 10 20  1  0  0  0  0
 10 21  1  0  0  0  0
 11 22  1  0  0  0  0
 11 23  1  0  0  0  0
 12 24  1  0  0  0  0
 12 25  1  0  0  0  0
M  CHG  2   3  -1   6   1
M  END
> <DATABASE_ID>
DB03814

> <DATABASE_NAME>
drugbank

> <ORIGINAL_SOURCE>
PUBCHEM

> <ORIGINAL_SOURCE_URL>
https://pubchem.ncbi.nlm.nih.gov/rest/pug/compound/inchikey/SXGZJKUKBWWHRA-UHFFFAOYSA-N/SDF?record_type=3d

> <SMILES>
[O-]S(=O)(=O)CC[NH+]1CCOCC1

> <INCHI_IDENTIFIER>
InChI=1S/C6H13NO4S/c8-12(9,10)6-3-7-1-4-11-5-2-7/h1-6H2,(H,8,9,10)

> <INCHI_KEY>
SXGZJKUKBWWHRA-UHFFFAOYSA-N

> <FORMULA>
C6H13NO4S

> <MOLECULAR_WEIGHT>
195.237

> <EXACT_MASS>
195.056528599

> <JCHEM_ACCEPTOR_COUNT>
4

> <JCHEM_AVERAGE_POLARIZABILITY>
18.6667576923513

> <JCHEM_BIOAVAILABILITY>
1

> <JCHEM_DONOR_COUNT>
1

> <JCHEM_FORMAL_CHARGE>
0

> <JCHEM_GHOSE_FILTER>
0

> <JCHEM_IUPAC>
4-(2-sulfonatoethyl)morpholin-4-ium

> <ALOGPS_LOGP>
-0.87

> <JCHEM_LOGP>
-2.485973910914979

> <ALOGPS_LOGS>
-1.74

> <JCHEM_MDDR_LIKE_RULE>
0

> <JCHEM_NUMBER_OF_RINGS>
1

> <JCHEM_PHYSIOLOGICAL_CHARGE>
-1

> <JCHEM_PKA_STRONGEST_ACIDIC>
-1.5187937803675098

> <JCHEM_PKA_STRONGEST_BASIC>
6.510821105190105

> <JCHEM_POLAR_SURFACE_AREA>
70.86999999999999

> <JCHEM_REFRACTIVITY>
53.644100000000016

> <JCHEM_ROTATABLE_BOND_COUNT>
3

> <JCHEM_RULE_OF_FIVE>
1

> <ALOGPS_SOLUBILITY>
4.58e+00 g/l

> <JCHEM_TRADITIONAL_IUPAC>
4-(2-sulfonatoethyl)morpholin-4-ium

> <JCHEM_VEBER_RULE>
0

> <DRUGBANK_ID>
DB03814

> <SECONDARY_ACCESSION_NUMBERS>
EXPT02154

> <DRUG_GROUPS>
experimental

> <GENERIC_NAME>
2-(N-Morpholino)-Ethanesulfonic Acid

$$$$
