44277954
  -OEChem-10051723573D

 18 17  0     1  0  0  0  0  0999 V2000
   -2.2213   -0.1535   -0.1201 S   0  0  0  0  0  0  0  0  0  0  0  0
   -0.6226    0.1992   -0.2236 O   0  0  0  0  0  0  0  0  0  0  0  0
    2.3543   -1.5483    0.6537 O   0  0  0  0  0  0  0  0  0  0  0  0
    2.6377   -0.3837   -1.2734 O   0  0  0  0  0  0  0  0  0  0  0  0
   -2.8038    0.9886    0.5830 O   0  5  0  0  0  0  0  0  0  0  0  0
   -2.2443   -1.3998    0.6442 O   0  0  0  0  0  0  0  0  0  0  0  0
   -2.6556   -0.2966   -1.5088 O   0  0  0  0  0  0  0  0  0  0  0  0
    1.5998    1.9295   -0.2316 N   0  3  0  0  0  0  0  0  0  0  0  0
    1.5835    0.7077    0.6263 C   0  0  1  0  0  0  0  0  0  0  0  0
    0.1325    0.3931    0.9671 C   0  0  0  0  0  0  0  0  0  0  0  0
    2.2399   -0.4360   -0.1168 C   0  0  0  0  0  0  0  0  0  0  0  0
    2.1735    0.9485    1.5158 H   0  0  0  0  0  0  0  0  0  0  0  0
   -0.3044    1.2200    1.5388 H   0  0  0  0  0  0  0  0  0  0  0  0
    0.0743   -0.5122    1.5815 H   0  0  0  0  0  0  0  0  0  0  0  0
    1.0702    1.7902   -1.1029 H   0  0  0  0  0  0  0  0  0  0  0  0
    2.5602    2.1906   -0.4923 H   0  0  0  0  0  0  0  0  0  0  0  0
    1.1870    2.7361    0.2557 H   0  0  0  0  0  0  0  0  0  0  0  0
    2.7839   -2.2856    0.1699 H   0  0  0  0  0  0  0  0  0  0  0  0
  1  2  1  0  0  0  0
  1  5  1  0  0  0  0
  1  6  2  0  0  0  0
  1  7  2  0  0  0  0
  2 10  1  0  0  0  0
  3 11  1  0  0  0  0
  3 18  1  0  0  0  0
  4 11  2  0  0  0  0
  8  9  1  0  0  0  0
  8 15  1  0  0  0  0
  8 16  1  0  0  0  0
  8 17  1  0  0  0  0
  9 10  1  0  0  0  0
  9 11  1  0  0  0  0
  9 12  1  0  0  0  0
 10 13  1  0  0  0  0
 10 14  1  0  0  0  0
M  CHG  2   5  -1   8   1
M  END
> <DATABASE_ID>
DB03497

> <DATABASE_NAME>
drugbank

> <ORIGINAL_SOURCE>
PUBCHEM

> <ORIGINAL_SOURCE_URL>
https://pubchem.ncbi.nlm.nih.gov/rest/pug/compound/inchikey/LFZGUGJDVUUGLK-REOHCLBHSA-N/SDF?record_type=3d

> <SMILES>
[H][C@](N)(COS(O)(=O)=O)C(O)=O

> <INCHI_IDENTIFIER>
InChI=1S/C3H7NO6S/c4-2(3(5)6)1-10-11(7,8)9/h2H,1,4H2,(H,5,6)(H,7,8,9)/t2-/m0/s1

> <INCHI_KEY>
LFZGUGJDVUUGLK-REOHCLBHSA-N

> <FORMULA>
C3H7NO6S

> <MOLECULAR_WEIGHT>
185.156

> <EXACT_MASS>
184.999407651

> <JCHEM_ACCEPTOR_COUNT>
6

> <JCHEM_AVERAGE_POLARIZABILITY>
14.720322605112926

> <JCHEM_BIOAVAILABILITY>
1

> <JCHEM_DONOR_COUNT>
3

> <JCHEM_FORMAL_CHARGE>
0

> <JCHEM_GHOSE_FILTER>
0

> <JCHEM_IUPAC>
(2S)-2-amino-3-(sulfooxy)propanoic acid

> <ALOGPS_LOGP>
-2.36

> <JCHEM_LOGP>
-2.6176342601138454

> <ALOGPS_LOGS>
-0.66

> <JCHEM_MDDR_LIKE_RULE>
0

> <JCHEM_NUMBER_OF_RINGS>
0

> <JCHEM_PHYSIOLOGICAL_CHARGE>
-1

> <JCHEM_PKA>
1.0852840942307806

> <JCHEM_PKA_STRONGEST_ACIDIC>
-2.139670955632556

> <JCHEM_PKA_STRONGEST_BASIC>
8.594368271330184

> <JCHEM_POLAR_SURFACE_AREA>
126.92

> <JCHEM_REFRACTIVITY>
32.0328

> <JCHEM_ROTATABLE_BOND_COUNT>
4

> <JCHEM_RULE_OF_FIVE>
1

> <ALOGPS_SOLUBILITY>
4.07e+01 g/l

> <JCHEM_TRADITIONAL_IUPAC>
serine O-sulfate

> <JCHEM_VEBER_RULE>
0

> <DRUGBANK_ID>
DB03497

> <SECONDARY_ACCESSION_NUMBERS>
EXPT02449

> <DRUG_GROUPS>
experimental

> <GENERIC_NAME>
O-Sulfo-L-Serine

$$$$
