65130
  -OEChem-10051720223D

 52 53  0     0  0  0  0  0  0999 V2000
   -4.2073   -1.2178   -0.9306 O   0  0  0  0  0  0  0  0  0  0  0  0
    4.2074   -1.2174    0.9316 O   0  0  0  0  0  0  0  0  0  0  0  0
   -9.4631    1.4075    1.7325 N   0  0  0  0  0  0  0  0  0  0  0  0
    9.4632    1.4061   -1.7334 N   0  0  0  0  0  0  0  0  0  0  0  0
   -9.7553    1.9006   -0.5331 N   0  0  0  0  0  0  0  0  0  0  0  0
    9.7549    1.9017    0.5317 N   0  0  0  0  0  0  0  0  0  0  0  0
   -0.6772   -1.2399    0.3555 C   0  0  0  0  0  0  0  0  0  0  0  0
    0.6774   -1.2409   -0.3549 C   0  0  0  0  0  0  0  0  0  0  0  0
   -1.8300   -1.2574   -0.6460 C   0  0  0  0  0  0  0  0  0  0  0  0
    1.8301   -1.2574    0.6466 C   0  0  0  0  0  0  0  0  0  0  0  0
   -3.1817   -1.2145    0.0528 C   0  0  0  0  0  0  0  0  0  0  0  0
    3.1819   -1.2154   -0.0519 C   0  0  0  0  0  0  0  0  0  0  0  0
   -5.3810   -0.5905   -0.6023 C   0  0  0  0  0  0  0  0  0  0  0  0
    5.3810   -0.5901    0.6029 C   0  0  0  0  0  0  0  0  0  0  0  0
   -6.1584    0.0000   -1.5987 C   0  0  0  0  0  0  0  0  0  0  0  0
    6.1582    0.0015    1.5988 C   0  0  0  0  0  0  0  0  0  0  0  0
   -5.7991   -0.5445    0.7276 C   0  0  0  0  0  0  0  0  0  0  0  0
    5.7994   -0.5455   -0.7271 C   0  0  0  0  0  0  0  0  0  0  0  0
   -7.7719    0.6827    0.0649 C   0  0  0  0  0  0  0  0  0  0  0  0
    7.7718    0.6827   -0.0654 C   0  0  0  0  0  0  0  0  0  0  0  0
   -7.3539    0.6365   -1.2650 C   0  0  0  0  0  0  0  0  0  0  0  0
    7.3535    0.6379    1.2645 C   0  0  0  0  0  0  0  0  0  0  0  0
   -6.9944    0.0920    1.0612 C   0  0  0  0  0  0  0  0  0  0  0  0
    6.9946    0.0909   -1.0611 C   0  0  0  0  0  0  0  0  0  0  0  0
   -9.0186    1.3456    0.4130 C   0  0  0  0  0  0  0  0  0  0  0  0
    9.0184    1.3455   -0.4140 C   0  0  0  0  0  0  0  0  0  0  0  0
   -0.7498   -2.1151    1.0125 H   0  0  0  0  0  0  0  0  0  0  0  0
   -0.7544   -0.3503    0.9924 H   0  0  0  0  0  0  0  0  0  0  0  0
    0.7552   -0.3525   -0.9933 H   0  0  0  0  0  0  0  0  0  0  0  0
    0.7496   -2.1173   -1.0104 H   0  0  0  0  0  0  0  0  0  0  0  0
   -1.7733   -2.1540   -1.2757 H   0  0  0  0  0  0  0  0  0  0  0  0
   -1.7497   -0.4041   -1.3312 H   0  0  0  0  0  0  0  0  0  0  0  0
    1.7732   -2.1532    1.2775 H   0  0  0  0  0  0  0  0  0  0  0  0
    1.7498   -0.4033    1.3309 H   0  0  0  0  0  0  0  0  0  0  0  0
   -3.2128   -0.3049    0.6667 H   0  0  0  0  0  0  0  0  0  0  0  0
   -3.2995   -2.0930    0.6977 H   0  0  0  0  0  0  0  0  0  0  0  0
    3.2131   -0.3066   -0.6671 H   0  0  0  0  0  0  0  0  0  0  0  0
    3.2999   -2.0947   -0.6957 H   0  0  0  0  0  0  0  0  0  0  0  0
   -5.8374   -0.0333   -2.6363 H   0  0  0  0  0  0  0  0  0  0  0  0
    5.8370   -0.0307    2.6362 H   0  0  0  0  0  0  0  0  0  0  0  0
   -5.2376   -1.0159    1.5288 H   0  0  0  0  0  0  0  0  0  0  0  0
    5.2381   -1.0179   -1.5278 H   0  0  0  0  0  0  0  0  0  0  0  0
   -7.9351    1.0861   -2.0654 H   0  0  0  0  0  0  0  0  0  0  0  0
    7.9346    1.0884    2.0645 H   0  0  0  0  0  0  0  0  0  0  0  0
   -7.2761    0.0933    2.1084 H   0  0  0  0  0  0  0  0  0  0  0  0
    7.2765    0.0911   -2.1083 H   0  0  0  0  0  0  0  0  0  0  0  0
   -8.9615    1.0098    2.5167 H   0  0  0  0  0  0  0  0  0  0  0  0
  -10.3369    1.8731    1.9551 H   0  0  0  0  0  0  0  0  0  0  0  0
    8.9617    1.0075   -2.5173 H   0  0  0  0  0  0  0  0  0  0  0  0
   10.3370    1.8716   -1.9564 H   0  0  0  0  0  0  0  0  0  0  0  0
  -10.5868    2.3115   -0.0943 H   0  0  0  0  0  0  0  0  0  0  0  0
   10.5864    2.3123    0.0925 H   0  0  0  0  0  0  0  0  0  0  0  0
  1 11  1  0  0  0  0
  1 13  1  0  0  0  0
  2 12  1  0  0  0  0
  2 14  1  0  0  0  0
  3 25  1  0  0  0  0
  3 47  1  0  0  0  0
  3 48  1  0  0  0  0
  4 26  1  0  0  0  0
  4 49  1  0  0  0  0
  4 50  1  0  0  0  0
  5 25  2  0  0  0  0
  5 51  1  0  0  0  0
  6 26  2  0  0  0  0
  6 52  1  0  0  0  0
  7  8  1  0  0  0  0
  7  9  1  0  0  0  0
  7 27  1  0  0  0  0
  7 28  1  0  0  0  0
  8 10  1  0  0  0  0
  8 29  1  0  0  0  0
  8 30  1  0  0  0  0
  9 11  1  0  0  0  0
  9 31  1  0  0  0  0
  9 32  1  0  0  0  0
 10 12  1  0  0  0  0
 10 33  1  0  0  0  0
 10 34  1  0  0  0  0
 11 35  1  0  0  0  0
 11 36  1  0  0  0  0
 12 37  1  0  0  0  0
 12 38  1  0  0  0  0
 13 15  2  0  0  0  0
 13 17  1  0  0  0  0
 14 16  2  0  0  0  0
 14 18  1  0  0  0  0
 15 21  1  0  0  0  0
 15 39  1  0  0  0  0
 16 22  1  0  0  0  0
 16 40  1  0  0  0  0
 17 23  2  0  0  0  0
 17 41  1  0  0  0  0
 18 24  2  0  0  0  0
 18 42  1  0  0  0  0
 19 21  2  0  0  0  0
 19 23  1  0  0  0  0
 19 25  1  0  0  0  0
 20 22  2  0  0  0  0
 20 24  1  0  0  0  0
 20 26  1  0  0  0  0
 21 43  1  0  0  0  0
 22 44  1  0  0  0  0
 23 45  1  0  0  0  0
 24 46  1  0  0  0  0
M  END
> <DATABASE_ID>
DB03808

> <DATABASE_NAME>
drugbank

> <ORIGINAL_SOURCE>
PUBCHEM

> <ORIGINAL_SOURCE_URL>
https://pubchem.ncbi.nlm.nih.gov/rest/pug/compound/inchikey/OQLKNTOKMBVBKV-UHFFFAOYSA-N/SDF?record_type=3d

> <SMILES>
NC(=N)C1=CC=C(OCCCCCCOC2=CC=C(C=C2)C(N)=N)C=C1

> <INCHI_IDENTIFIER>
InChI=1S/C20H26N4O2/c21-19(22)15-5-9-17(10-6-15)25-13-3-1-2-4-14-26-18-11-7-16(8-12-18)20(23)24/h5-12H,1-4,13-14H2,(H3,21,22)(H3,23,24)

> <INCHI_KEY>
OQLKNTOKMBVBKV-UHFFFAOYSA-N

> <FORMULA>
C20H26N4O2

> <MOLECULAR_WEIGHT>
354.446

> <EXACT_MASS>
354.205576096

> <JCHEM_ACCEPTOR_COUNT>
6

> <JCHEM_AVERAGE_POLARIZABILITY>
40.848683509074675

> <JCHEM_BIOAVAILABILITY>
1

> <JCHEM_DONOR_COUNT>
4

> <JCHEM_FORMAL_CHARGE>
0

> <JCHEM_GHOSE_FILTER>
1

> <JCHEM_IUPAC>
4-{[6-(4-carbamimidoylphenoxy)hexyl]oxy}benzene-1-carboximidamide

> <ALOGPS_LOGP>
1.77

> <JCHEM_LOGP>
2.7670208460000003

> <ALOGPS_LOGS>
-4.40

> <JCHEM_MDDR_LIKE_RULE>
0

> <JCHEM_NUMBER_OF_RINGS>
2

> <JCHEM_PHYSIOLOGICAL_CHARGE>
2

> <JCHEM_PKA_STRONGEST_BASIC>
12.127523865049692

> <JCHEM_POLAR_SURFACE_AREA>
118.20000000000002

> <JCHEM_REFRACTIVITY>
125.13040000000001

> <JCHEM_ROTATABLE_BOND_COUNT>
11

> <JCHEM_RULE_OF_FIVE>
1

> <ALOGPS_SOLUBILITY>
1.42e-02 g/l

> <JCHEM_TRADITIONAL_IUPAC>
hexamidine

> <JCHEM_VEBER_RULE>
0

> <DRUGBANK_ID>
DB03808

> <SECONDARY_ACCESSION_NUMBERS>
EXPT01203

> <DRUG_GROUPS>
experimental

> <GENERIC_NAME>
Hexamidine

> <SYNONYMS>
hexamidina; Hexamidine

$$$$
