102474029
  -OEChem-10051720243D

 34 33  0     1  0  0  0  0  0999 V2000
    4.1212   -1.1812   -1.6155 O   0  0  0  0  0  0  0  0  0  0  0  0
    4.6882    0.8855   -0.8681 O   0  0  0  0  0  0  0  0  0  0  0  0
    4.0112    0.3148    1.7325 N   0  3  0  0  0  0  0  0  0  0  0  0
   -0.8794    1.0508   -0.0194 N   0  0  0  0  0  0  0  0  0  0  0  0
   -2.9980    0.0396    0.1156 N   0  0  0  0  0  0  0  0  0  0  0  0
   -2.7028    2.3548   -0.4305 N   0  0  0  0  0  0  0  0  0  0  0  0
    2.2474   -1.0306    0.6488 C   0  0  0  0  0  0  0  0  0  0  0  0
    3.7479   -0.7243    0.6940 C   0  0  1  0  0  0  0  0  0  0  0  0
    1.3861    0.1939    0.3120 C   0  0  0  0  0  0  0  0  0  0  0  0
   -0.1077   -0.1244    0.3056 C   0  0  0  0  0  0  0  0  0  0  0  0
    4.2370   -0.2315   -0.6511 C   0  0  0  0  0  0  0  0  0  0  0  0
   -2.2618    1.0898   -0.1008 C   0  0  0  0  0  0  0  0  0  0  0  0
   -4.4415    0.2004    0.0011 C   0  0  0  0  0  0  0  0  0  0  0  0
   -5.1181   -1.0851    0.3519 C   0  0  0  0  0  0  0  0  0  0  0  0
   -5.9297   -1.7525   -0.4760 C   0  0  0  0  0  0  0  0  0  0  0  0
    2.0528   -1.8183   -0.0897 H   0  0  0  0  0  0  0  0  0  0  0  0
    1.9346   -1.4327    1.6209 H   0  0  0  0  0  0  0  0  0  0  0  0
    4.3282   -1.6032    0.9917 H   0  0  0  0  0  0  0  0  0  0  0  0
    1.5595    0.9956    1.0391 H   0  0  0  0  0  0  0  0  0  0  0  0
    1.6689    0.5938   -0.6694 H   0  0  0  0  0  0  0  0  0  0  0  0
   -0.3122   -0.9118   -0.4288 H   0  0  0  0  0  0  0  0  0  0  0  0
   -0.4077   -0.4995    1.2909 H   0  0  0  0  0  0  0  0  0  0  0  0
    5.0223    0.4428    1.8740 H   0  0  0  0  0  0  0  0  0  0  0  0
    3.6274    1.2340    1.4768 H   0  0  0  0  0  0  0  0  0  0  0  0
    3.6106    0.0498    2.6423 H   0  0  0  0  0  0  0  0  0  0  0  0
   -0.3641    1.9078   -0.2014 H   0  0  0  0  0  0  0  0  0  0  0  0
    4.4380   -0.8585   -2.4860 H   0  0  0  0  0  0  0  0  0  0  0  0
   -3.6867    2.5742   -0.5371 H   0  0  0  0  0  0  0  0  0  0  0  0
   -2.0484    3.1151   -0.5805 H   0  0  0  0  0  0  0  0  0  0  0  0
   -4.7111    0.5092   -1.0164 H   0  0  0  0  0  0  0  0  0  0  0  0
   -4.7999    0.9665    0.6994 H   0  0  0  0  0  0  0  0  0  0  0  0
   -4.9444   -1.4882    1.3464 H   0  0  0  0  0  0  0  0  0  0  0  0
   -6.3962   -2.6788   -0.1588 H   0  0  0  0  0  0  0  0  0  0  0  0
   -6.1423   -1.3922   -1.4764 H   0  0  0  0  0  0  0  0  0  0  0  0
  1 11  1  0  0  0  0
  1 27  1  0  0  0  0
  2 11  2  0  0  0  0
  3  8  1  0  0  0  0
  3 23  1  0  0  0  0
  3 24  1  0  0  0  0
  3 25  1  0  0  0  0
  4 10  1  0  0  0  0
  4 12  1  0  0  0  0
  4 26  1  0  0  0  0
  5 12  2  0  0  0  0
  5 13  1  0  0  0  0
  6 12  1  0  0  0  0
  6 28  1  0  0  0  0
  6 29  1  0  0  0  0
  7  8  1  0  0  0  0
  7  9  1  0  0  0  0
  7 16  1  0  0  0  0
  7 17  1  0  0  0  0
  8 11  1  0  0  0  0
  8 18  1  0  0  0  0
  9 10  1  0  0  0  0
  9 19  1  0  0  0  0
  9 20  1  0  0  0  0
 10 21  1  0  0  0  0
 10 22  1  0  0  0  0
 13 14  1  0  0  0  0
 13 30  1  0  0  0  0
 13 31  1  0  0  0  0
 14 15  2  0  0  0  0
 14 32  1  0  0  0  0
 15 33  1  0  0  0  0
 15 34  1  0  0  0  0
M  CHG  1   3   1
M  END
> <DATABASE_ID>
DB03892

> <DATABASE_NAME>
drugbank

> <ORIGINAL_SOURCE>
PUBCHEM

> <ORIGINAL_SOURCE_URL>
https://pubchem.ncbi.nlm.nih.gov/rest/pug/compound/inchikey/ZPQWZDPOLXVMOU-ZETCQYMHSA-O/SDF?record_type=3d

> <SMILES>
N[C@@H](CCCN\C(N)=[NH+]\CC=C)C(O)=O

> <INCHI_IDENTIFIER>
InChI=1S/C9H18N4O2/c1-2-5-12-9(11)13-6-3-4-7(10)8(14)15/h2,7H,1,3-6,10H2,(H,14,15)(H3,11,12,13)/p+1/t7-/m0/s1

> <INCHI_KEY>
ZPQWZDPOLXVMOU-ZETCQYMHSA-O

> <FORMULA>
C9H19N4O2

> <MOLECULAR_WEIGHT>
215.2728

> <EXACT_MASS>
215.150800872

> <JCHEM_ACCEPTOR_COUNT>
5

> <JCHEM_AVERAGE_POLARIZABILITY>
23.58145912424147

> <JCHEM_BIOAVAILABILITY>
1

> <JCHEM_DONOR_COUNT>
5

> <JCHEM_FORMAL_CHARGE>
1

> <JCHEM_GHOSE_FILTER>
0

> <JCHEM_IUPAC>
(E)-[amino({[(4S)-4-amino-4-carboxybutyl]amino})methylidene](prop-2-en-1-yl)azanium

> <ALOGPS_LOGP>
-0.37

> <JCHEM_LOGP>
-2.224348179689207

> <ALOGPS_LOGS>
-1.46

> <JCHEM_MDDR_LIKE_RULE>
0

> <JCHEM_NUMBER_OF_RINGS>
0

> <JCHEM_PHYSIOLOGICAL_CHARGE>
1

> <JCHEM_PKA_STRONGEST_ACIDIC>
2.3417143612732425

> <JCHEM_PKA_STRONGEST_BASIC>
12.01307937404433

> <JCHEM_POLAR_SURFACE_AREA>
115.34

> <JCHEM_REFRACTIVITY>
68.7825

> <JCHEM_ROTATABLE_BOND_COUNT>
7

> <JCHEM_RULE_OF_FIVE>
1

> <ALOGPS_SOLUBILITY>
8.62e+00 g/l

> <JCHEM_TRADITIONAL_IUPAC>
5-N-allyl-arginine

> <JCHEM_VEBER_RULE>
0

> <DRUGBANK_ID>
DB03892

> <SECONDARY_ACCESSION_NUMBERS>
EXPT00563

> <DRUG_GROUPS>
experimental

> <GENERIC_NAME>
5-N-Allyl-Arginine

$$$$
