9257
  -OEChem-10051723563D

  8  8  0     0  0  0  0  0  0999 V2000
    0.5509    0.9639    0.0000 N   0  0  0  0  0  0  0  0  0  0  0  0
    1.1852   -0.2183    0.0001 N   0  0  0  0  0  0  0  0  0  0  0  0
   -1.0870   -0.4827    0.0002 N   0  0  0  0  0  0  0  0  0  0  0  0
   -0.7991    0.7981   -0.0001 C   0  0  0  0  0  0  0  0  0  0  0  0
    0.1500   -1.0609   -0.0002 C   0  0  0  0  0  0  0  0  0  0  0  0
    1.0940    1.8191    0.0001 H   0  0  0  0  0  0  0  0  0  0  0  0
   -1.4981    1.6215   -0.0002 H   0  0  0  0  0  0  0  0  0  0  0  0
    0.3019   -2.1300   -0.0002 H   0  0  0  0  0  0  0  0  0  0  0  0
  1  2  1  0  0  0  0
  1  4  1  0  0  0  0
  1  6  1  0  0  0  0
  2  5  2  0  0  0  0
  3  4  2  0  0  0  0
  3  5  1  0  0  0  0
  4  7  1  0  0  0  0
  5  8  1  0  0  0  0
M  END
> <DATABASE_ID>
DB03594

> <DATABASE_NAME>
drugbank

> <ORIGINAL_SOURCE>
PUBCHEM

> <ORIGINAL_SOURCE_URL>
https://pubchem.ncbi.nlm.nih.gov/rest/pug/compound/inchikey/NSPMIYGKQJPBQR-UHFFFAOYSA-N/SDF?record_type=3d

> <SMILES>
N1C=NC=N1

> <INCHI_IDENTIFIER>
InChI=1S/C2H3N3/c1-3-2-5-4-1/h1-2H,(H,3,4,5)

> <INCHI_KEY>
NSPMIYGKQJPBQR-UHFFFAOYSA-N

> <FORMULA>
C2H3N3

> <MOLECULAR_WEIGHT>
69.0653

> <EXACT_MASS>
69.032697111

> <JCHEM_ACCEPTOR_COUNT>
2

> <JCHEM_AVERAGE_POLARIZABILITY>
5.937161366695722

> <JCHEM_BIOAVAILABILITY>
1

> <JCHEM_DONOR_COUNT>
1

> <JCHEM_FORMAL_CHARGE>
0

> <JCHEM_GHOSE_FILTER>
0

> <JCHEM_IUPAC>
1H-1,2,4-triazole

> <ALOGPS_LOGP>
-0.80

> <JCHEM_LOGP>
-0.40908983366666657

> <ALOGPS_LOGS>
0.92

> <JCHEM_MDDR_LIKE_RULE>
0

> <JCHEM_NUMBER_OF_RINGS>
1

> <JCHEM_PHYSIOLOGICAL_CHARGE>
0

> <JCHEM_PKA_STRONGEST_ACIDIC>
8.99878890849099

> <JCHEM_PKA_STRONGEST_BASIC>
2.474903721213428

> <JCHEM_POLAR_SURFACE_AREA>
41.57

> <JCHEM_REFRACTIVITY>
18.9195

> <JCHEM_ROTATABLE_BOND_COUNT>
0

> <JCHEM_RULE_OF_FIVE>
1

> <ALOGPS_SOLUBILITY>
5.69e+02 g/l

> <JCHEM_TRADITIONAL_IUPAC>
1H-1,2,4-triazole

> <JCHEM_VEBER_RULE>
0

> <DRUGBANK_ID>
DB03594

> <SECONDARY_ACCESSION_NUMBERS>
EXPT03109

> <DRUG_GROUPS>
experimental

> <GENERIC_NAME>
1,2,4-Triazole

$$$$
