7111748
  -OEChem-10051720203D

 20 20  0     1  0  0  0  0  0999 V2000
    1.7729    0.1521   -1.4359 S   0  0  0  0  0  0  0  0  0  0  0  0
   -1.9970    1.1299   -1.1245 O   0  5  0  0  0  0  0  0  0  0  0  0
   -1.6608    1.6249    1.0822 O   0  0  0  0  0  0  0  0  0  0  0  0
   -2.7705   -1.4434    0.0937 N   0  3  0  0  0  0  0  0  0  0  0  0
   -1.5397   -0.6382    0.3742 C   0  0  1  0  0  0  0  0  0  0  0  0
   -0.4091   -1.2354   -0.4727 C   0  0  0  0  0  0  0  0  0  0  0  0
    0.9291   -0.5995   -0.1705 C   0  0  0  0  0  0  0  0  0  0  0  0
   -1.7503    0.8555    0.0844 C   0  0  0  0  0  0  0  0  0  0  0  0
    1.5671   -0.5507    1.0266 C   0  0  0  0  0  0  0  0  0  0  0  0
    2.8110    0.1348    0.9139 C   0  0  0  0  0  0  0  0  0  0  0  0
    3.0474    0.5699   -0.3715 C   0  0  0  0  0  0  0  0  0  0  0  0
   -1.3425   -0.7832    1.4427 H   0  0  0  0  0  0  0  0  0  0  0  0
   -0.6494   -1.1538   -1.5411 H   0  0  0  0  0  0  0  0  0  0  0  0
   -0.3196   -2.3103   -0.2633 H   0  0  0  0  0  0  0  0  0  0  0  0
   -3.5667   -1.1092    0.6529 H   0  0  0  0  0  0  0  0  0  0  0  0
   -2.6333   -2.4371    0.3223 H   0  0  0  0  0  0  0  0  0  0  0  0
   -3.0442   -1.3863   -0.8964 H   0  0  0  0  0  0  0  0  0  0  0  0
    1.1859   -0.9772    1.9455 H   0  0  0  0  0  0  0  0  0  0  0  0
    3.4979    0.2999    1.7339 H   0  0  0  0  0  0  0  0  0  0  0  0
    3.9078    1.1130   -0.7364 H   0  0  0  0  0  0  0  0  0  0  0  0
  1  7  1  0  0  0  0
  1 11  1  0  0  0  0
  2  8  1  0  0  0  0
  3  8  2  0  0  0  0
  4  5  1  0  0  0  0
  4 15  1  0  0  0  0
  4 16  1  0  0  0  0
  4 17  1  0  0  0  0
  5  6  1  0  0  0  0
  5  8  1  0  0  0  0
  5 12  1  0  0  0  0
  6  7  1  0  0  0  0
  6 13  1  0  0  0  0
  6 14  1  0  0  0  0
  7  9  2  0  0  0  0
  9 10  1  0  0  0  0
  9 18  1  0  0  0  0
 10 11  2  0  0  0  0
 10 19  1  0  0  0  0
 11 20  1  0  0  0  0
M  CHG  2   2  -1   4   1
M  END
> <DATABASE_ID>
DB03673

> <DATABASE_NAME>
drugbank

> <ORIGINAL_SOURCE>
PUBCHEM

> <ORIGINAL_SOURCE_URL>
https://pubchem.ncbi.nlm.nih.gov/rest/pug/compound/inchikey/WTOFYLAWDLQMBZ-LURJTMIESA-N/SDF?record_type=3d

> <SMILES>
N[C@@H](CC1=CC=CS1)C(O)=O

> <INCHI_IDENTIFIER>
InChI=1S/C7H9NO2S/c8-6(7(9)10)4-5-2-1-3-11-5/h1-3,6H,4,8H2,(H,9,10)/t6-/m0/s1

> <INCHI_KEY>
WTOFYLAWDLQMBZ-LURJTMIESA-N

> <FORMULA>
C7H9NO2S

> <MOLECULAR_WEIGHT>
171.217

> <EXACT_MASS>
171.035399227

> <JCHEM_ACCEPTOR_COUNT>
3

> <JCHEM_AVERAGE_POLARIZABILITY>
16.85504753222726

> <JCHEM_BIOAVAILABILITY>
1

> <JCHEM_DONOR_COUNT>
2

> <JCHEM_FORMAL_CHARGE>
0

> <JCHEM_GHOSE_FILTER>
0

> <JCHEM_IUPAC>
(2S)-2-amino-3-(thiophen-2-yl)propanoic acid

> <ALOGPS_LOGP>
-1.84

> <JCHEM_LOGP>
-1.2708825343582109

> <ALOGPS_LOGS>
-2.03

> <JCHEM_MDDR_LIKE_RULE>
0

> <JCHEM_NUMBER_OF_RINGS>
1

> <JCHEM_PHYSIOLOGICAL_CHARGE>
0

> <JCHEM_PKA_STRONGEST_ACIDIC>
2.6036457037289256

> <JCHEM_PKA_STRONGEST_BASIC>
9.273490359204857

> <JCHEM_POLAR_SURFACE_AREA>
63.32

> <JCHEM_REFRACTIVITY>
42.116600000000005

> <JCHEM_ROTATABLE_BOND_COUNT>
3

> <JCHEM_RULE_OF_FIVE>
1

> <ALOGPS_SOLUBILITY>
1.61e+00 g/l

> <JCHEM_TRADITIONAL_IUPAC>
Î²(2-thienyl)alanine

> <JCHEM_VEBER_RULE>
0

> <DRUGBANK_ID>
DB03673

> <SECONDARY_ACCESSION_NUMBERS>
EXPT03063

> <DRUG_GROUPS>
experimental

> <GENERIC_NAME>
Beta(2-Thienyl)Alanine

$$$$
