5289457
  -OEChem-10051720133D

 13 12  0     1  0  0  0  0  0999 V2000
    0.9457   -1.7894    0.5983 O   0  0  0  0  0  0  0  0  0  0  0  0
   -1.9924    0.5320    1.2176 O   0  0  0  0  0  0  0  0  0  0  0  0
    1.9972    0.0290   -1.3020 O   0  5  0  0  0  0  0  0  0  0  0  0
    2.1768    1.2994    0.5885 O   0  0  0  0  0  0  0  0  0  0  0  0
   -2.8479    0.1882   -0.9227 O   0  5  0  0  0  0  0  0  0  0  0  0
    0.5461   -0.4254    0.4959 C   0  0  2  0  0  0  0  0  0  0  0  0
   -0.6367   -0.3386   -0.4265 C   0  0  0  0  0  0  0  0  0  0  0  0
    1.6840    0.3834   -0.1285 C   0  0  0  0  0  0  0  0  0  0  0  0
   -1.8728    0.1214   -0.1206 C   0  0  0  0  0  0  0  0  0  0  0  0
    0.3389   -0.0592    1.5061 H   0  0  0  0  0  0  0  0  0  0  0  0
   -0.4703   -0.7058   -1.4412 H   0  0  0  0  0  0  0  0  0  0  0  0
    0.2164   -2.2787    1.0167 H   0  0  0  0  0  0  0  0  0  0  0  0
   -2.9123    0.8352    1.3130 H   0  0  0  0  0  0  0  0  0  0  0  0
  1  6  1  0  0  0  0
  1 12  1  0  0  0  0
  2  9  1  0  0  0  0
  2 13  1  0  0  0  0
  3  8  1  0  0  0  0
  4  8  2  0  0  0  0
  5  9  1  0  0  0  0
  6  7  1  0  0  0  0
  6  8  1  0  0  0  0
  6 10  1  0  0  0  0
  7  9  2  0  0  0  0
  7 11  1  0  0  0  0
M  CHG  2   3  -1   5  -1
M  END
> <DATABASE_ID>
DB03343

> <DATABASE_NAME>
drugbank

> <ORIGINAL_SOURCE>
PUBCHEM

> <ORIGINAL_SOURCE_URL>
https://pubchem.ncbi.nlm.nih.gov/rest/pug/compound/inchikey/QFBHYOKSQPPXHZ-UWTATZPHSA-L/SDF?record_type=3d

> <SMILES>
O[C@H](\C=C(/O)[O-])C([O-])=O

> <INCHI_IDENTIFIER>
InChI=1S/C4H6O5/c5-2(4(8)9)1-3(6)7/h1-2,5-7H,(H,8,9)/p-2/t2-/m1/s1

> <INCHI_KEY>
QFBHYOKSQPPXHZ-UWTATZPHSA-L

> <FORMULA>
C4H4O5

> <MOLECULAR_WEIGHT>
132.0716

> <EXACT_MASS>
132.005873238

> <JCHEM_ACCEPTOR_COUNT>
5

> <JCHEM_AVERAGE_POLARIZABILITY>
10.00611540857694

> <JCHEM_BIOAVAILABILITY>
1

> <JCHEM_DONOR_COUNT>
2

> <JCHEM_FORMAL_CHARGE>
-2

> <JCHEM_GHOSE_FILTER>
0

> <JCHEM_IUPAC>
(2R,3Z)-2,4-dihydroxy-4-oxidobut-3-enoate

> <ALOGPS_LOGP>
-1.01

> <JCHEM_LOGP>
-0.409718553

> <ALOGPS_LOGS>
0.61

> <JCHEM_MDDR_LIKE_RULE>
0

> <JCHEM_NUMBER_OF_RINGS>
0

> <JCHEM_PHYSIOLOGICAL_CHARGE>
-2

> <JCHEM_PKA>
4.072030383860532

> <JCHEM_PKA_STRONGEST_ACIDIC>
3.101731414418124

> <JCHEM_PKA_STRONGEST_BASIC>
-4.049877053049811

> <JCHEM_POLAR_SURFACE_AREA>
103.65

> <JCHEM_REFRACTIVITY>
57.8975

> <JCHEM_ROTATABLE_BOND_COUNT>
2

> <JCHEM_RULE_OF_FIVE>
1

> <ALOGPS_SOLUBILITY>
6.91e+02 g/l

> <JCHEM_TRADITIONAL_IUPAC>
malate like intermediate

> <JCHEM_VEBER_RULE>
0

> <DRUGBANK_ID>
DB03343

> <SECONDARY_ACCESSION_NUMBERS>
EXPT03039

> <DRUG_GROUPS>
experimental

> <GENERIC_NAME>
Malate Like Intermediate

$$$$
