162636
  -OEChem-12241909003D

 18 19  0     0  0  0  0  0  0999 V2000
   -3.4762    0.8064   -0.0004 O   0  0  0  0  0  0  0  0  0  0  0  0
    1.4091    1.1444   -0.0004 N   0  0  0  0  0  0  0  0  0  0  0  0
    1.7127   -1.0574   -0.0003 N   0  0  0  0  0  0  0  0  0  0  0  0
    3.6254    0.4143    0.0006 N   0  0  0  0  0  0  0  0  0  0  0  0
    0.1498    0.6013   -0.0001 C   0  0  0  0  0  0  0  0  0  0  0  0
    0.3662   -0.7740   -0.0002 C   0  0  0  0  0  0  0  0  0  0  0  0
   -1.1210    1.1773    0.0002 C   0  0  0  0  0  0  0  0  0  0  0  0
    2.3080    0.1144   -0.0003 C   0  0  0  0  0  0  0  0  0  0  0  0
   -0.7394   -1.6411    0.0000 C   0  0  0  0  0  0  0  0  0  0  0  0
   -2.2100    0.2994    0.0005 C   0  0  0  0  0  0  0  0  0  0  0  0
   -2.0247   -1.0850    0.0003 C   0  0  0  0  0  0  0  0  0  0  0  0
    1.6332    2.1305   -0.0002 H   0  0  0  0  0  0  0  0  0  0  0  0
   -1.2568    2.2532    0.0000 H   0  0  0  0  0  0  0  0  0  0  0  0
   -0.6060   -2.7182   -0.0002 H   0  0  0  0  0  0  0  0  0  0  0  0
   -2.8823   -1.7540    0.0002 H   0  0  0  0  0  0  0  0  0  0  0  0
    4.3347   -0.3115    0.0011 H   0  0  0  0  0  0  0  0  0  0  0  0
    3.9705    1.3693    0.0009 H   0  0  0  0  0  0  0  0  0  0  0  0
   -4.1116    0.0700   -0.0004 H   0  0  0  0  0  0  0  0  0  0  0  0
  1 10  1  0  0  0  0
  1 18  1  0  0  0  0
  2  5  1  0  0  0  0
  2  8  1  0  0  0  0
  2 12  1  0  0  0  0
  3  6  1  0  0  0  0
  3  8  2  0  0  0  0
  4  8  1  0  0  0  0
  4 16  1  0  0  0  0
  4 17  1  0  0  0  0
  5  6  2  0  0  0  0
  5  7  1  0  0  0  0
  6  9  1  0  0  0  0
  7 10  2  0  0  0  0
  7 13  1  0  0  0  0
  9 11  2  0  0  0  0
  9 14  1  0  0  0  0
 10 11  1  0  0  0  0
 11 15  1  0  0  0  0
M  END
> <DATABASE_ID>
DB03729

> <DATABASE_NAME>
drugbank

> <ORIGINAL_SOURCE>
PUBCHEM

> <ORIGINAL_SOURCE_URL>
https://pubchem.ncbi.nlm.nih.gov/rest/pug/compound/inchikey/FNSYWIPPPFVBAV-UHFFFAOYSA-N/SDF?record_type=3d

> <SMILES>
NC1=NC2=C(N1)C=C(O)C=C2

> <INCHI_IDENTIFIER>
InChI=1S/C7H7N3O/c8-7-9-5-2-1-4(11)3-6(5)10-7/h1-3,11H,(H3,8,9,10)

> <INCHI_KEY>
FNSYWIPPPFVBAV-UHFFFAOYSA-N

> <FORMULA>
C7H7N3O

> <MOLECULAR_WEIGHT>
149.15

> <EXACT_MASS>
149.058911861

> <JCHEM_ACCEPTOR_COUNT>
3

> <JCHEM_ATOM_COUNT>
18

> <JCHEM_AVERAGE_NEUTRAL_MICROSPECIES_CHARGE>
0.9502598111839571

> <JCHEM_AVERAGE_POLARIZABILITY>
14.91378785059604

> <JCHEM_BIOAVAILABILITY>
1

> <JCHEM_DONOR_COUNT>
3

> <JCHEM_FORMAL_CHARGE>
0

> <JCHEM_GHOSE_FILTER>
0

> <JCHEM_IUPAC>
2-amino-1H-1,3-benzodiazol-6-ol

> <JCHEM_LOGP>
0.5389462262011142

> <JCHEM_MDDR_LIKE_RULE>
0

> <JCHEM_NEUTRAL_CHARGE>
1

> <JCHEM_NUMBER_OF_RINGS>
2

> <JCHEM_PHYSIOLOGICAL_CHARGE>
1

> <JCHEM_PKA>
13.544469713757818

> <JCHEM_PKA_STRONGEST_ACIDIC>
9.459807342740437

> <JCHEM_PKA_STRONGEST_BASIC>
8.32141418714687

> <JCHEM_POLAR_SURFACE_AREA>
74.93

> <JCHEM_REFRACTIVITY>
41.123099999999994

> <JCHEM_ROTATABLE_BOND_COUNT>
0

> <JCHEM_RULE_OF_FIVE>
1

> <JCHEM_TRADITIONAL_IUPAC>
[(2R,3S,5R)-5-(5-fluoro-2,4-dioxo-3H-pyrimidin-1-yl)-3-hydroxyoxolan-2-yl]methoxyphosphonic acid

> <JCHEM_VEBER_RULE>
0

> <DRUGBANK_ID>
DB03729

> <SECONDARY_ACCESSION_NUMBERS>
EXPT00052

> <DRUG_GROUPS>
experimental

> <GENERIC_NAME>
2-Amino-1H-benzimidazol-5-ol

> <SYNONYMS>
5-Hydroxy-2-aminobenzimidazole

$$$$
