4622
  -OEChem-10051720443D

 33 34  0     0  0  0  0  0  0999 V2000
   -3.9124   -0.5380    0.4344 O   0  0  0  0  0  0  0  0  0  0  0  0
    5.3142    1.1950    0.0176 O   0  0  0  0  0  0  0  0  0  0  0  0
    4.5156   -0.9034   -0.4055 O   0  0  0  0  0  0  0  0  0  0  0  0
    0.7262    1.0308    0.3915 N   0  0  0  0  0  0  0  0  0  0  0  0
    1.5533   -0.9588   -0.1536 N   0  0  0  0  0  0  0  0  0  0  0  0
    3.0839    0.8783    0.1436 N   0  0  0  0  0  0  0  0  0  0  0  0
   -0.3588    0.1983    0.2912 C   0  0  0  0  0  0  0  0  0  0  0  0
    0.1835   -1.0375   -0.0500 C   0  0  0  0  0  0  0  0  0  0  0  0
   -2.5660   -0.6894    0.2776 C   0  0  0  0  0  0  0  0  0  0  0  0
   -1.7265    0.4137    0.4642 C   0  0  0  0  0  0  0  0  0  0  0  0
   -0.6746   -2.1348   -0.2333 C   0  0  0  0  0  0  0  0  0  0  0  0
    1.8445    0.2938    0.1171 C   0  0  0  0  0  0  0  0  0  0  0  0
   -4.4585    0.7435    0.1313 C   0  0  0  0  0  0  0  0  0  0  0  0
   -2.0515   -1.9420   -0.0648 C   0  0  0  0  0  0  0  0  0  0  0  0
   -5.8939    0.5673   -0.3398 C   0  0  0  0  0  0  0  0  0  0  0  0
   -6.5382    1.8949   -0.6966 C   0  0  0  0  0  0  0  0  0  0  0  0
    4.3133    0.2681   -0.1109 C   0  0  0  0  0  0  0  0  0  0  0  0
    6.6458    0.7204   -0.2142 C   0  0  0  0  0  0  0  0  0  0  0  0
   -2.0833    1.3942    0.7563 H   0  0  0  0  0  0  0  0  0  0  0  0
    0.7036    2.0142    0.6262 H   0  0  0  0  0  0  0  0  0  0  0  0
   -0.2846   -3.1120   -0.4996 H   0  0  0  0  0  0  0  0  0  0  0  0
   -3.9001    1.2402   -0.6730 H   0  0  0  0  0  0  0  0  0  0  0  0
   -4.4318    1.3662    1.0330 H   0  0  0  0  0  0  0  0  0  0  0  0
   -2.7244   -2.7849   -0.2045 H   0  0  0  0  0  0  0  0  0  0  0  0
   -5.9172   -0.1022   -1.2081 H   0  0  0  0  0  0  0  0  0  0  0  0
   -6.4786    0.0673    0.4416 H   0  0  0  0  0  0  0  0  0  0  0  0
   -5.9934    2.3911   -1.5060 H   0  0  0  0  0  0  0  0  0  0  0  0
   -7.5696    1.7389   -1.0278 H   0  0  0  0  0  0  0  0  0  0  0  0
   -6.5571    2.5665    0.1677 H   0  0  0  0  0  0  0  0  0  0  0  0
    3.1087    1.8682    0.3752 H   0  0  0  0  0  0  0  0  0  0  0  0
    6.8993   -0.0622    0.5071 H   0  0  0  0  0  0  0  0  0  0  0  0
    7.3335    1.5593   -0.0783 H   0  0  0  0  0  0  0  0  0  0  0  0
    6.7422    0.3497   -1.2391 H   0  0  0  0  0  0  0  0  0  0  0  0
  1  9  1  0  0  0  0
  1 13  1  0  0  0  0
  2 17  1  0  0  0  0
  2 18  1  0  0  0  0
  3 17  2  0  0  0  0
  4  7  1  0  0  0  0
  4 12  1  0  0  0  0
  4 20  1  0  0  0  0
  5  8  1  0  0  0  0
  5 12  2  0  0  0  0
  6 12  1  0  0  0  0
  6 17  1  0  0  0  0
  6 30  1  0  0  0  0
  7  8  2  0  0  0  0
  7 10  1  0  0  0  0
  8 11  1  0  0  0  0
  9 10  2  0  0  0  0
  9 14  1  0  0  0  0
 10 19  1  0  0  0  0
 11 14  2  0  0  0  0
 11 21  1  0  0  0  0
 13 15  1  0  0  0  0
 13 22  1  0  0  0  0
 13 23  1  0  0  0  0
 14 24  1  0  0  0  0
 15 16  1  0  0  0  0
 15 25  1  0  0  0  0
 15 26  1  0  0  0  0
 16 27  1  0  0  0  0
 16 28  1  0  0  0  0
 16 29  1  0  0  0  0
 18 31  1  0  0  0  0
 18 32  1  0  0  0  0
 18 33  1  0  0  0  0
M  END
> <DATABASE_ID>
DB04910

> <DATABASE_NAME>
drugbank

> <ORIGINAL_SOURCE>
PUBCHEM

> <ORIGINAL_SOURCE_URL>
https://pubchem.ncbi.nlm.nih.gov/rest/pug/compound/inchikey/RAOCRURYZCVHMG-UHFFFAOYSA-N/SDF?record_type=3d

> <SMILES>
CCCOC1=CC2=C(C=C1)N=C(NC(=O)OC)N2

> <INCHI_IDENTIFIER>
InChI=1S/C12H15N3O3/c1-3-6-18-8-4-5-9-10(7-8)14-11(13-9)15-12(16)17-2/h4-5,7H,3,6H2,1-2H3,(H2,13,14,15,16)

> <INCHI_KEY>
RAOCRURYZCVHMG-UHFFFAOYSA-N

> <FORMULA>
C12H15N3O3

> <MOLECULAR_WEIGHT>
249.2658

> <EXACT_MASS>
249.111341361

> <JCHEM_ACCEPTOR_COUNT>
4

> <JCHEM_AVERAGE_POLARIZABILITY>
26.97615980127702

> <JCHEM_BIOAVAILABILITY>
1

> <JCHEM_DONOR_COUNT>
2

> <JCHEM_FORMAL_CHARGE>
0

> <JCHEM_GHOSE_FILTER>
1

> <JCHEM_IUPAC>
methyl N-(6-propoxy-1H-1,3-benzodiazol-2-yl)carbamate

> <ALOGPS_LOGP>
2.07

> <JCHEM_LOGP>
2.522414591333333

> <ALOGPS_LOGS>
-2.86

> <JCHEM_MDDR_LIKE_RULE>
0

> <JCHEM_NUMBER_OF_RINGS>
2

> <JCHEM_PHYSIOLOGICAL_CHARGE>
0

> <JCHEM_PKA>
13.946273238608427

> <JCHEM_PKA_STRONGEST_ACIDIC>
9.644972089169231

> <JCHEM_PKA_STRONGEST_BASIC>
4.5574244372555786

> <JCHEM_POLAR_SURFACE_AREA>
76.24000000000001

> <JCHEM_REFRACTIVITY>
66.6642

> <JCHEM_ROTATABLE_BOND_COUNT>
5

> <JCHEM_RULE_OF_FIVE>
1

> <ALOGPS_SOLUBILITY>
3.47e-01 g/l

> <JCHEM_TRADITIONAL_IUPAC>
oxibendazole

> <JCHEM_VEBER_RULE>
0

> <DRUGBANK_ID>
DB04910

> <DRUG_GROUPS>
investigational; vet_approved

> <GENERIC_NAME>
Oxibendazole

> <SYNONYMS>
5-Propoxy-2-benzimidazolecarbamic acid methyl ester; Methyl 5-n-propoxy-2-benzimidazole carbamate; Methyl 5-propoxy-2-benzimidazolecarbamate; Oxibendazole; Oxibendazolo; Oxibendazolum

$$$$
