5287728
  -OEChem-10051720393D

 59 62  0     0  0  0  0  0  0999 V2000
   -3.2967    2.7737   -0.1215 S   0  0  0  0  0  0  0  0  0  0  0  0
    2.4427   -2.3733   -0.9893 F   0  0  0  0  0  0  0  0  0  0  0  0
   -3.6624    2.7762    1.2841 O   0  0  0  0  0  0  0  0  0  0  0  0
   -3.4432    3.9816   -0.9132 O   0  0  0  0  0  0  0  0  0  0  0  0
    3.8122   -0.1576    2.2210 O   0  0  0  0  0  0  0  0  0  0  0  0
   -2.9039   -3.1229    0.0072 O   0  0  0  0  0  0  0  0  0  0  0  0
   -1.6750    2.2325   -0.2478 N   0  0  0  0  0  0  0  0  0  0  0  0
    2.3794    1.1043   -0.6638 N   0  0  0  0  0  0  0  0  0  0  0  0
   -4.1318    1.4656   -0.8760 N   0  0  0  0  0  0  0  0  0  0  0  0
    1.1721    1.9220   -0.7528 C   0  0  0  0  0  0  0  0  0  0  0  0
    0.1149    1.2084   -1.6023 C   0  0  0  0  0  0  0  0  0  0  0  0
    0.6231    2.2039    0.6499 C   0  0  0  0  0  0  0  0  0  0  0  0
   -1.1867    2.0050   -1.6397 C   0  0  0  0  0  0  0  0  0  0  0  0
   -0.6863    2.9853    0.5791 C   0  0  0  0  0  0  0  0  0  0  0  0
    3.3900    1.7636    0.1488 C   0  0  0  0  0  0  0  0  0  0  0  0
    4.6454    0.9401    0.2598 C   0  0  0  0  0  0  0  0  0  0  0  0
   -4.2758    0.2566   -0.1066 C   0  0  0  0  0  0  0  0  0  0  0  0
    4.7916    0.0214    1.2908 C   0  0  0  0  0  0  0  0  0  0  0  0
    5.6482    1.1174   -0.6846 C   0  0  0  0  0  0  0  0  0  0  0  0
   -3.5094   -0.8557   -0.4288 C   0  0  0  0  0  0  0  0  0  0  0  0
   -5.1799    0.2185    0.9468 C   0  0  0  0  0  0  0  0  0  0  0  0
    5.9613   -0.7336    1.3789 C   0  0  0  0  0  0  0  0  0  0  0  0
    6.8178    0.3624   -0.5963 C   0  0  0  0  0  0  0  0  0  0  0  0
   -3.6495   -2.0271    0.3157 C   0  0  0  0  0  0  0  0  0  0  0  0
    6.9744   -0.5629    0.4355 C   0  0  0  0  0  0  0  0  0  0  0  0
   -5.3202   -0.9526    1.6912 C   0  0  0  0  0  0  0  0  0  0  0  0
   -4.5549   -2.0753    1.3758 C   0  0  0  0  0  0  0  0  0  0  0  0
   -1.5551   -2.9340   -0.2439 C   0  0  0  0  0  0  0  0  0  0  0  0
   -0.8203   -2.1214    0.6000 C   0  0  0  0  0  0  0  0  0  0  0  0
   -0.9784   -3.5628   -1.3324 C   0  0  0  0  0  0  0  0  0  0  0  0
    0.5381   -1.9308    0.3466 C   0  0  0  0  0  0  0  0  0  0  0  0
    0.3801   -3.3723   -1.5858 C   0  0  0  0  0  0  0  0  0  0  0  0
    1.1383   -2.5563   -0.7462 C   0  0  0  0  0  0  0  0  0  0  0  0
    1.4159    2.8754   -1.2414 H   0  0  0  0  0  0  0  0  0  0  0  0
   -0.0951    0.2148   -1.1990 H   0  0  0  0  0  0  0  0  0  0  0  0
    0.4835    1.0675   -2.6257 H   0  0  0  0  0  0  0  0  0  0  0  0
    1.2999    2.8207    1.2481 H   0  0  0  0  0  0  0  0  0  0  0  0
    0.4573    1.2647    1.1933 H   0  0  0  0  0  0  0  0  0  0  0  0
   -1.0281    2.9695   -2.1362 H   0  0  0  0  0  0  0  0  0  0  0  0
   -1.9109    1.4377   -2.2278 H   0  0  0  0  0  0  0  0  0  0  0  0
   -1.0718    3.1131    1.5959 H   0  0  0  0  0  0  0  0  0  0  0  0
   -0.5221    3.9784    0.1450 H   0  0  0  0  0  0  0  0  0  0  0  0
    2.7431    0.9375   -1.6020 H   0  0  0  0  0  0  0  0  0  0  0  0
    3.6428    2.7449   -0.2751 H   0  0  0  0  0  0  0  0  0  0  0  0
    3.0626    1.9554    1.1741 H   0  0  0  0  0  0  0  0  0  0  0  0
   -3.9681    1.3236   -1.8803 H   0  0  0  0  0  0  0  0  0  0  0  0
    5.5369    1.8336   -1.4939 H   0  0  0  0  0  0  0  0  0  0  0  0
   -2.8271   -0.8075   -1.2737 H   0  0  0  0  0  0  0  0  0  0  0  0
   -5.7932    1.0806    1.1939 H   0  0  0  0  0  0  0  0  0  0  0  0
    6.0966   -1.4584    2.1773 H   0  0  0  0  0  0  0  0  0  0  0  0
    7.6064    0.4948   -1.3312 H   0  0  0  0  0  0  0  0  0  0  0  0
    7.8851   -1.1508    0.5040 H   0  0  0  0  0  0  0  0  0  0  0  0
   -6.0276   -0.9915    2.5144 H   0  0  0  0  0  0  0  0  0  0  0  0
   -4.6689   -2.9850    1.9590 H   0  0  0  0  0  0  0  0  0  0  0  0
    4.0959   -0.8397    2.8536 H   0  0  0  0  0  0  0  0  0  0  0  0
   -1.2582   -1.6414    1.4702 H   0  0  0  0  0  0  0  0  0  0  0  0
   -1.5676   -4.1975   -1.9871 H   0  0  0  0  0  0  0  0  0  0  0  0
    1.1305   -1.3026    1.0049 H   0  0  0  0  0  0  0  0  0  0  0  0
    0.8476   -3.8588   -2.4368 H   0  0  0  0  0  0  0  0  0  0  0  0
  1  3  2  0  0  0  0
  1  4  2  0  0  0  0
  1  7  1  0  0  0  0
  1  9  1  0  0  0  0
  2 33  1  0  0  0  0
  5 18  1  0  0  0  0
  5 55  1  0  0  0  0
  6 24  1  0  0  0  0
  6 28  1  0  0  0  0
  7 13  1  0  0  0  0
  7 14  1  0  0  0  0
  8 10  1  0  0  0  0
  8 15  1  0  0  0  0
  8 43  1  0  0  0  0
  9 17  1  0  0  0  0
  9 46  1  0  0  0  0
 10 11  1  0  0  0  0
 10 12  1  0  0  0  0
 10 34  1  0  0  0  0
 11 13  1  0  0  0  0
 11 35  1  0  0  0  0
 11 36  1  0  0  0  0
 12 14  1  0  0  0  0
 12 37  1  0  0  0  0
 12 38  1  0  0  0  0
 13 39  1  0  0  0  0
 13 40  1  0  0  0  0
 14 41  1  0  0  0  0
 14 42  1  0  0  0  0
 15 16  1  0  0  0  0
 15 44  1  0  0  0  0
 15 45  1  0  0  0  0
 16 18  1  0  0  0  0
 16 19  2  0  0  0  0
 17 20  2  0  0  0  0
 17 21  1  0  0  0  0
 18 22  2  0  0  0  0
 19 23  1  0  0  0  0
 19 47  1  0  0  0  0
 20 24  1  0  0  0  0
 20 48  1  0  0  0  0
 21 26  2  0  0  0  0
 21 49  1  0  0  0  0
 22 25  1  0  0  0  0
 22 50  1  0  0  0  0
 23 25  2  0  0  0  0
 23 51  1  0  0  0  0
 24 27  2  0  0  0  0
 25 52  1  0  0  0  0
 26 27  1  0  0  0  0
 26 53  1  0  0  0  0
 27 54  1  0  0  0  0
 28 29  2  0  0  0  0
 28 30  1  0  0  0  0
 29 31  1  0  0  0  0
 29 56  1  0  0  0  0
 30 32  2  0  0  0  0
 30 57  1  0  0  0  0
 31 33  2  0  0  0  0
 31 58  1  0  0  0  0
 32 33  1  0  0  0  0
 32 59  1  0  0  0  0
M  END
> <DATABASE_ID>
DB04632

> <DATABASE_NAME>
drugbank

> <ORIGINAL_SOURCE>
PUBCHEM

> <ORIGINAL_SOURCE_URL>
https://pubchem.ncbi.nlm.nih.gov/rest/pug/compound/inchikey/JHHBGNIRSUTQAS-UHFFFAOYSA-N/SDF?record_type=3d

> <SMILES>
OC1=C(CNC2CCN(CC2)S(=O)(=O)NC2=CC(OC3=CC=C(F)C=C3)=CC=C2)C=CC=C1

> <INCHI_IDENTIFIER>
InChI=1S/C24H26FN3O4S/c25-19-8-10-22(11-9-19)32-23-6-3-5-21(16-23)27-33(30,31)28-14-12-20(13-15-28)26-17-18-4-1-2-7-24(18)29/h1-11,16,20,26-27,29H,12-15,17H2

> <INCHI_KEY>
JHHBGNIRSUTQAS-UHFFFAOYSA-N

> <FORMULA>
C24H26FN3O4S

> <MOLECULAR_WEIGHT>
471.544

> <EXACT_MASS>
471.16280523

> <JCHEM_ACCEPTOR_COUNT>
5

> <JCHEM_AVERAGE_POLARIZABILITY>
47.59335282372906

> <JCHEM_BIOAVAILABILITY>
1

> <JCHEM_DONOR_COUNT>
3

> <JCHEM_FORMAL_CHARGE>
0

> <JCHEM_GHOSE_FILTER>
1

> <JCHEM_IUPAC>
N-[3-(4-fluorophenoxy)phenyl]-4-{[(2-hydroxyphenyl)methyl]amino}piperidine-1-sulfonamide

> <ALOGPS_LOGP>
3.37

> <JCHEM_LOGP>
1.8614621061873577

> <ALOGPS_LOGS>
-4.23

> <JCHEM_MDDR_LIKE_RULE>
1

> <JCHEM_NUMBER_OF_RINGS>
4

> <JCHEM_PHYSIOLOGICAL_CHARGE>
1

> <JCHEM_PKA>
10.330895966004032

> <JCHEM_PKA_STRONGEST_ACIDIC>
8.103193638103626

> <JCHEM_PKA_STRONGEST_BASIC>
11.004799944929115

> <JCHEM_POLAR_SURFACE_AREA>
90.89999999999999

> <JCHEM_REFRACTIVITY>
124.5164

> <JCHEM_ROTATABLE_BOND_COUNT>
6

> <JCHEM_RULE_OF_FIVE>
1

> <ALOGPS_SOLUBILITY>
2.80e-02 g/l

> <JCHEM_TRADITIONAL_IUPAC>
N-[3-(4-fluorophenoxy)phenyl]-4-{[(2-hydroxyphenyl)methyl]amino}piperidine-1-sulfonamide

> <JCHEM_VEBER_RULE>
0

> <DRUGBANK_ID>
DB04632

> <DRUG_GROUPS>
experimental

> <GENERIC_NAME>
4-(2-HYDROXYBENZYLAMINO)-N-(3-(4-FLUOROPHENOXY)PHENYL)PIPERIDINE-1-SULFONAMIDE

$$$$
