448971
  -OEChem-10051720363D

 51 53  0     0  0  0  0  0  0999 V2000
   -0.7341    1.8396    1.9656 Cl  0  0  0  0  0  0  0  0  0  0  0  0
   -3.6580    1.3813    2.2406 O   0  0  0  0  0  0  0  0  0  0  0  0
   -4.3085   -0.3570   -2.1590 O   0  0  0  0  0  0  0  0  0  0  0  0
   -5.3235    0.3566    0.3160 O   0  0  0  0  0  0  0  0  0  0  0  0
    2.3376   -0.2376   -0.7518 N   0  0  0  0  0  0  0  0  0  0  0  0
    0.5481   -1.3183    0.0227 N   0  0  0  0  0  0  0  0  0  0  0  0
    4.0380   -1.9340   -0.3896 N   0  0  0  0  0  0  0  0  0  0  0  0
    3.0829   -3.9486    0.6026 N   0  0  0  0  0  0  0  0  0  0  0  0
    0.7552   -4.1460    1.1217 N   0  0  0  0  0  0  0  0  0  0  0  0
    0.9896   -0.1987   -0.5116 C   0  0  0  0  0  0  0  0  0  0  0  0
    3.1427    0.8140   -1.3280 C   0  0  0  0  0  0  0  0  0  0  0  0
    0.1700    0.9877   -0.8336 C   0  0  0  0  0  0  0  0  0  0  0  0
    2.7831   -1.4622   -0.3427 C   0  0  0  0  0  0  0  0  0  0  0  0
    3.7074    1.7538   -0.2596 C   0  0  0  0  0  0  0  0  0  0  0  0
    1.6586   -2.1169    0.1338 C   0  0  0  0  0  0  0  0  0  0  0  0
   -1.3052    0.8301   -0.4906 C   0  0  0  0  0  0  0  0  0  0  0  0
    4.5698    2.8693   -0.8511 C   0  0  0  0  0  0  0  0  0  0  0  0
   -1.7855    1.1935    0.7515 C   0  0  0  0  0  0  0  0  0  0  0  0
   -2.1297    0.3127   -1.4717 C   0  0  0  0  0  0  0  0  0  0  0  0
    1.8408   -3.4078    0.6192 C   0  0  0  0  0  0  0  0  0  0  0  0
   -3.1439    1.0338    1.0251 C   0  0  0  0  0  0  0  0  0  0  0  0
   -3.4880    0.1529   -1.1981 C   0  0  0  0  0  0  0  0  0  0  0  0
   -3.9951    0.5135    0.0503 C   0  0  0  0  0  0  0  0  0  0  0  0
    4.0895   -3.1893    0.1066 C   0  0  0  0  0  0  0  0  0  0  0  0
    5.0902    3.7773    0.1807 C   0  0  0  0  0  0  0  0  0  0  0  0
   -3.6768    0.3717    3.2463 C   0  0  0  0  0  0  0  0  0  0  0  0
   -4.9239    0.5743   -3.0465 C   0  0  0  0  0  0  0  0  0  0  0  0
   -5.8484   -0.9660    0.2299 C   0  0  0  0  0  0  0  0  0  0  0  0
    5.5173    4.5206    1.0212 C   0  0  0  0  0  0  0  0  0  0  0  0
    2.5371    1.3640   -2.0552 H   0  0  0  0  0  0  0  0  0  0  0  0
    3.9570    0.3414   -1.8897 H   0  0  0  0  0  0  0  0  0  0  0  0
    0.5779    1.8904   -0.3664 H   0  0  0  0  0  0  0  0  0  0  0  0
    0.2410    1.1859   -1.9125 H   0  0  0  0  0  0  0  0  0  0  0  0
    4.3026    1.1754    0.4601 H   0  0  0  0  0  0  0  0  0  0  0  0
    2.8855    2.1950    0.3190 H   0  0  0  0  0  0  0  0  0  0  0  0
    3.9784    3.4443   -1.5735 H   0  0  0  0  0  0  0  0  0  0  0  0
    5.4078    2.4296   -1.4047 H   0  0  0  0  0  0  0  0  0  0  0  0
   -1.7389    0.0270   -2.4445 H   0  0  0  0  0  0  0  0  0  0  0  0
    5.0698   -3.6537    0.1086 H   0  0  0  0  0  0  0  0  0  0  0  0
   -0.1725   -3.7444    1.1359 H   0  0  0  0  0  0  0  0  0  0  0  0
    0.9134   -5.0819    1.4696 H   0  0  0  0  0  0  0  0  0  0  0  0
   -2.6817   -0.0583    3.3968 H   0  0  0  0  0  0  0  0  0  0  0  0
   -4.3857   -0.4182    2.9796 H   0  0  0  0  0  0  0  0  0  0  0  0
   -4.0037    0.8294    4.1840 H   0  0  0  0  0  0  0  0  0  0  0  0
   -5.5503    1.2801   -2.4919 H   0  0  0  0  0  0  0  0  0  0  0  0
   -5.5572    0.0172   -3.7422 H   0  0  0  0  0  0  0  0  0  0  0  0
   -4.1649    1.1156   -3.6201 H   0  0  0  0  0  0  0  0  0  0  0  0
   -5.0840   -1.7288    0.4151 H   0  0  0  0  0  0  0  0  0  0  0  0
   -6.3135   -1.1222   -0.7473 H   0  0  0  0  0  0  0  0  0  0  0  0
   -6.6245   -1.0701    0.9938 H   0  0  0  0  0  0  0  0  0  0  0  0
    5.8960    5.1798    1.7670 H   0  0  0  0  0  0  0  0  0  0  0  0
  1 18  1  0  0  0  0
  2 21  1  0  0  0  0
  2 26  1  0  0  0  0
  3 22  1  0  0  0  0
  3 27  1  0  0  0  0
  4 23  1  0  0  0  0
  4 28  1  0  0  0  0
  5 10  1  0  0  0  0
  5 11  1  0  0  0  0
  5 13  1  0  0  0  0
  6 10  2  0  0  0  0
  6 15  1  0  0  0  0
  7 13  2  0  0  0  0
  7 24  1  0  0  0  0
  8 20  1  0  0  0  0
  8 24  2  0  0  0  0
  9 20  1  0  0  0  0
  9 40  1  0  0  0  0
  9 41  1  0  0  0  0
 10 12  1  0  0  0  0
 11 14  1  0  0  0  0
 11 30  1  0  0  0  0
 11 31  1  0  0  0  0
 12 16  1  0  0  0  0
 12 32  1  0  0  0  0
 12 33  1  0  0  0  0
 13 15  1  0  0  0  0
 14 17  1  0  0  0  0
 14 34  1  0  0  0  0
 14 35  1  0  0  0  0
 15 20  2  0  0  0  0
 16 18  1  0  0  0  0
 16 19  2  0  0  0  0
 17 25  1  0  0  0  0
 17 36  1  0  0  0  0
 17 37  1  0  0  0  0
 18 21  2  0  0  0  0
 19 22  1  0  0  0  0
 19 38  1  0  0  0  0
 21 23  1  0  0  0  0
 22 23  2  0  0  0  0
 24 39  1  0  0  0  0
 25 29  3  0  0  0  0
 26 42  1  0  0  0  0
 26 43  1  0  0  0  0
 26 44  1  0  0  0  0
 27 45  1  0  0  0  0
 27 46  1  0  0  0  0
 27 47  1  0  0  0  0
 28 48  1  0  0  0  0
 28 49  1  0  0  0  0
 28 50  1  0  0  0  0
 29 51  1  0  0  0  0
M  END
> <DATABASE_ID>
DB04505

> <DATABASE_NAME>
drugbank

> <ORIGINAL_SOURCE>
PUBCHEM

> <ORIGINAL_SOURCE_URL>
https://pubchem.ncbi.nlm.nih.gov/rest/pug/compound/inchikey/WUJFGZAAFADPSF-UHFFFAOYSA-N/SDF?record_type=3d

> <SMILES>
COC1=C(OC)C(OC)=C(Cl)C(CC2=NC3=C(N)N=CN=C3N2CCCC#C)=C1

> <INCHI_IDENTIFIER>
InChI=1S/C20H22ClN5O3/c1-5-6-7-8-26-14(25-16-19(22)23-11-24-20(16)26)10-12-9-13(27-2)17(28-3)18(29-4)15(12)21/h1,9,11H,6-8,10H2,2-4H3,(H2,22,23,24)

> <INCHI_KEY>
WUJFGZAAFADPSF-UHFFFAOYSA-N

> <FORMULA>
C20H22ClN5O3

> <MOLECULAR_WEIGHT>
415.873

> <EXACT_MASS>
415.141117302

> <JCHEM_ACCEPTOR_COUNT>
7

> <JCHEM_AVERAGE_POLARIZABILITY>
42.98111291494547

> <JCHEM_BIOAVAILABILITY>
1

> <JCHEM_DONOR_COUNT>
1

> <JCHEM_FORMAL_CHARGE>
0

> <JCHEM_GHOSE_FILTER>
1

> <JCHEM_IUPAC>
8-[(2-chloro-3,4,5-trimethoxyphenyl)methyl]-9-(pent-4-yn-1-yl)-9H-purin-6-amine

> <ALOGPS_LOGP>
2.93

> <JCHEM_LOGP>
2.7424116813333335

> <ALOGPS_LOGS>
-4.24

> <JCHEM_MDDR_LIKE_RULE>
1

> <JCHEM_NUMBER_OF_RINGS>
3

> <JCHEM_PHYSIOLOGICAL_CHARGE>
0

> <JCHEM_PKA_STRONGEST_ACIDIC>
18.593911527742918

> <JCHEM_PKA_STRONGEST_BASIC>
5.064826644348598

> <JCHEM_POLAR_SURFACE_AREA>
97.31

> <JCHEM_REFRACTIVITY>
111.78919999999998

> <JCHEM_ROTATABLE_BOND_COUNT>
8

> <JCHEM_RULE_OF_FIVE>
1

> <ALOGPS_SOLUBILITY>
2.41e-02 g/l

> <JCHEM_TRADITIONAL_IUPAC>
8-[(2-chloro-3,4,5-trimethoxyphenyl)methyl]-9-(pent-4-yn-1-yl)purin-6-amine

> <JCHEM_VEBER_RULE>
0

> <DRUGBANK_ID>
DB04505

> <SECONDARY_ACCESSION_NUMBERS>
EXPT02699

> <DRUG_GROUPS>
experimental

> <GENERIC_NAME>
8-(2-Chloro-3,4,5-Trimethoxy-Benzyl)-9-Pent-4-Ylnyl-9h-Purin-6-Ylamine

$$$$
