9223
  -OEChem-10051720303D

 15 16  0     0  0  0  0  0  0999 V2000
   -1.5396   -1.1283    0.0002 O   0  0  0  0  0  0  0  0  0  0  0  0
   -0.2759    0.7444   -0.0001 C   0  0  0  0  0  0  0  0  0  0  0  0
   -0.2648   -0.6467    0.0000 C   0  0  0  0  0  0  0  0  0  0  0  0
    0.9536    1.4259   -0.0001 C   0  0  0  0  0  0  0  0  0  0  0  0
   -1.6454    1.1193   -0.0002 C   0  0  0  0  0  0  0  0  0  0  0  0
    0.8954   -1.4189   -0.0002 C   0  0  0  0  0  0  0  0  0  0  0  0
    2.1380    0.6762    0.0003 C   0  0  0  0  0  0  0  0  0  0  0  0
    2.1067   -0.7206   -0.0001 C   0  0  0  0  0  0  0  0  0  0  0  0
   -2.3680   -0.0514    0.0001 C   0  0  0  0  0  0  0  0  0  0  0  0
    0.9937    2.5110    0.0000 H   0  0  0  0  0  0  0  0  0  0  0  0
   -2.0548    2.1195   -0.0003 H   0  0  0  0  0  0  0  0  0  0  0  0
    0.8632   -2.5019   -0.0002 H   0  0  0  0  0  0  0  0  0  0  0  0
    3.0954    1.1910    0.0005 H   0  0  0  0  0  0  0  0  0  0  0  0
    3.0416   -1.2757    0.0000 H   0  0  0  0  0  0  0  0  0  0  0  0
   -3.4246   -0.2759    0.0003 H   0  0  0  0  0  0  0  0  0  0  0  0
  1  3  1  0  0  0  0
  1  9  1  0  0  0  0
  2  3  1  0  0  0  0
  2  4  2  0  0  0  0
  2  5  1  0  0  0  0
  3  6  2  0  0  0  0
  4  7  1  0  0  0  0
  4 10  1  0  0  0  0
  5  9  2  0  0  0  0
  5 11  1  0  0  0  0
  6  8  1  0  0  0  0
  6 12  1  0  0  0  0
  7  8  2  0  0  0  0
  7 13  1  0  0  0  0
  8 14  1  0  0  0  0
  9 15  1  0  0  0  0
M  END
> <DATABASE_ID>
DB04179

> <DATABASE_NAME>
drugbank

> <ORIGINAL_SOURCE>
PUBCHEM

> <ORIGINAL_SOURCE_URL>
https://pubchem.ncbi.nlm.nih.gov/rest/pug/compound/inchikey/IANQTJSKSUMEQM-UHFFFAOYSA-N/SDF?record_type=3d

> <SMILES>
O1C=CC2=C1C=CC=C2

> <INCHI_IDENTIFIER>
InChI=1S/C8H6O/c1-2-4-8-7(3-1)5-6-9-8/h1-6H

> <INCHI_KEY>
IANQTJSKSUMEQM-UHFFFAOYSA-N

> <FORMULA>
C8H6O

> <MOLECULAR_WEIGHT>
118.1326

> <EXACT_MASS>
118.041864814

> <JCHEM_ACCEPTOR_COUNT>
0

> <JCHEM_AVERAGE_POLARIZABILITY>
12.331506745897473

> <JCHEM_BIOAVAILABILITY>
1

> <JCHEM_DONOR_COUNT>
0

> <JCHEM_FORMAL_CHARGE>
0

> <JCHEM_GHOSE_FILTER>
0

> <JCHEM_IUPAC>
1-benzofuran

> <ALOGPS_LOGP>
2.75

> <JCHEM_LOGP>
2.1323692166666666

> <ALOGPS_LOGS>
-2.16

> <JCHEM_MDDR_LIKE_RULE>
0

> <JCHEM_NUMBER_OF_RINGS>
2

> <JCHEM_PHYSIOLOGICAL_CHARGE>
0

> <JCHEM_PKA_STRONGEST_BASIC>
-3.3767065811362973

> <JCHEM_POLAR_SURFACE_AREA>
13.14

> <JCHEM_REFRACTIVITY>
34.8991

> <JCHEM_ROTATABLE_BOND_COUNT>
0

> <JCHEM_RULE_OF_FIVE>
1

> <ALOGPS_SOLUBILITY>
8.15e-01 g/l

> <JCHEM_TRADITIONAL_IUPAC>
benzofuran

> <JCHEM_VEBER_RULE>
1

> <DRUGBANK_ID>
DB04179

> <SECONDARY_ACCESSION_NUMBERS>
EXPT00790

> <DRUG_GROUPS>
experimental

> <GENERIC_NAME>
Benzofuran

$$$$
