121947
  -OEChem-10051720333D

 27 27  0     1  0  0  0  0  0999 V2000
   -3.0489   -0.4866    0.0568 P   0  0  0  0  0  0  0  0  0  0  0  0
   -1.5264   -1.0271    0.0608 O   0  0  0  0  0  0  0  0  0  0  0  0
   -0.6029    1.0133    1.6385 O   0  0  0  0  0  0  0  0  0  0  0  0
    0.7325    2.2934   -1.4978 O   0  0  0  0  0  0  0  0  0  0  0  0
    3.9963   -0.4851    0.9694 O   0  0  0  0  0  0  0  0  0  0  0  0
   -3.9113   -1.7590    0.5594 O   0  0  0  0  0  0  0  0  0  0  0  0
   -3.3925   -0.4044   -1.5212 O   0  0  0  0  0  0  0  0  0  0  0  0
    3.4109   -2.0006   -0.6402 O   0  0  0  0  0  0  0  0  0  0  0  0
   -3.2753    0.7845    0.8218 O   0  0  0  0  0  0  0  0  0  0  0  0
   -0.5318    1.1812    0.2222 C   0  0  1  0  0  0  0  0  0  0  0  0
    0.7247    1.9919   -0.1041 C   0  0  1  0  0  0  0  0  0  0  0  0
   -0.5113   -0.1879   -0.4807 C   0  0  1  0  0  0  0  0  0  0  0  0
    2.0085    1.2315    0.2745 C   0  0  0  0  0  0  0  0  0  0  0  0
    1.9374   -0.2390   -0.0272 C   0  0  0  0  0  0  0  0  0  0  0  0
    0.8148   -0.8859   -0.3741 C   0  0  0  0  0  0  0  0  0  0  0  0
    3.1754   -1.0204    0.0421 C   0  0  0  0  0  0  0  0  0  0  0  0
   -1.3971    1.7646   -0.1050 H   0  0  0  0  0  0  0  0  0  0  0  0
    0.7186    2.9444    0.4392 H   0  0  0  0  0  0  0  0  0  0  0  0
   -0.7201   -0.0565   -1.5496 H   0  0  0  0  0  0  0  0  0  0  0  0
    2.1840    1.3561    1.3505 H   0  0  0  0  0  0  0  0  0  0  0  0
    2.8573    1.6749   -0.2605 H   0  0  0  0  0  0  0  0  0  0  0  0
    0.8301   -1.9474   -0.6083 H   0  0  0  0  0  0  0  0  0  0  0  0
   -1.3720    0.4548    1.8372 H   0  0  0  0  0  0  0  0  0  0  0  0
   -0.0715    2.8044   -1.6925 H   0  0  0  0  0  0  0  0  0  0  0  0
    4.8391   -0.9812    1.0463 H   0  0  0  0  0  0  0  0  0  0  0  0
   -4.8764   -1.6527    0.6988 H   0  0  0  0  0  0  0  0  0  0  0  0
   -4.2445   -0.0072   -1.8013 H   0  0  0  0  0  0  0  0  0  0  0  0
  1  2  1  0  0  0  0
  1  6  1  0  0  0  0
  1  7  1  0  0  0  0
  1  9  2  0  0  0  0
  2 12  1  0  0  0  0
  3 10  1  0  0  0  0
  3 23  1  0  0  0  0
  4 11  1  0  0  0  0
  4 24  1  0  0  0  0
  5 16  1  0  0  0  0
  5 25  1  0  0  0  0
  6 26  1  0  0  0  0
  7 27  1  0  0  0  0
  8 16  2  0  0  0  0
 10 11  1  0  0  0  0
 10 12  1  0  0  0  0
 10 17  1  0  0  0  0
 11 13  1  0  0  0  0
 11 18  1  0  0  0  0
 12 15  1  0  0  0  0
 12 19  1  0  0  0  0
 13 14  1  0  0  0  0
 13 20  1  0  0  0  0
 13 21  1  0  0  0  0
 14 15  2  0  0  0  0
 14 16  1  0  0  0  0
 15 22  1  0  0  0  0
M  END
> <DATABASE_ID>
DB04328

> <DATABASE_NAME>
drugbank

> <ORIGINAL_SOURCE>
PUBCHEM

> <ORIGINAL_SOURCE_URL>
https://pubchem.ncbi.nlm.nih.gov/rest/pug/compound/inchikey/QYOJSKGCWNAKGW-PBXRRBTRSA-N/SDF?record_type=3d

> <SMILES>
O[C@@H]1CC(=C[C@@H](OP(O)(O)=O)[C@H]1O)C(O)=O

> <INCHI_IDENTIFIER>
InChI=1S/C7H11O8P/c8-4-1-3(7(10)11)2-5(6(4)9)15-16(12,13)14/h2,4-6,8-9H,1H2,(H,10,11)(H2,12,13,14)/t4-,5-,6+/m1/s1

> <INCHI_KEY>
QYOJSKGCWNAKGW-PBXRRBTRSA-N

> <FORMULA>
C7H11O8P

> <MOLECULAR_WEIGHT>
254.1312

> <EXACT_MASS>
254.01915384

> <JCHEM_ACCEPTOR_COUNT>
7

> <JCHEM_AVERAGE_POLARIZABILITY>
20.455959192130013

> <JCHEM_BIOAVAILABILITY>
1

> <JCHEM_DONOR_COUNT>
5

> <JCHEM_FORMAL_CHARGE>
0

> <JCHEM_GHOSE_FILTER>
0

> <JCHEM_IUPAC>
(3R,4S,5R)-4,5-dihydroxy-3-(phosphonooxy)cyclohex-1-ene-1-carboxylic acid

> <ALOGPS_LOGP>
-2.07

> <JCHEM_LOGP>
-1.7636401083333335

> <ALOGPS_LOGS>
-1.08

> <JCHEM_MDDR_LIKE_RULE>
0

> <JCHEM_NUMBER_OF_RINGS>
1

> <JCHEM_PHYSIOLOGICAL_CHARGE>
-3

> <JCHEM_PKA>
4.1018283495734575

> <JCHEM_PKA_STRONGEST_ACIDIC>
1.3157644234401227

> <JCHEM_PKA_STRONGEST_BASIC>
-3.225778459939349

> <JCHEM_POLAR_SURFACE_AREA>
144.52

> <JCHEM_REFRACTIVITY>
49.833200000000005

> <JCHEM_ROTATABLE_BOND_COUNT>
3

> <JCHEM_RULE_OF_FIVE>
1

> <ALOGPS_SOLUBILITY>
2.10e+01 g/l

> <JCHEM_TRADITIONAL_IUPAC>
3-phosphoshikimic acid

> <JCHEM_VEBER_RULE>
0

> <DRUGBANK_ID>
DB04328

> <SECONDARY_ACCESSION_NUMBERS>
EXPT02832

> <DRUG_GROUPS>
experimental

> <GENERIC_NAME>
Shikimate-3-Phosphate

$$$$
