790
  -OEChem-12051918433D

 14 15  0     0  0  0  0  0  0999 V2000
   -1.7504    1.9036    0.0002 O   0  0  0  0  0  0  0  0  0  0  0  0
    1.2179    1.3753   -0.0001 N   0  0  0  0  0  0  0  0  0  0  0  0
   -0.0658   -1.8236    0.0003 N   0  0  0  0  0  0  0  0  0  0  0  0
    2.0816   -0.6881    0.0001 N   0  0  0  0  0  0  0  0  0  0  0  0
   -2.0264   -0.3911   -0.0005 N   0  0  0  0  0  0  0  0  0  0  0  0
    0.1533    0.5197    0.0002 C   0  0  0  0  0  0  0  0  0  0  0  0
    0.7203   -0.7322    0.0002 C   0  0  0  0  0  0  0  0  0  0  0  0
   -1.2651    0.7783    0.0002 C   0  0  0  0  0  0  0  0  0  0  0  0
    2.3536    0.6023   -0.0004 C   0  0  0  0  0  0  0  0  0  0  0  0
   -1.4190   -1.5444   -0.0002 C   0  0  0  0  0  0  0  0  0  0  0  0
    1.1816    2.3862   -0.0003 H   0  0  0  0  0  0  0  0  0  0  0  0
    0.2795   -2.7774    0.0001 H   0  0  0  0  0  0  0  0  0  0  0  0
    3.3405    1.0428   -0.0006 H   0  0  0  0  0  0  0  0  0  0  0  0
   -2.0241   -2.4655   -0.0006 H   0  0  0  0  0  0  0  0  0  0  0  0
  1  8  2  0  0  0  0
  2  6  1  0  0  0  0
  2  9  1  0  0  0  0
  2 11  1  0  0  0  0
  3  7  1  0  0  0  0
  3 10  1  0  0  0  0
  3 12  1  0  0  0  0
  4  7  1  0  0  0  0
  4  9  2  0  0  0  0
  5  8  1  0  0  0  0
  5 10  2  0  0  0  0
  6  7  2  0  0  0  0
  6  8  1  0  0  0  0
  9 13  1  0  0  0  0
 10 14  1  0  0  0  0
M  END
> <DATABASE_ID>
DB04076

> <DATABASE_NAME>
drugbank

> <ORIGINAL_SOURCE>
PUBCHEM

> <ORIGINAL_SOURCE_URL>
https://pubchem.ncbi.nlm.nih.gov/rest/pug/compound/inchikey/FDGQSTZJBFJUBT-UHFFFAOYSA-N/SDF?record_type=3d

> <SMILES>
O=C1N=CNC2=C1NC=N2

> <INCHI_IDENTIFIER>
InChI=1S/C5H4N4O/c10-5-3-4(7-1-6-3)8-2-9-5/h1-2H,(H2,6,7,8,9,10)

> <INCHI_KEY>
FDGQSTZJBFJUBT-UHFFFAOYSA-N

> <FORMULA>
C5H4N4O

> <MOLECULAR_WEIGHT>
136.1115

> <EXACT_MASS>
136.03851077

> <JCHEM_ACCEPTOR_COUNT>
4

> <JCHEM_ATOM_COUNT>
14

> <JCHEM_AVERAGE_POLARIZABILITY>
11.782205311148328

> <JCHEM_BIOAVAILABILITY>
1

> <JCHEM_DONOR_COUNT>
2

> <JCHEM_FORMAL_CHARGE>
0

> <JCHEM_GHOSE_FILTER>
0

> <JCHEM_IUPAC>
6,7-dihydro-3H-purin-6-one

> <ALOGPS_LOGP>
-0.74

> <JCHEM_LOGP>
-0.3616587753333333

> <ALOGPS_LOGS>
-1.79

> <JCHEM_MDDR_LIKE_RULE>
0

> <JCHEM_NUMBER_OF_RINGS>
2

> <JCHEM_PHYSIOLOGICAL_CHARGE>
0

> <JCHEM_PKA>
12.873385784880627

> <JCHEM_PKA_STRONGEST_ACIDIC>
9.409939285794493

> <JCHEM_PKA_STRONGEST_BASIC>
2.284234192567251

> <JCHEM_POLAR_SURFACE_AREA>
70.14

> <JCHEM_REFRACTIVITY>
35.611799999999995

> <JCHEM_ROTATABLE_BOND_COUNT>
0

> <JCHEM_RULE_OF_FIVE>
1

> <ALOGPS_SOLUBILITY>
2.20e+00 g/l

> <JCHEM_TRADITIONAL_IUPAC>
N-{3-[4-(3-aminopropyl)piperazin-1-yl]propyl}-3-nitro-5-{[(2S,3R,4S,5R,6R)-3,4,5-trihydroxy-6-(hydroxymethyl)oxan-2-yl]oxy}benzamide

> <JCHEM_VEBER_RULE>
0

> <DRUGBANK_ID>
DB04076

> <SECONDARY_ACCESSION_NUMBERS>
EXPT01767

> <DRUG_GROUPS>
experimental

> <GENERIC_NAME>
Hypoxanthine

$$$$
