154000
  -OEChem-03111912193D

 49 52  0     1  0  0  0  0  0999 V2000
   -5.1041   -2.8582   -0.6453 O   0  0  0  0  0  0  0  0  0  0  0  0
    0.6264    2.4921    1.2346 O   0  0  0  0  0  0  0  0  0  0  0  0
    3.6186    0.3538   -1.6602 O   0  0  0  0  0  0  0  0  0  0  0  0
   -6.9948    0.0686   -0.8831 O   0  0  0  0  0  0  0  0  0  0  0  0
   -2.9552   -2.2475   -0.1113 O   0  0  0  0  0  0  0  0  0  0  0  0
   -6.3066   -2.1570   -0.8719 N   0  0  0  0  0  0  0  0  0  0  0  0
    3.3673    1.1208    0.4525 N   0  0  0  0  0  0  0  0  0  0  0  0
   -4.6919   -0.5724   -0.4597 C   0  0  2  0  0  0  0  0  0  0  0  0
   -4.5088    0.1889    0.8386 C   0  0  0  0  0  0  0  0  0  0  0  0
   -3.1360    0.8044    0.9440 C   0  0  0  0  0  0  0  0  0  0  0  0
   -6.1433   -0.7971   -0.7610 C   0  0  0  0  0  0  0  0  0  0  0  0
   -4.1111   -1.9587   -0.3735 C   0  0  0  0  0  0  0  0  0  0  0  0
    2.5074    3.3984    0.0195 C   0  0  0  0  0  0  0  0  0  0  0  0
   -2.9265    2.0868    0.4602 C   0  0  0  0  0  0  0  0  0  0  0  0
   -2.1071    0.0781    1.5237 C   0  0  0  0  0  0  0  0  0  0  0  0
    0.9961    3.4327    0.2274 C   0  0  0  0  0  0  0  0  0  0  0  0
    3.0001    2.0602   -0.4523 C   0  0  0  0  0  0  0  0  0  0  0  0
   -0.6126    1.9372    1.1392 C   0  0  0  0  0  0  0  0  0  0  0  0
   -1.6570    2.6566    0.5584 C   0  0  0  0  0  0  0  0  0  0  0  0
   -0.8377    0.6480    1.6219 C   0  0  0  0  0  0  0  0  0  0  0  0
    3.1407    1.6277   -1.7261 C   0  0  0  0  0  0  0  0  0  0  0  0
    3.7274    0.1234   -0.3231 C   0  0  0  0  0  0  0  0  0  0  0  0
    4.2206   -1.1777    0.0351 C   0  0  0  0  0  0  0  0  0  0  0  0
    2.9093    2.1859   -3.0626 C   0  0  0  0  0  0  0  0  0  0  0  0
    4.5505   -2.1039   -0.9585 C   0  0  0  0  0  0  0  0  0  0  0  0
    4.3723   -1.5255    1.3804 C   0  0  0  0  0  0  0  0  0  0  0  0
    5.0282   -3.3673   -0.6098 C   0  0  0  0  0  0  0  0  0  0  0  0
    4.8501   -2.7888    1.7291 C   0  0  0  0  0  0  0  0  0  0  0  0
    5.1779   -3.7096    0.7340 C   0  0  0  0  0  0  0  0  0  0  0  0
   -4.2529   -0.0650   -1.3267 H   0  0  0  0  0  0  0  0  0  0  0  0
   -5.2573    0.9874    0.9309 H   0  0  0  0  0  0  0  0  0  0  0  0
   -4.6834   -0.4634    1.7055 H   0  0  0  0  0  0  0  0  0  0  0  0
    3.0085    3.6304    0.9677 H   0  0  0  0  0  0  0  0  0  0  0  0
    2.7992    4.1744   -0.6977 H   0  0  0  0  0  0  0  0  0  0  0  0
   -3.7347    2.6560    0.0100 H   0  0  0  0  0  0  0  0  0  0  0  0
   -2.2715   -0.9147    1.9310 H   0  0  0  0  0  0  0  0  0  0  0  0
    0.5173    3.2067   -0.7347 H   0  0  0  0  0  0  0  0  0  0  0  0
    0.6969    4.4357    0.5528 H   0  0  0  0  0  0  0  0  0  0  0  0
   -1.5316    3.6725    0.1958 H   0  0  0  0  0  0  0  0  0  0  0  0
   -0.0289    0.0852    2.0800 H   0  0  0  0  0  0  0  0  0  0  0  0
   -7.1510   -2.6803   -1.0650 H   0  0  0  0  0  0  0  0  0  0  0  0
    3.8482    2.5478   -3.4925 H   0  0  0  0  0  0  0  0  0  0  0  0
    2.4936    1.4292   -3.7353 H   0  0  0  0  0  0  0  0  0  0  0  0
    2.2056    3.0231   -3.0259 H   0  0  0  0  0  0  0  0  0  0  0  0
    4.4478   -1.8757   -2.0166 H   0  0  0  0  0  0  0  0  0  0  0  0
    4.1228   -0.8249    2.1738 H   0  0  0  0  0  0  0  0  0  0  0  0
    5.2836   -4.0848   -1.3842 H   0  0  0  0  0  0  0  0  0  0  0  0
    4.9666   -3.0558    2.7754 H   0  0  0  0  0  0  0  0  0  0  0  0
    5.5497   -4.6933    1.0056 H   0  0  0  0  0  0  0  0  0  0  0  0
  1  6  1  0  0  0  0
  1 12  1  0  0  0  0
  2 16  1  0  0  0  0
  2 18  1  0  0  0  0
  3 21  1  0  0  0  0
  3 22  1  0  0  0  0
  4 11  2  0  0  0  0
  5 12  2  0  0  0  0
  6 11  1  0  0  0  0
  6 41  1  0  0  0  0
  7 17  1  0  0  0  0
  7 22  2  0  0  0  0
  8  9  1  0  0  0  0
  8 11  1  0  0  0  0
  8 12  1  0  0  0  0
  8 30  1  0  0  0  0
  9 10  1  0  0  0  0
  9 31  1  0  0  0  0
  9 32  1  0  0  0  0
 10 14  2  0  0  0  0
 10 15  1  0  0  0  0
 13 16  1  0  0  0  0
 13 17  1  0  0  0  0
 13 33  1  0  0  0  0
 13 34  1  0  0  0  0
 14 19  1  0  0  0  0
 14 35  1  0  0  0  0
 15 20  2  0  0  0  0
 15 36  1  0  0  0  0
 16 37  1  0  0  0  0
 16 38  1  0  0  0  0
 17 21  2  0  0  0  0
 18 19  2  0  0  0  0
 18 20  1  0  0  0  0
 19 39  1  0  0  0  0
 20 40  1  0  0  0  0
 21 24  1  0  0  0  0
 22 23  1  0  0  0  0
 23 25  2  0  0  0  0
 23 26  1  0  0  0  0
 24 42  1  0  0  0  0
 24 43  1  0  0  0  0
 24 44  1  0  0  0  0
 25 27  1  0  0  0  0
 25 45  1  0  0  0  0
 26 28  2  0  0  0  0
 26 46  1  0  0  0  0
 27 29  2  0  0  0  0
 27 47  1  0  0  0  0
 28 29  1  0  0  0  0
 28 48  1  0  0  0  0
 29 49  1  0  0  0  0
M  END
> <DATABASE_ID>
DB04971

> <DATABASE_NAME>
drugbank

> <ORIGINAL_SOURCE>
PUBCHEM

> <ORIGINAL_SOURCE_URL>
https://pubchem.ncbi.nlm.nih.gov/rest/pug/compound/inchikey/QBQLYIISSRXYKL-UHFFFAOYSA-N/SDF?record_type=3d

> <SMILES>
CC1=C(CCOC2=CC=C(CC3C(=O)NOC3=O)C=C2)N=C(O1)C1=CC=CC=C1

> <INCHI_IDENTIFIER>
InChI=1S/C22H20N2O5/c1-14-19(23-21(28-14)16-5-3-2-4-6-16)11-12-27-17-9-7-15(8-10-17)13-18-20(25)24-29-22(18)26/h2-10,18H,11-13H2,1H3,(H,24,25)

> <INCHI_KEY>
QBQLYIISSRXYKL-UHFFFAOYSA-N

> <FORMULA>
C22H20N2O5

> <MOLECULAR_WEIGHT>
392.411

> <EXACT_MASS>
392.137221752

> <JCHEM_ACCEPTOR_COUNT>
4

> <JCHEM_ATOM_COUNT>
49

> <JCHEM_AVERAGE_POLARIZABILITY>
41.31536853645733

> <JCHEM_BIOAVAILABILITY>
1

> <JCHEM_DONOR_COUNT>
1

> <JCHEM_FORMAL_CHARGE>
0

> <JCHEM_GHOSE_FILTER>
1

> <JCHEM_IUPAC>
4-({4-[2-(5-methyl-2-phenyl-1,3-oxazol-4-yl)ethoxy]phenyl}methyl)-1,2-oxazolidine-3,5-dione

> <ALOGPS_LOGP>
3.85

> <JCHEM_LOGP>
3.3978654190000004

> <ALOGPS_LOGS>
-4.21

> <JCHEM_MDDR_LIKE_RULE>
1

> <JCHEM_NUMBER_OF_RINGS>
4

> <JCHEM_PHYSIOLOGICAL_CHARGE>
0

> <JCHEM_PKA>
9.978211537122206

> <JCHEM_PKA_STRONGEST_ACIDIC>
9.650723237400104

> <JCHEM_PKA_STRONGEST_BASIC>
0.93306425546629

> <JCHEM_POLAR_SURFACE_AREA>
90.66000000000001

> <JCHEM_REFRACTIVITY>
114.56660000000004

> <JCHEM_ROTATABLE_BOND_COUNT>
7

> <JCHEM_RULE_OF_FIVE>
1

> <ALOGPS_SOLUBILITY>
2.44e-02 g/l

> <JCHEM_TRADITIONAL_IUPAC>
nomifensine maleate

> <JCHEM_VEBER_RULE>
0

> <DRUGBANK_ID>
DB04971

> <DRUG_GROUPS>
investigational

> <GENERIC_NAME>
Reglitazar

> <SYNONYMS>
Reglitazar; Reglixane

$$$$
