7000165
  -OEChem-10051723573D

 26 27  0     1  0  0  0  0  0999 V2000
    1.4891   -0.8250    1.7185 O   0  0  0  0  0  0  0  0  0  0  0  0
    2.6040   -1.9200    0.0744 O   0  0  0  0  0  0  0  0  0  0  0  0
   -1.6903    1.9419    0.5490 N   0  0  0  0  0  0  0  0  0  0  0  0
    3.8756    0.4249   -0.5701 N   0  0  0  0  0  0  0  0  0  0  0  0
   -3.1616    0.0370    0.4468 N   0  0  0  0  0  0  0  0  0  0  0  0
    1.4958    0.9987   -0.9769 C   0  0  0  0  0  0  0  0  0  0  0  0
    0.1316    1.1136   -0.4236 C   0  0  0  0  0  0  0  0  0  0  0  0
    2.5544    0.5150    0.0474 C   0  0  1  0  0  0  0  0  0  0  0  0
   -0.8608    0.0980   -0.3995 C   0  0  0  0  0  0  0  0  0  0  0  0
   -1.9839    0.6465    0.2130 C   0  0  0  0  0  0  0  0  0  0  0  0
   -0.4074    2.2366    0.1664 C   0  0  0  0  0  0  0  0  0  0  0  0
   -0.9455   -1.2367   -0.8281 C   0  0  0  0  0  0  0  0  0  0  0  0
    2.2284   -0.8699    0.5797 C   0  0  0  0  0  0  0  0  0  0  0  0
   -2.1431   -1.9154   -0.6108 C   0  0  0  0  0  0  0  0  0  0  0  0
   -3.1864   -1.2452    0.0139 C   0  0  0  0  0  0  0  0  0  0  0  0
    1.4773    0.3142   -1.8362 H   0  0  0  0  0  0  0  0  0  0  0  0
    1.8063    1.9732   -1.3775 H   0  0  0  0  0  0  0  0  0  0  0  0
    2.6196    1.2069    0.8953 H   0  0  0  0  0  0  0  0  0  0  0  0
    0.0060    3.2186    0.3498 H   0  0  0  0  0  0  0  0  0  0  0  0
   -2.3235    2.5815    1.0084 H   0  0  0  0  0  0  0  0  0  0  0  0
   -0.1133   -1.7326   -1.3170 H   0  0  0  0  0  0  0  0  0  0  0  0
    4.1491    1.3429   -0.9194 H   0  0  0  0  0  0  0  0  0  0  0  0
    3.8333   -0.1803   -1.3899 H   0  0  0  0  0  0  0  0  0  0  0  0
   -2.2570   -2.9473   -0.9247 H   0  0  0  0  0  0  0  0  0  0  0  0
   -4.1275   -1.7592    0.1912 H   0  0  0  0  0  0  0  0  0  0  0  0
    1.2912   -1.7225    2.0614 H   0  0  0  0  0  0  0  0  0  0  0  0
  1 13  1  0  0  0  0
  1 26  1  0  0  0  0
  2 13  2  0  0  0  0
  3 10  1  0  0  0  0
  3 11  1  0  0  0  0
  3 20  1  0  0  0  0
  4  8  1  0  0  0  0
  4 22  1  0  0  0  0
  4 23  1  0  0  0  0
  5 10  1  0  0  0  0
  5 15  2  0  0  0  0
  6  7  1  0  0  0  0
  6  8  1  0  0  0  0
  6 16  1  0  0  0  0
  6 17  1  0  0  0  0
  7  9  1  0  0  0  0
  7 11  2  0  0  0  0
  8 13  1  0  0  0  0
  8 18  1  0  0  0  0
  9 10  2  0  0  0  0
  9 12  1  0  0  0  0
 11 19  1  0  0  0  0
 12 14  2  0  0  0  0
 12 21  1  0  0  0  0
 14 15  1  0  0  0  0
 14 24  1  0  0  0  0
 15 25  1  0  0  0  0
M  END
> <DATABASE_ID>
DB04206

> <DATABASE_NAME>
drugbank

> <ORIGINAL_SOURCE>
PUBCHEM

> <ORIGINAL_SOURCE_URL>
https://pubchem.ncbi.nlm.nih.gov/rest/pug/compound/inchikey/SNLOIIPRZGMRAB-QMMMGPOBSA-N/SDF?record_type=3d

> <SMILES>
[H][C@](N)(CC1=CNC2=C1C=CC=N2)C(O)=O

> <INCHI_IDENTIFIER>
InChI=1S/C10H11N3O2/c11-8(10(14)15)4-6-5-13-9-7(6)2-1-3-12-9/h1-3,5,8H,4,11H2,(H,12,13)(H,14,15)/t8-/m0/s1

> <INCHI_KEY>
SNLOIIPRZGMRAB-QMMMGPOBSA-N

> <FORMULA>
C10H11N3O2

> <MOLECULAR_WEIGHT>
205.2132

> <EXACT_MASS>
205.085126611

> <JCHEM_ACCEPTOR_COUNT>
4

> <JCHEM_AVERAGE_POLARIZABILITY>
20.43991147322119

> <JCHEM_BIOAVAILABILITY>
1

> <JCHEM_DONOR_COUNT>
3

> <JCHEM_FORMAL_CHARGE>
0

> <JCHEM_GHOSE_FILTER>
0

> <JCHEM_IUPAC>
(2S)-2-amino-3-{1H-pyrrolo[2,3-b]pyridin-3-yl}propanoic acid

> <ALOGPS_LOGP>
-2.14

> <JCHEM_LOGP>
-1.9380922934931835

> <ALOGPS_LOGS>
-1.60

> <JCHEM_MDDR_LIKE_RULE>
0

> <JCHEM_NUMBER_OF_RINGS>
2

> <JCHEM_PHYSIOLOGICAL_CHARGE>
0

> <JCHEM_PKA>
15.372360757072709

> <JCHEM_PKA_STRONGEST_ACIDIC>
2.2889083904362506

> <JCHEM_PKA_STRONGEST_BASIC>
9.383580800114855

> <JCHEM_POLAR_SURFACE_AREA>
92

> <JCHEM_REFRACTIVITY>
53.9985

> <JCHEM_ROTATABLE_BOND_COUNT>
3

> <JCHEM_RULE_OF_FIVE>
1

> <ALOGPS_SOLUBILITY>
5.20e+00 g/l

> <JCHEM_TRADITIONAL_IUPAC>
(2S)-2-amino-3-{1H-pyrrolo[2,3-b]pyridin-3-yl}propanoic acid

> <JCHEM_VEBER_RULE>
0

> <DRUGBANK_ID>
DB04206

> <SECONDARY_ACCESSION_NUMBERS>
EXPT03111

> <DRUG_GROUPS>
experimental

> <GENERIC_NAME>
Nz2-Tryptophan

$$$$
