183145
  -OEChem-10051720273D

  3  2  0     0  0  0  0  0  0999 V2000
   -0.1171   -0.6747    0.0000 P   0  0  0  0  0  0  0  0  0  0  0  0
    1.2364    0.2870    0.0000 O   0  5  0  0  0  0  0  0  0  0  0  0
   -1.1193    0.3877    0.0000 O   0  0  0  0  0  0  0  0  0  0  0  0
  1  2  1  0  0  0  0
  1  3  2  0  0  0  0
M  CHG  1   2  -1
M  END
> <DATABASE_ID>
DB04053

> <DATABASE_NAME>
drugbank

> <ORIGINAL_SOURCE>
PUBCHEM

> <ORIGINAL_SOURCE_URL>
https://pubchem.ncbi.nlm.nih.gov/rest/pug/compound/inchikey/GQZXNSPRSGFJLY-UHFFFAOYSA-M/SDF?record_type=3d

> <SMILES>
[O-]P=O

> <INCHI_IDENTIFIER>
InChI=1S/HO2P/c1-3-2/h(H,1,2)/p-1

> <INCHI_KEY>
GQZXNSPRSGFJLY-UHFFFAOYSA-M

> <FORMULA>
O2P

> <MOLECULAR_WEIGHT>
62.9726

> <EXACT_MASS>
62.963590756

> <JCHEM_ACCEPTOR_COUNT>
2

> <JCHEM_AVERAGE_POLARIZABILITY>
3.239829320703744

> <JCHEM_BIOAVAILABILITY>
1

> <JCHEM_DONOR_COUNT>
0

> <JCHEM_FORMAL_CHARGE>
-1

> <JCHEM_GHOSE_FILTER>
0

> <JCHEM_IUPAC>
phosphinate

> <JCHEM_LOGP>
-0.5875999999999999

> <JCHEM_MDDR_LIKE_RULE>
0

> <JCHEM_NUMBER_OF_RINGS>
0

> <JCHEM_PHYSIOLOGICAL_CHARGE>
-1

> <JCHEM_PKA_STRONGEST_ACIDIC>
-4.067187441773435

> <JCHEM_POLAR_SURFACE_AREA>
40.129999999999995

> <JCHEM_REFRACTIVITY>
8.0858

> <JCHEM_ROTATABLE_BOND_COUNT>
0

> <JCHEM_RULE_OF_FIVE>
1

> <JCHEM_TRADITIONAL_IUPAC>
hypophosphite

> <JCHEM_VEBER_RULE>
0

> <DRUGBANK_ID>
DB04053

> <SECONDARY_ACCESSION_NUMBERS>
EXPT02627

> <DRUG_GROUPS>
experimental

> <GENERIC_NAME>
Hypophosphite

$$$$
