794323
  -OEChem-10051720333D

 36 37  0     1  0  0  0  0  0999 V2000
   -3.8251   -2.6376   -0.2128 S   0  0  0  0  0  0  0  0  0  0  0  0
    0.8012    2.0660   -0.2378 O   0  0  0  0  0  0  0  0  0  0  0  0
   -0.5430    2.8756    1.4643 O   0  0  0  0  0  0  0  0  0  0  0  0
    2.2651   -2.2444   -2.2357 O   0  0  0  0  0  0  0  0  0  0  0  0
   -1.7844   -1.3896    0.9526 N   0  0  0  0  0  0  0  0  0  0  0  0
   -2.8722   -0.2108   -0.7552 N   0  0  0  0  0  0  0  0  0  0  0  0
   -0.7532   -0.3652    1.1167 C   0  0  2  0  0  0  0  0  0  0  0  0
   -1.0798    0.8744    0.3134 C   0  0  0  0  0  0  0  0  0  0  0  0
    0.5721   -0.9404    0.7298 C   0  0  0  0  0  0  0  0  0  0  0  0
   -2.0784    0.9075   -0.5904 C   0  0  0  0  0  0  0  0  0  0  0  0
   -2.7730   -1.3552    0.0003 C   0  0  0  0  0  0  0  0  0  0  0  0
    0.8011   -1.3286   -0.5879 C   0  0  0  0  0  0  0  0  0  0  0  0
   -0.2615    2.0644    0.6022 C   0  0  0  0  0  0  0  0  0  0  0  0
    1.5715   -1.0847    1.6890 C   0  0  0  0  0  0  0  0  0  0  0  0
   -2.4518    2.0582   -1.4813 C   0  0  0  0  0  0  0  0  0  0  0  0
    2.0373   -1.8645   -0.9488 C   0  0  0  0  0  0  0  0  0  0  0  0
    2.8077   -1.6206    1.3281 C   0  0  0  0  0  0  0  0  0  0  0  0
    3.0407   -2.0103    0.0092 C   0  0  0  0  0  0  0  0  0  0  0  0
    1.6983    3.1699   -0.0782 C   0  0  0  0  0  0  0  0  0  0  0  0
    2.8274    3.0360   -1.0776 C   0  0  0  0  0  0  0  0  0  0  0  0
   -0.7709   -0.1097    2.1837 H   0  0  0  0  0  0  0  0  0  0  0  0
   -1.7247   -2.2159    1.5404 H   0  0  0  0  0  0  0  0  0  0  0  0
   -3.6060   -0.1653   -1.4570 H   0  0  0  0  0  0  0  0  0  0  0  0
    0.0313   -1.2266   -1.3483 H   0  0  0  0  0  0  0  0  0  0  0  0
    1.4050   -0.7846    2.7199 H   0  0  0  0  0  0  0  0  0  0  0  0
   -3.4810    2.3755   -1.2818 H   0  0  0  0  0  0  0  0  0  0  0  0
   -2.3781    1.7637   -2.5337 H   0  0  0  0  0  0  0  0  0  0  0  0
   -1.8055    2.9290   -1.3388 H   0  0  0  0  0  0  0  0  0  0  0  0
    3.5891   -1.7339    2.0739 H   0  0  0  0  0  0  0  0  0  0  0  0
    4.0082   -2.4260   -0.2591 H   0  0  0  0  0  0  0  0  0  0  0  0
    1.1585    4.1074   -0.2525 H   0  0  0  0  0  0  0  0  0  0  0  0
    2.1031    3.1668    0.9401 H   0  0  0  0  0  0  0  0  0  0  0  0
    3.5349    3.8644   -0.9824 H   0  0  0  0  0  0  0  0  0  0  0  0
    3.3638    2.0930   -0.9278 H   0  0  0  0  0  0  0  0  0  0  0  0
    2.4365    3.0198   -2.1003 H   0  0  0  0  0  0  0  0  0  0  0  0
    3.1709   -2.5916   -2.3061 H   0  0  0  0  0  0  0  0  0  0  0  0
  1 11  2  0  0  0  0
  2 13  1  0  0  0  0
  2 19  1  0  0  0  0
  3 13  2  0  0  0  0
  4 16  1  0  0  0  0
  4 36  1  0  0  0  0
  5  7  1  0  0  0  0
  5 11  1  0  0  0  0
  5 22  1  0  0  0  0
  6 10  1  0  0  0  0
  6 11  1  0  0  0  0
  6 23  1  0  0  0  0
  7  8  1  0  0  0  0
  7  9  1  0  0  0  0
  7 21  1  0  0  0  0
  8 10  2  0  0  0  0
  8 13  1  0  0  0  0
  9 12  2  0  0  0  0
  9 14  1  0  0  0  0
 10 15  1  0  0  0  0
 12 16  1  0  0  0  0
 12 24  1  0  0  0  0
 14 17  2  0  0  0  0
 14 25  1  0  0  0  0
 15 26  1  0  0  0  0
 15 27  1  0  0  0  0
 15 28  1  0  0  0  0
 16 18  2  0  0  0  0
 17 18  1  0  0  0  0
 17 29  1  0  0  0  0
 18 30  1  0  0  0  0
 19 20  1  0  0  0  0
 19 31  1  0  0  0  0
 19 32  1  0  0  0  0
 20 33  1  0  0  0  0
 20 34  1  0  0  0  0
 20 35  1  0  0  0  0
M  END
> <DATABASE_ID>
DB04331

> <DATABASE_NAME>
drugbank

> <ORIGINAL_SOURCE>
PUBCHEM

> <ORIGINAL_SOURCE_URL>
https://pubchem.ncbi.nlm.nih.gov/rest/pug/compound/inchikey/LOBCDGHHHHGHFA-LBPRGKRZSA-N/SDF?record_type=3d

> <SMILES>
[H][C@]1(NC(=S)NC(C)=C1C(=O)OCC)C1=CC=CC(O)=C1

> <INCHI_IDENTIFIER>
InChI=1S/C14H16N2O3S/c1-3-19-13(18)11-8(2)15-14(20)16-12(11)9-5-4-6-10(17)7-9/h4-7,12,17H,3H2,1-2H3,(H2,15,16,20)/t12-/m0/s1

> <INCHI_KEY>
LOBCDGHHHHGHFA-LBPRGKRZSA-N

> <FORMULA>
C14H16N2O3S

> <MOLECULAR_WEIGHT>
292.353

> <EXACT_MASS>
292.088163078

> <JCHEM_ACCEPTOR_COUNT>
2

> <JCHEM_AVERAGE_POLARIZABILITY>
30.170655858882505

> <JCHEM_BIOAVAILABILITY>
1

> <JCHEM_DONOR_COUNT>
3

> <JCHEM_FORMAL_CHARGE>
0

> <JCHEM_GHOSE_FILTER>
1

> <JCHEM_IUPAC>
ethyl (4S)-4-(3-hydroxyphenyl)-6-methyl-2-sulfanylidene-1,2,3,4-tetrahydropyrimidine-5-carboxylate

> <ALOGPS_LOGP>
2.11

> <JCHEM_LOGP>
1.8266066176666673

> <ALOGPS_LOGS>
-3.69

> <JCHEM_MDDR_LIKE_RULE>
0

> <JCHEM_NUMBER_OF_RINGS>
2

> <JCHEM_PHYSIOLOGICAL_CHARGE>
0

> <JCHEM_PKA>
10.895194832782778

> <JCHEM_PKA_STRONGEST_ACIDIC>
9.374902778119752

> <JCHEM_PKA_STRONGEST_BASIC>
-2.9999545798979903

> <JCHEM_POLAR_SURFACE_AREA>
70.59

> <JCHEM_REFRACTIVITY>
81.4057

> <JCHEM_ROTATABLE_BOND_COUNT>
4

> <JCHEM_RULE_OF_FIVE>
1

> <ALOGPS_SOLUBILITY>
6.03e-02 g/l

> <JCHEM_TRADITIONAL_IUPAC>
monastrol

> <JCHEM_VEBER_RULE>
0

> <DRUGBANK_ID>
DB04331

> <SECONDARY_ACCESSION_NUMBERS>
EXPT02296

> <DRUG_GROUPS>
experimental

> <GENERIC_NAME>
Monastrol

$$$$
