446586
  -OEChem-10051720343D

 23 23  0     1  0  0  0  0  0999 V2000
    0.8187   -0.7709    0.6560 O   0  0  0  0  0  0  0  0  0  0  0  0
   -0.3612    1.8867    0.8275 O   0  0  0  0  0  0  0  0  0  0  0  0
   -2.7374    1.1103   -0.3719 O   0  0  0  0  0  0  0  0  0  0  0  0
   -0.2747   -2.4432   -0.6226 O   0  0  0  0  0  0  0  0  0  0  0  0
    3.2894    0.0757   -0.1702 O   0  0  0  0  0  0  0  0  0  0  0  0
   -0.3223    1.1203   -0.3784 C   0  0  2  0  0  0  0  0  0  0  0  0
   -1.5923    0.2763   -0.4993 C   0  0  1  0  0  0  0  0  0  0  0  0
    0.9139    0.2114   -0.3853 C   0  0  1  0  0  0  0  0  0  0  0  0
   -1.6201   -0.8262    0.5586 C   0  0  0  0  0  0  0  0  0  0  0  0
   -0.3202   -1.6284    0.5454 C   0  0  2  0  0  0  0  0  0  0  0  0
    2.2062    0.9880   -0.1598 C   0  0  0  0  0  0  0  0  0  0  0  0
   -0.2841    1.8376   -1.2067 H   0  0  0  0  0  0  0  0  0  0  0  0
   -1.6387   -0.1641   -1.5007 H   0  0  0  0  0  0  0  0  0  0  0  0
    0.9919   -0.3191   -1.3429 H   0  0  0  0  0  0  0  0  0  0  0  0
   -1.7594   -0.3704    1.5472 H   0  0  0  0  0  0  0  0  0  0  0  0
   -2.4862   -1.4760    0.3863 H   0  0  0  0  0  0  0  0  0  0  0  0
   -0.2997   -2.3043    1.4057 H   0  0  0  0  0  0  0  0  0  0  0  0
    2.2144    1.4786    0.8184 H   0  0  0  0  0  0  0  0  0  0  0  0
    2.3598    1.7359   -0.9438 H   0  0  0  0  0  0  0  0  0  0  0  0
    0.3052    2.5903    0.7525 H   0  0  0  0  0  0  0  0  0  0  0  0
   -2.6937    1.5439    0.4975 H   0  0  0  0  0  0  0  0  0  0  0  0
   -0.7176   -1.9908   -1.3569 H   0  0  0  0  0  0  0  0  0  0  0  0
    4.1013    0.5922   -0.0301 H   0  0  0  0  0  0  0  0  0  0  0  0
  1  8  1  0  0  0  0
  1 10  1  0  0  0  0
  2  6  1  0  0  0  0
  2 20  1  0  0  0  0
  3  7  1  0  0  0  0
  3 21  1  0  0  0  0
  4 10  1  0  0  0  0
  4 22  1  0  0  0  0
  5 11  1  0  0  0  0
  5 23  1  0  0  0  0
  6  7  1  0  0  0  0
  6  8  1  0  0  0  0
  6 12  1  0  0  0  0
  7  9  1  0  0  0  0
  7 13  1  0  0  0  0
  8 11  1  0  0  0  0
  8 14  1  0  0  0  0
  9 10  1  0  0  0  0
  9 15  1  0  0  0  0
  9 16  1  0  0  0  0
 10 17  1  0  0  0  0
 11 18  1  0  0  0  0
 11 19  1  0  0  0  0
M  END
> <DATABASE_ID>
DB04382

> <DATABASE_NAME>
drugbank

> <ORIGINAL_SOURCE>
PUBCHEM

> <ORIGINAL_SOURCE_URL>
https://pubchem.ncbi.nlm.nih.gov/rest/pug/compound/inchikey/PMMURAAUARKVCB-ARQDHWQXSA-N/SDF?record_type=3d

> <SMILES>
[H][C@@]1(O)C[C@@]([H])(O)[C@@]([H])(O)[C@@]([H])(CO)O1

> <INCHI_IDENTIFIER>
InChI=1S/C6H12O5/c7-2-4-6(10)3(8)1-5(9)11-4/h3-10H,1-2H2/t3-,4-,5+,6-/m1/s1

> <INCHI_KEY>
PMMURAAUARKVCB-ARQDHWQXSA-N

> <FORMULA>
C6H12O5

> <MOLECULAR_WEIGHT>
164.1565

> <EXACT_MASS>
164.068473494

> <JCHEM_ACCEPTOR_COUNT>
5

> <JCHEM_AVERAGE_POLARIZABILITY>
15.349243582752587

> <JCHEM_BIOAVAILABILITY>
1

> <JCHEM_DONOR_COUNT>
4

> <JCHEM_FORMAL_CHARGE>
0

> <JCHEM_GHOSE_FILTER>
0

> <JCHEM_IUPAC>
(2S,4R,5R,6R)-6-(hydroxymethyl)oxane-2,4,5-triol

> <ALOGPS_LOGP>
-2.54

> <JCHEM_LOGP>
-2.031901155

> <ALOGPS_LOGS>
0.78

> <JCHEM_MDDR_LIKE_RULE>
0

> <JCHEM_NUMBER_OF_RINGS>
1

> <JCHEM_PHYSIOLOGICAL_CHARGE>
0

> <JCHEM_PKA>
13.16834609748678

> <JCHEM_PKA_STRONGEST_ACIDIC>
12.294304229799053

> <JCHEM_PKA_STRONGEST_BASIC>
-2.9809323333536977

> <JCHEM_POLAR_SURFACE_AREA>
90.15

> <JCHEM_REFRACTIVITY>
34.4127

> <JCHEM_ROTATABLE_BOND_COUNT>
1

> <JCHEM_RULE_OF_FIVE>
1

> <ALOGPS_SOLUBILITY>
9.84e+02 g/l

> <JCHEM_TRADITIONAL_IUPAC>
(2S,4R,5R,6R)-6-(hydroxymethyl)oxane-2,4,5-triol

> <JCHEM_VEBER_RULE>
0

> <DRUGBANK_ID>
DB04382

> <SECONDARY_ACCESSION_NUMBERS>
EXPT00111

> <DRUG_GROUPS>
experimental

> <GENERIC_NAME>
2-Deoxy-Beta-D-Galactose

$$$$
