760
  -OEChem-10051720333D

  7  6  0     0  0  0  0  0  0999 V2000
   -0.3847    1.3162   -0.0003 O   0  0  0  0  0  0  0  0  0  0  0  0
   -1.6058   -0.6319   -0.0022 O   0  0  0  0  0  0  0  0  0  0  0  0
    1.7808    0.0058   -0.0018 O   0  0  0  0  0  0  0  0  0  0  0  0
   -0.5636   -0.0111    0.0028 C   0  0  0  0  0  0  0  0  0  0  0  0
    0.7733   -0.6790    0.0015 C   0  0  0  0  0  0  0  0  0  0  0  0
    0.7519   -1.7797    0.0034 H   0  0  0  0  0  0  0  0  0  0  0  0
   -1.2346    1.8060   -0.0040 H   0  0  0  0  0  0  0  0  0  0  0  0
  1  4  1  0  0  0  0
  1  7  1  0  0  0  0
  2  4  2  0  0  0  0
  3  5  2  0  0  0  0
  4  5  1  0  0  0  0
  5  6  1  0  0  0  0
M  END
> <DATABASE_ID>
DB04343

> <DATABASE_NAME>
drugbank

> <ORIGINAL_SOURCE>
PUBCHEM

> <ORIGINAL_SOURCE_URL>
https://pubchem.ncbi.nlm.nih.gov/rest/pug/compound/inchikey/HHLFWLYXYJOTON-UHFFFAOYSA-N/SDF?record_type=3d

> <SMILES>
OC(=O)C=O

> <INCHI_IDENTIFIER>
InChI=1S/C2H2O3/c3-1-2(4)5/h1H,(H,4,5)

> <INCHI_KEY>
HHLFWLYXYJOTON-UHFFFAOYSA-N

> <FORMULA>
C2H2O3

> <MOLECULAR_WEIGHT>
74.0355

> <EXACT_MASS>
74.00039393

> <JCHEM_ACCEPTOR_COUNT>
3

> <JCHEM_AVERAGE_POLARIZABILITY>
5.350371249099962

> <JCHEM_BIOAVAILABILITY>
1

> <JCHEM_DONOR_COUNT>
1

> <JCHEM_FORMAL_CHARGE>
0

> <JCHEM_GHOSE_FILTER>
0

> <JCHEM_IUPAC>
2-oxoacetic acid

> <ALOGPS_LOGP>
-0.59

> <JCHEM_LOGP>
-0.13367503833333333

> <ALOGPS_LOGS>
0.48

> <JCHEM_MDDR_LIKE_RULE>
0

> <JCHEM_NUMBER_OF_RINGS>
0

> <JCHEM_PHYSIOLOGICAL_CHARGE>
-1

> <JCHEM_PKA_STRONGEST_ACIDIC>
2.605312628420254

> <JCHEM_PKA_STRONGEST_BASIC>
-9.240766856996258

> <JCHEM_POLAR_SURFACE_AREA>
54.37

> <JCHEM_REFRACTIVITY>
13.5

> <JCHEM_ROTATABLE_BOND_COUNT>
1

> <JCHEM_RULE_OF_FIVE>
1

> <ALOGPS_SOLUBILITY>
2.24e+02 g/l

> <JCHEM_TRADITIONAL_IUPAC>
glyoxylic acid

> <JCHEM_VEBER_RULE>
0

> <DRUGBANK_ID>
DB04343

> <SECONDARY_ACCESSION_NUMBERS>
EXPT01614

> <DRUG_GROUPS>
experimental

> <GENERIC_NAME>
Glyoxylic acid

$$$$
