78598
  -OEChem-10051723573D

 19 20  0     0  0  0  0  0  0999 V2000
   -2.8877   -0.1416    0.0000 O   0  0  0  0  0  0  0  0  0  0  0  0
    1.7259    1.5002   -0.0001 N   0  0  0  0  0  0  0  0  0  0  0  0
    2.6116   -0.5383    0.0001 N   0  0  0  0  0  0  0  0  0  0  0  0
    0.6596    0.6379   -0.0001 C   0  0  0  0  0  0  0  0  0  0  0  0
    1.2385   -0.6282    0.0000 C   0  0  0  0  0  0  0  0  0  0  0  0
   -0.7195    0.8501    0.0000 C   0  0  0  0  0  0  0  0  0  0  0  0
   -1.5316   -0.2887    0.0001 C   0  0  0  0  0  0  0  0  0  0  0  0
    0.4075   -1.7612   -0.0001 C   0  0  0  0  0  0  0  0  0  0  0  0
   -0.9801   -1.5720    0.0000 C   0  0  0  0  0  0  0  0  0  0  0  0
    2.8691    0.7505    0.0001 C   0  0  0  0  0  0  0  0  0  0  0  0
   -3.3932    1.1912    0.0001 C   0  0  0  0  0  0  0  0  0  0  0  0
   -1.0828    1.8694   -0.0001 H   0  0  0  0  0  0  0  0  0  0  0  0
    0.8262   -2.7626   -0.0001 H   0  0  0  0  0  0  0  0  0  0  0  0
    1.6757    2.5103   -0.0002 H   0  0  0  0  0  0  0  0  0  0  0  0
   -1.6320   -2.4425   -0.0001 H   0  0  0  0  0  0  0  0  0  0  0  0
    3.8506    1.2025    0.0002 H   0  0  0  0  0  0  0  0  0  0  0  0
   -3.1088    1.7308    0.9099 H   0  0  0  0  0  0  0  0  0  0  0  0
   -4.4861    1.1221    0.0001 H   0  0  0  0  0  0  0  0  0  0  0  0
   -3.1090    1.7309   -0.9098 H   0  0  0  0  0  0  0  0  0  0  0  0
  1  7  1  0  0  0  0
  1 11  1  0  0  0  0
  2  4  1  0  0  0  0
  2 10  1  0  0  0  0
  2 14  1  0  0  0  0
  3  5  1  0  0  0  0
  3 10  2  0  0  0  0
  4  5  2  0  0  0  0
  4  6  1  0  0  0  0
  5  8  1  0  0  0  0
  6  7  2  0  0  0  0
  6 12  1  0  0  0  0
  7  9  1  0  0  0  0
  8  9  2  0  0  0  0
  8 13  1  0  0  0  0
  9 15  1  0  0  0  0
 10 16  1  0  0  0  0
 11 17  1  0  0  0  0
 11 18  1  0  0  0  0
 11 19  1  0  0  0  0
M  END
> <DATABASE_ID>
DB04130

> <DATABASE_NAME>
drugbank

> <ORIGINAL_SOURCE>
PUBCHEM

> <ORIGINAL_SOURCE_URL>
https://pubchem.ncbi.nlm.nih.gov/rest/pug/compound/inchikey/ILMHAGCURJPNRZ-UHFFFAOYSA-N/SDF?record_type=3d

> <SMILES>
COC1=CC2=C(C=C1)N=CN2

> <INCHI_IDENTIFIER>
InChI=1S/C8H8N2O/c1-11-6-2-3-7-8(4-6)10-5-9-7/h2-5H,1H3,(H,9,10)

> <INCHI_KEY>
ILMHAGCURJPNRZ-UHFFFAOYSA-N

> <FORMULA>
C8H8N2O

> <MOLECULAR_WEIGHT>
148.1619

> <EXACT_MASS>
148.063662888

> <JCHEM_ACCEPTOR_COUNT>
2

> <JCHEM_AVERAGE_POLARIZABILITY>
15.236120468874546

> <JCHEM_BIOAVAILABILITY>
1

> <JCHEM_DONOR_COUNT>
1

> <JCHEM_FORMAL_CHARGE>
0

> <JCHEM_GHOSE_FILTER>
0

> <JCHEM_IUPAC>
6-methoxy-1H-1,3-benzodiazole

> <ALOGPS_LOGP>
1.41

> <JCHEM_LOGP>
1.1018327333333333

> <ALOGPS_LOGS>
-1.42

> <JCHEM_MDDR_LIKE_RULE>
0

> <JCHEM_NUMBER_OF_RINGS>
2

> <JCHEM_PHYSIOLOGICAL_CHARGE>
0

> <JCHEM_PKA_STRONGEST_ACIDIC>
12.183808448870447

> <JCHEM_PKA_STRONGEST_BASIC>
6.079717322963635

> <JCHEM_POLAR_SURFACE_AREA>
37.91

> <JCHEM_REFRACTIVITY>
41.43169999999999

> <JCHEM_ROTATABLE_BOND_COUNT>
1

> <JCHEM_RULE_OF_FIVE>
1

> <ALOGPS_SOLUBILITY>
5.60e+00 g/l

> <JCHEM_TRADITIONAL_IUPAC>
5-methoxy-3H-1,3-benzodiazole

> <JCHEM_VEBER_RULE>
1

> <DRUGBANK_ID>
DB04130

> <SECONDARY_ACCESSION_NUMBERS>
EXPT00256

> <DRUG_GROUPS>
experimental

> <GENERIC_NAME>
5-Methoxybenzimidazole

$$$$
