444266
  -OEChem-10051720323D

 12 11  0     0  0  0  0  0  0999 V2000
    1.8166   -0.3326    1.1897 O   0  0  0  0  0  0  0  0  0  0  0  0
   -2.7358   -0.0859    0.0215 O   0  0  0  0  0  0  0  0  0  0  0  0
    1.8573   -0.4747   -1.0807 O   0  0  0  0  0  0  0  0  0  0  0  0
   -0.7986   -1.2906    0.0077 O   0  0  0  0  0  0  0  0  0  0  0  0
    0.5582    1.2264   -0.0555 C   0  0  0  0  0  0  0  0  0  0  0  0
   -0.7761    1.1186   -0.0301 C   0  0  0  0  0  0  0  0  0  0  0  0
    1.4679    0.0629   -0.0541 C   0  0  0  0  0  0  0  0  0  0  0  0
   -1.3895   -0.2241    0.0014 C   0  0  0  0  0  0  0  0  0  0  0  0
    1.0290    2.2034   -0.0772 H   0  0  0  0  0  0  0  0  0  0  0  0
   -1.4105    1.9971   -0.0315 H   0  0  0  0  0  0  0  0  0  0  0  0
    2.4203   -1.1057    1.1745 H   0  0  0  0  0  0  0  0  0  0  0  0
   -3.1938   -0.9532    0.0425 H   0  0  0  0  0  0  0  0  0  0  0  0
  1  7  1  0  0  0  0
  1 11  1  0  0  0  0
  2  8  1  0  0  0  0
  2 12  1  0  0  0  0
  3  7  2  0  0  0  0
  4  8  2  0  0  0  0
  5  6  2  0  0  0  0
  5  7  1  0  0  0  0
  5  9  1  0  0  0  0
  6  8  1  0  0  0  0
  6 10  1  0  0  0  0
M  END
> <DATABASE_ID>
DB04299

> <DATABASE_NAME>
drugbank

> <ORIGINAL_SOURCE>
PUBCHEM

> <ORIGINAL_SOURCE_URL>
https://pubchem.ncbi.nlm.nih.gov/rest/pug/compound/inchikey/VZCYOOQTPOCHFL-UPHRSURJSA-N/SDF?record_type=3d

> <SMILES>
OC(=O)\C=C/C(O)=O

> <INCHI_IDENTIFIER>
InChI=1S/C4H4O4/c5-3(6)1-2-4(7)8/h1-2H,(H,5,6)(H,7,8)/b2-1-

> <INCHI_KEY>
VZCYOOQTPOCHFL-UPHRSURJSA-N

> <FORMULA>
C4H4O4

> <MOLECULAR_WEIGHT>
116.0722

> <EXACT_MASS>
116.010958616

> <JCHEM_ACCEPTOR_COUNT>
4

> <JCHEM_AVERAGE_POLARIZABILITY>
9.19428148254656

> <JCHEM_BIOAVAILABILITY>
1

> <JCHEM_DONOR_COUNT>
2

> <JCHEM_FORMAL_CHARGE>
0

> <JCHEM_GHOSE_FILTER>
0

> <JCHEM_IUPAC>
(2Z)-but-2-enedioic acid

> <ALOGPS_LOGP>
0.21

> <JCHEM_LOGP>
-0.040914331333333324

> <ALOGPS_LOGS>
-0.68

> <JCHEM_MDDR_LIKE_RULE>
0

> <JCHEM_NUMBER_OF_RINGS>
0

> <JCHEM_PHYSIOLOGICAL_CHARGE>
-2

> <JCHEM_PKA>
5.912485134930333

> <JCHEM_PKA_STRONGEST_ACIDIC>
3.0457324172016107

> <JCHEM_POLAR_SURFACE_AREA>
74.6

> <JCHEM_REFRACTIVITY>
24.607

> <JCHEM_ROTATABLE_BOND_COUNT>
2

> <JCHEM_RULE_OF_FIVE>
1

> <ALOGPS_SOLUBILITY>
2.41e+01 g/l

> <JCHEM_TRADITIONAL_IUPAC>
maleic acid

> <JCHEM_VEBER_RULE>
0

> <DRUGBANK_ID>
DB04299

> <SECONDARY_ACCESSION_NUMBERS>
EXPT02106

> <DRUG_GROUPS>
experimental

> <GENERIC_NAME>
Maleic Acid

$$$$
