6918305
  -OEChem-10051720453D

 60 63  0     1  0  0  0  0  0999 V2000
   -4.8841   -0.2553    1.7187 O   0  0  0  0  0  0  0  0  0  0  0  0
    5.7601   -0.2448   -0.7398 O   0  0  0  0  0  0  0  0  0  0  0  0
   -0.4351   -0.3468    0.1817 C   0  0  1  0  0  0  0  0  0  0  0  0
    0.3063    0.9668   -0.2299 C   0  0  2  0  0  0  0  0  0  0  0  0
    1.7068    0.9526    0.3930 C   0  0  1  0  0  0  0  0  0  0  0  0
   -1.9072   -0.3894   -0.3750 C   0  0  2  0  0  0  0  0  0  0  0  0
    2.5576   -0.2525   -0.0647 C   0  0  2  0  0  0  0  0  0  0  0  0
   -2.6363    0.8933    0.1371 C   0  0  1  0  0  0  0  0  0  0  0  0
    0.4076   -1.6111   -0.1321 C   0  0  0  0  0  0  0  0  0  0  0  0
    1.8494   -1.5316    0.4019 C   0  0  0  0  0  0  0  0  0  0  0  0
   -0.4859    2.2110    0.1961 C   0  0  0  0  0  0  0  0  0  0  0  0
    3.8709    0.0732    0.6802 C   0  0  2  0  0  0  0  0  0  0  0  0
    2.6302    2.1448    0.1667 C   0  0  0  0  0  0  0  0  0  0  0  0
   -1.9294    2.1814   -0.3016 C   0  0  0  0  0  0  0  0  0  0  0  0
   -2.6707   -1.6201    0.1890 C   0  0  0  0  0  0  0  0  0  0  0  0
    4.0250    1.6013    0.5244 C   0  0  0  0  0  0  0  0  0  0  0  0
   -4.1305    0.9223   -0.2313 C   0  0  0  0  0  0  0  0  0  0  0  0
   -1.9070   -0.4806   -1.9226 C   0  0  0  0  0  0  0  0  0  0  0  0
   -4.8718   -0.3201    0.2882 C   0  0  1  0  0  0  0  0  0  0  0  0
    2.7887   -0.3126   -1.5977 C   0  0  0  0  0  0  0  0  0  0  0  0
   -4.1699   -1.6168   -0.1388 C   0  0  0  0  0  0  0  0  0  0  0  0
    5.0677   -0.6754    0.1811 C   0  0  0  0  0  0  0  0  0  0  0  0
   -6.3259   -0.3104   -0.1877 C   0  0  0  0  0  0  0  0  0  0  0  0
    5.3833   -1.9790    0.8631 C   0  0  0  0  0  0  0  0  0  0  0  0
   -0.5210   -0.3222    1.2800 H   0  0  0  0  0  0  0  0  0  0  0  0
    0.4062    1.0082   -1.3191 H   0  0  0  0  0  0  0  0  0  0  0  0
    1.5643    0.8816    1.4847 H   0  0  0  0  0  0  0  0  0  0  0  0
   -2.5888    0.8795    1.2370 H   0  0  0  0  0  0  0  0  0  0  0  0
    0.4352   -1.7948   -1.2103 H   0  0  0  0  0  0  0  0  0  0  0  0
   -0.0624   -2.4926    0.3182 H   0  0  0  0  0  0  0  0  0  0  0  0
    1.8201   -1.5689    1.4984 H   0  0  0  0  0  0  0  0  0  0  0  0
    2.3976   -2.4219    0.0747 H   0  0  0  0  0  0  0  0  0  0  0  0
    0.0003    3.1163   -0.1860 H   0  0  0  0  0  0  0  0  0  0  0  0
   -0.4870    2.2928    1.2907 H   0  0  0  0  0  0  0  0  0  0  0  0
    3.7634   -0.1386    1.7531 H   0  0  0  0  0  0  0  0  0  0  0  0
    2.3630    2.9989    0.7972 H   0  0  0  0  0  0  0  0  0  0  0  0
    2.6041    2.4810   -0.8758 H   0  0  0  0  0  0  0  0  0  0  0  0
   -2.4577    3.0525    0.1050 H   0  0  0  0  0  0  0  0  0  0  0  0
   -1.9526    2.2874   -1.3921 H   0  0  0  0  0  0  0  0  0  0  0  0
   -2.5490   -1.6587    1.2795 H   0  0  0  0  0  0  0  0  0  0  0  0
   -2.2428   -2.5507   -0.2022 H   0  0  0  0  0  0  0  0  0  0  0  0
    4.7475    1.9024   -0.2412 H   0  0  0  0  0  0  0  0  0  0  0  0
    4.3708    2.0356    1.4700 H   0  0  0  0  0  0  0  0  0  0  0  0
   -4.5785    1.8202    0.2152 H   0  0  0  0  0  0  0  0  0  0  0  0
   -4.2537    1.0178   -1.3162 H   0  0  0  0  0  0  0  0  0  0  0  0
   -1.3262    0.3163   -2.3932 H   0  0  0  0  0  0  0  0  0  0  0  0
   -1.4877   -1.4332   -2.2633 H   0  0  0  0  0  0  0  0  0  0  0  0
   -2.9139   -0.4194   -2.3445 H   0  0  0  0  0  0  0  0  0  0  0  0
    3.3435    0.5532   -1.9730 H   0  0  0  0  0  0  0  0  0  0  0  0
    3.3598   -1.2081   -1.8690 H   0  0  0  0  0  0  0  0  0  0  0  0
    1.8553   -0.3578   -2.1649 H   0  0  0  0  0  0  0  0  0  0  0  0
   -4.3103   -1.7854   -1.2130 H   0  0  0  0  0  0  0  0  0  0  0  0
   -4.6270   -2.4735    0.3730 H   0  0  0  0  0  0  0  0  0  0  0  0
   -6.8465    0.5853    0.1698 H   0  0  0  0  0  0  0  0  0  0  0  0
   -6.3934   -0.3386   -1.2800 H   0  0  0  0  0  0  0  0  0  0  0  0
   -6.8748   -1.1695    0.2147 H   0  0  0  0  0  0  0  0  0  0  0  0
   -5.3569   -1.0372    2.0512 H   0  0  0  0  0  0  0  0  0  0  0  0
    5.4881   -1.8187    1.9390 H   0  0  0  0  0  0  0  0  0  0  0  0
    4.5981   -2.7096    0.6643 H   0  0  0  0  0  0  0  0  0  0  0  0
    6.3300   -2.3702    0.4792 H   0  0  0  0  0  0  0  0  0  0  0  0
  1 19  1  0  0  0  0
  1 57  1  0  0  0  0
  2 22  2  0  0  0  0
  3  4  1  0  0  0  0
  3  6  1  0  0  0  0
  3  9  1  0  0  0  0
  3 25  1  0  0  0  0
  4  5  1  0  0  0  0
  4 11  1  0  0  0  0
  4 26  1  0  0  0  0
  5  7  1  0  0  0  0
  5 13  1  0  0  0  0
  5 27  1  0  0  0  0
  6  8  1  0  0  0  0
  6 15  1  0  0  0  0
  6 18  1  0  0  0  0
  7 10  1  0  0  0  0
  7 12  1  0  0  0  0
  7 20  1  0  0  0  0
  8 14  1  0  0  0  0
  8 17  1  0  0  0  0
  8 28  1  0  0  0  0
  9 10  1  0  0  0  0
  9 29  1  0  0  0  0
  9 30  1  0  0  0  0
 10 31  1  0  0  0  0
 10 32  1  0  0  0  0
 11 14  1  0  0  0  0
 11 33  1  0  0  0  0
 11 34  1  0  0  0  0
 12 16  1  0  0  0  0
 12 22  1  0  0  0  0
 12 35  1  0  0  0  0
 13 16  1  0  0  0  0
 13 36  1  0  0  0  0
 13 37  1  0  0  0  0
 14 38  1  0  0  0  0
 14 39  1  0  0  0  0
 15 21  1  0  0  0  0
 15 40  1  0  0  0  0
 15 41  1  0  0  0  0
 16 42  1  0  0  0  0
 16 43  1  0  0  0  0
 17 19  1  0  0  0  0
 17 44  1  0  0  0  0
 17 45  1  0  0  0  0
 18 46  1  0  0  0  0
 18 47  1  0  0  0  0
 18 48  1  0  0  0  0
 19 21  1  0  0  0  0
 19 23  1  0  0  0  0
 20 49  1  0  0  0  0
 20 50  1  0  0  0  0
 20 51  1  0  0  0  0
 21 52  1  0  0  0  0
 21 53  1  0  0  0  0
 22 24  1  0  0  0  0
 23 54  1  0  0  0  0
 23 55  1  0  0  0  0
 23 56  1  0  0  0  0
 24 58  1  0  0  0  0
 24 59  1  0  0  0  0
 24 60  1  0  0  0  0
M  END
> <DATABASE_ID>
DB05087

> <DATABASE_NAME>
drugbank

> <ORIGINAL_SOURCE>
PUBCHEM

> <ORIGINAL_SOURCE_URL>
https://pubchem.ncbi.nlm.nih.gov/rest/pug/compound/inchikey/PGTVWKLGGCQMBR-FLBATMFCSA-N/SDF?record_type=3d

> <SMILES>
[H][C@@]12CC[C@H](C(C)=O)[C@@]1(C)CC[C@@]1([H])[C@@]2([H])CC[C@@]2([H])C[C@](C)(O)CC[C@]12C

> <INCHI_IDENTIFIER>
InChI=1S/C22H36O2/c1-14(23)17-7-8-18-16-6-5-15-13-20(2,24)11-12-21(15,3)19(16)9-10-22(17,18)4/h15-19,24H,5-13H2,1-4H3/t15-,16-,17+,18-,19-,20+,21-,22+/m0/s1

> <INCHI_KEY>
PGTVWKLGGCQMBR-FLBATMFCSA-N

> <FORMULA>
C22H36O2

> <MOLECULAR_WEIGHT>
332.528

> <EXACT_MASS>
332.271530399

> <JCHEM_ACCEPTOR_COUNT>
2

> <JCHEM_ATOM_COUNT>
60

> <JCHEM_AVERAGE_POLARIZABILITY>
40.67853980829168

> <JCHEM_BIOAVAILABILITY>
1

> <JCHEM_DONOR_COUNT>
1

> <JCHEM_FORMAL_CHARGE>
0

> <JCHEM_GHOSE_FILTER>
1

> <JCHEM_IUPAC>
1-[(1S,2S,5R,7S,10R,11S,14S,15S)-5-hydroxy-2,5,15-trimethyltetracyclo[8.7.0.0²,⁷.0¹¹,¹⁵]heptadecan-14-yl]ethan-1-one

> <ALOGPS_LOGP>
4.37

> <JCHEM_LOGP>
4.267514602333334

> <ALOGPS_LOGS>
-5.67

> <JCHEM_MDDR_LIKE_RULE>
0

> <JCHEM_NUMBER_OF_RINGS>
4

> <JCHEM_PHYSIOLOGICAL_CHARGE>
0

> <JCHEM_PKA>
19.403041090785273

> <JCHEM_PKA_STRONGEST_ACIDIC>
19.10247583703104

> <JCHEM_PKA_STRONGEST_BASIC>
-1.0043768761297835

> <JCHEM_POLAR_SURFACE_AREA>
37.3

> <JCHEM_REFRACTIVITY>
97.5449

> <JCHEM_ROTATABLE_BOND_COUNT>
1

> <JCHEM_RULE_OF_FIVE>
1

> <ALOGPS_SOLUBILITY>
7.12e-04 g/l

> <JCHEM_TRADITIONAL_IUPAC>
ganaxolone

> <JCHEM_VEBER_RULE>
1

> <DRUGBANK_ID>
DB05087

> <DRUG_GROUPS>
investigational

> <GENERIC_NAME>
Ganaxolone

$$$$
