198757
  -OEChem-10061700063D

 52 55  0     1  0  0  0  0  0999 V2000
   -4.2862    0.2047   -1.5500 S   0  0  0  0  0  0  0  0  0  0  0  0
    4.8024    0.4903    1.0097 O   0  0  0  0  0  0  0  0  0  0  0  0
   -3.0349   -0.2607   -2.1075 O   0  0  0  0  0  0  0  0  0  0  0  0
   -5.3846    0.6953   -2.3538 O   0  0  0  0  0  0  0  0  0  0  0  0
   -4.2316    1.3047    2.1336 O   0  0  0  0  0  0  0  0  0  0  0  0
   -3.9949    1.2606   -0.2275 N   0  0  0  0  0  0  0  0  0  0  0  0
    1.2846    1.0283    0.0644 N   0  0  0  0  0  0  0  0  0  0  0  0
    3.6061    0.2487    0.2534 C   0  0  2  0  0  0  0  0  0  0  0  0
    3.8548    0.4056   -1.2456 C   0  0  0  0  0  0  0  0  0  0  0  0
    2.5581    1.2443    0.7362 C   0  0  0  0  0  0  0  0  0  0  0  0
   -2.0976    2.7693    0.2447 C   0  0  0  0  0  0  0  0  0  0  0  0
   -3.4276    2.6026   -0.4827 C   0  0  0  0  0  0  0  0  0  0  0  0
    4.8658   -0.6411   -1.6959 C   0  0  0  0  0  0  0  0  0  0  0  0
   -1.0368    1.7632   -0.2140 C   0  0  0  0  0  0  0  0  0  0  0  0
    0.2860    1.9870    0.5184 C   0  0  0  0  0  0  0  0  0  0  0  0
    6.0217   -0.7008   -0.7391 C   0  0  0  0  0  0  0  0  0  0  0  0
   -4.8987   -1.0251   -0.4788 C   0  0  0  0  0  0  0  0  0  0  0  0
    5.9228   -0.1496    0.5452 C   0  0  0  0  0  0  0  0  0  0  0  0
   -4.8747   -0.6191    0.8552 C   0  0  0  0  0  0  0  0  0  0  0  0
   -4.3431    0.7429    1.0592 C   0  0  0  0  0  0  0  0  0  0  0  0
    7.2102   -1.3387   -1.1181 C   0  0  0  0  0  0  0  0  0  0  0  0
   -5.3602   -2.2637   -0.8741 C   0  0  0  0  0  0  0  0  0  0  0  0
    7.0110   -0.2007    1.4199 C   0  0  0  0  0  0  0  0  0  0  0  0
   -5.3244   -1.4670    1.8524 C   0  0  0  0  0  0  0  0  0  0  0  0
    8.2911   -1.4008   -0.2379 C   0  0  0  0  0  0  0  0  0  0  0  0
   -5.8149   -3.1232    0.1267 C   0  0  0  0  0  0  0  0  0  0  0  0
    8.1929   -0.8280    1.0284 C   0  0  0  0  0  0  0  0  0  0  0  0
   -5.7974   -2.7291    1.4776 C   0  0  0  0  0  0  0  0  0  0  0  0
    3.2641   -0.7710    0.4803 H   0  0  0  0  0  0  0  0  0  0  0  0
    2.9393    0.2931   -1.8359 H   0  0  0  0  0  0  0  0  0  0  0  0
    4.2617    1.4051   -1.4496 H   0  0  0  0  0  0  0  0  0  0  0  0
    2.9202    2.2659    0.5611 H   0  0  0  0  0  0  0  0  0  0  0  0
    2.4426    1.1412    1.8230 H   0  0  0  0  0  0  0  0  0  0  0  0
   -1.7304    3.7864    0.0594 H   0  0  0  0  0  0  0  0  0  0  0  0
   -2.2373    2.6853    1.3281 H   0  0  0  0  0  0  0  0  0  0  0  0
   -3.2895    2.7589   -1.5583 H   0  0  0  0  0  0  0  0  0  0  0  0
   -4.1441    3.3557   -0.1369 H   0  0  0  0  0  0  0  0  0  0  0  0
    4.3892   -1.6283   -1.7314 H   0  0  0  0  0  0  0  0  0  0  0  0
    5.2155   -0.3968   -2.7056 H   0  0  0  0  0  0  0  0  0  0  0  0
   -0.8853    1.8590   -1.2965 H   0  0  0  0  0  0  0  0  0  0  0  0
   -1.3812    0.7403   -0.0215 H   0  0  0  0  0  0  0  0  0  0  0  0
    0.6331    3.0092    0.3249 H   0  0  0  0  0  0  0  0  0  0  0  0
    0.1259    1.8849    1.5987 H   0  0  0  0  0  0  0  0  0  0  0  0
    0.9576    0.0785    0.2387 H   0  0  0  0  0  0  0  0  0  0  0  0
    7.3016   -1.7866   -2.1046 H   0  0  0  0  0  0  0  0  0  0  0  0
   -5.3729   -2.5653   -1.9149 H   0  0  0  0  0  0  0  0  0  0  0  0
    6.9423    0.2405    2.4108 H   0  0  0  0  0  0  0  0  0  0  0  0
   -5.3155   -1.1737    2.8965 H   0  0  0  0  0  0  0  0  0  0  0  0
    9.2104   -1.8931   -0.5415 H   0  0  0  0  0  0  0  0  0  0  0  0
   -6.1876   -4.1094   -0.1378 H   0  0  0  0  0  0  0  0  0  0  0  0
    9.0360   -0.8724    1.7115 H   0  0  0  0  0  0  0  0  0  0  0  0
   -6.1568   -3.4162    2.2393 H   0  0  0  0  0  0  0  0  0  0  0  0
  1  3  2  0  0  0  0
  1  4  2  0  0  0  0
  1  6  1  0  0  0  0
  1 17  1  0  0  0  0
  2  8  1  0  0  0  0
  2 18  1  0  0  0  0
  5 20  2  0  0  0  0
  6 12  1  0  0  0  0
  6 20  1  0  0  0  0
  7 10  1  0  0  0  0
  7 15  1  0  0  0  0
  7 44  1  0  0  0  0
  8  9  1  0  0  0  0
  8 10  1  0  0  0  0
  8 29  1  0  0  0  0
  9 13  1  0  0  0  0
  9 30  1  0  0  0  0
  9 31  1  0  0  0  0
 10 32  1  0  0  0  0
 10 33  1  0  0  0  0
 11 12  1  0  0  0  0
 11 14  1  0  0  0  0
 11 34  1  0  0  0  0
 11 35  1  0  0  0  0
 12 36  1  0  0  0  0
 12 37  1  0  0  0  0
 13 16  1  0  0  0  0
 13 38  1  0  0  0  0
 13 39  1  0  0  0  0
 14 15  1  0  0  0  0
 14 40  1  0  0  0  0
 14 41  1  0  0  0  0
 15 42  1  0  0  0  0
 15 43  1  0  0  0  0
 16 18  1  0  0  0  0
 16 21  2  0  0  0  0
 17 19  1  0  0  0  0
 17 22  2  0  0  0  0
 18 23  2  0  0  0  0
 19 20  1  0  0  0  0
 19 24  2  0  0  0  0
 21 25  1  0  0  0  0
 21 45  1  0  0  0  0
 22 26  1  0  0  0  0
 22 46  1  0  0  0  0
 23 27  1  0  0  0  0
 23 47  1  0  0  0  0
 24 28  1  0  0  0  0
 24 48  1  0  0  0  0
 25 27  2  0  0  0  0
 25 49  1  0  0  0  0
 26 28  2  0  0  0  0
 26 50  1  0  0  0  0
 27 51  1  0  0  0  0
 28 52  1  0  0  0  0
M  END
> <DATABASE_ID>
DB06506

> <DATABASE_NAME>
drugbank

> <ORIGINAL_SOURCE>
PUBCHEM

> <ORIGINAL_SOURCE_URL>
https://pubchem.ncbi.nlm.nih.gov/rest/pug/compound/inchikey/YGYBFMRFXNDIPO-QGZVFWFLSA-N/SDF?record_type=3d

> <SMILES>
O=C1N(CCCCNC[C@H]2CCC3=CC=CC=C3O2)S(=O)(=O)C2=CC=CC=C12

> <INCHI_IDENTIFIER>
InChI=1S/C21H24N2O4S/c24-21-18-8-2-4-10-20(18)28(25,26)23(21)14-6-5-13-22-15-17-12-11-16-7-1-3-9-19(16)27-17/h1-4,7-10,17,22H,5-6,11-15H2/t17-/m1/s1

> <INCHI_KEY>
YGYBFMRFXNDIPO-QGZVFWFLSA-N

> <FORMULA>
C21H24N2O4S

> <MOLECULAR_WEIGHT>
400.49

> <EXACT_MASS>
400.145678435

> <JCHEM_ACCEPTOR_COUNT>
5

> <JCHEM_ATOM_COUNT>
52

> <JCHEM_AVERAGE_POLARIZABILITY>
42.68755739061178

> <JCHEM_BIOAVAILABILITY>
1

> <JCHEM_DONOR_COUNT>
1

> <JCHEM_FORMAL_CHARGE>
0

> <JCHEM_GHOSE_FILTER>
1

> <JCHEM_IUPAC>
2-[4-({[(2R)-3,4-dihydro-2H-1-benzopyran-2-yl]methyl}amino)butyl]-2,3-dihydro-1lambda6,2-benzothiazole-1,1,3-trione

> <ALOGPS_LOGP>
2.11

> <JCHEM_LOGP>
3.073682422666667

> <ALOGPS_LOGS>
-4.83

> <JCHEM_MDDR_LIKE_RULE>
1

> <JCHEM_NUMBER_OF_RINGS>
4

> <JCHEM_PHYSIOLOGICAL_CHARGE>
1

> <JCHEM_PKA_STRONGEST_BASIC>
9.632280505470018

> <JCHEM_POLAR_SURFACE_AREA>
75.71000000000001

> <JCHEM_REFRACTIVITY>
107.65839999999999

> <JCHEM_ROTATABLE_BOND_COUNT>
7

> <JCHEM_RULE_OF_FIVE>
1

> <ALOGPS_SOLUBILITY>
5.90e-03 g/l

> <JCHEM_TRADITIONAL_IUPAC>
2-(4-{[(2R)-3,4-dihydro-2H-1-benzopyran-2-ylmethyl]amino}butyl)-1lambda6,2-benzothiazole-1,1,3-trione

> <JCHEM_VEBER_RULE>
0

> <DRUGBANK_ID>
DB06506

> <DRUG_GROUPS>
investigational

> <GENERIC_NAME>
Repinotan

> <SYNONYMS>
Repinotan

> <SALTS>
Repinotan hydrochloride

$$$$
