15593907
  -OEChem-10061700073D

 68 69  0     1  0  0  0  0  0999 V2000
   -4.3852    2.9386    1.4889 O   0  0  0  0  0  0  0  0  0  0  0  0
   -5.2913    3.4991   -1.0786 O   0  0  0  0  0  0  0  0  0  0  0  0
    7.3061    1.7568    1.3475 O   0  0  0  0  0  0  0  0  0  0  0  0
    8.8335   -0.3057    0.2797 O   0  0  0  0  0  0  0  0  0  0  0  0
    1.0878   -0.3847   -0.6774 N   0  0  0  0  0  0  0  0  0  0  0  0
   -3.9540   -3.5207   -1.6993 N   0  0  0  0  0  0  0  0  0  0  0  0
   -3.7185   -1.8006    0.3062 C   0  0  2  0  0  0  0  0  0  0  0  0
   -4.6201   -2.3122    1.5087 C   0  0  0  0  0  0  0  0  0  0  0  0
   -2.2054   -1.8078    0.7295 C   0  0  0  0  0  0  0  0  0  0  0  0
   -1.2589   -1.0261   -0.2054 C   0  0  0  0  0  0  0  0  0  0  0  0
   -4.1448   -0.3609   -0.0662 C   0  0  0  0  0  0  0  0  0  0  0  0
   -4.2042   -3.6821    2.0727 C   0  0  0  0  0  0  0  0  0  0  0  0
   -6.1206   -2.3639    1.1634 C   0  0  0  0  0  0  0  0  0  0  0  0
    0.2116   -1.1428    0.2072 C   0  0  0  0  0  0  0  0  0  0  0  0
   -3.8557   -2.7613   -0.8265 C   0  0  0  0  0  0  0  0  0  0  0  0
   -4.0745    0.6559    0.8861 C   0  0  0  0  0  0  0  0  0  0  0  0
   -4.5995   -0.0795   -1.3545 C   0  0  0  0  0  0  0  0  0  0  0  0
   -4.4587    1.9541    0.5502 C   0  0  0  0  0  0  0  0  0  0  0  0
   -4.9839    1.2186   -1.6904 C   0  0  0  0  0  0  0  0  0  0  0  0
    2.4795   -0.5197   -0.2707 C   0  0  0  0  0  0  0  0  0  0  0  0
   -4.9134    2.2354   -0.7380 C   0  0  0  0  0  0  0  0  0  0  0  0
    3.4013    0.2677   -1.2027 C   0  0  0  0  0  0  0  0  0  0  0  0
    4.8484    0.1180   -0.8058 C   0  0  0  0  0  0  0  0  0  0  0  0
    5.4205    1.0143    0.0972 C   0  0  0  0  0  0  0  0  0  0  0  0
    5.6150   -0.9169   -1.3415 C   0  0  0  0  0  0  0  0  0  0  0  0
   -3.9097    2.5676    2.7813 C   0  0  0  0  0  0  0  0  0  0  0  0
   -5.7441    3.7022   -2.4157 C   0  0  0  0  0  0  0  0  0  0  0  0
    6.7589    0.8754    0.4646 C   0  0  0  0  0  0  0  0  0  0  0  0
    6.9535   -1.0555   -0.9744 C   0  0  0  0  0  0  0  0  0  0  0  0
    7.5255   -0.1595   -0.0712 C   0  0  0  0  0  0  0  0  0  0  0  0
    6.4546    2.7855    1.8483 C   0  0  0  0  0  0  0  0  0  0  0  0
    9.5464   -1.3893   -0.3133 C   0  0  0  0  0  0  0  0  0  0  0  0
   -4.5198   -1.6102    2.3469 H   0  0  0  0  0  0  0  0  0  0  0  0
   -2.1046   -1.3808    1.7364 H   0  0  0  0  0  0  0  0  0  0  0  0
   -1.8410   -2.8416    0.7983 H   0  0  0  0  0  0  0  0  0  0  0  0
   -1.5260    0.0364   -0.2154 H   0  0  0  0  0  0  0  0  0  0  0  0
   -1.3715   -1.3955   -1.2322 H   0  0  0  0  0  0  0  0  0  0  0  0
   -3.1842   -3.6607    2.4670 H   0  0  0  0  0  0  0  0  0  0  0  0
   -4.2663   -4.4707    1.3164 H   0  0  0  0  0  0  0  0  0  0  0  0
   -4.8586   -3.9698    2.9034 H   0  0  0  0  0  0  0  0  0  0  0  0
   -6.3306   -3.0888    0.3704 H   0  0  0  0  0  0  0  0  0  0  0  0
   -6.4987   -1.3881    0.8452 H   0  0  0  0  0  0  0  0  0  0  0  0
   -6.7043   -2.6605    2.0422 H   0  0  0  0  0  0  0  0  0  0  0  0
    0.4959   -2.2021    0.1926 H   0  0  0  0  0  0  0  0  0  0  0  0
    0.3195   -0.7847    1.2386 H   0  0  0  0  0  0  0  0  0  0  0  0
   -3.7031    0.3943    1.8694 H   0  0  0  0  0  0  0  0  0  0  0  0
   -4.6735   -0.8324   -2.1316 H   0  0  0  0  0  0  0  0  0  0  0  0
    0.8185    0.5986   -0.6703 H   0  0  0  0  0  0  0  0  0  0  0  0
   -5.3267    1.3642   -2.7090 H   0  0  0  0  0  0  0  0  0  0  0  0
    2.7697   -1.5780   -0.2857 H   0  0  0  0  0  0  0  0  0  0  0  0
    2.6083   -0.1612    0.7588 H   0  0  0  0  0  0  0  0  0  0  0  0
    3.2725   -0.0706   -2.2395 H   0  0  0  0  0  0  0  0  0  0  0  0
    3.1294    1.3315   -1.2007 H   0  0  0  0  0  0  0  0  0  0  0  0
    4.7748    1.7966    0.4820 H   0  0  0  0  0  0  0  0  0  0  0  0
    5.1789   -1.6219   -2.0444 H   0  0  0  0  0  0  0  0  0  0  0  0
   -3.9203    3.4715    3.3994 H   0  0  0  0  0  0  0  0  0  0  0  0
   -2.8713    2.2208    2.7456 H   0  0  0  0  0  0  0  0  0  0  0  0
   -4.5759    1.8454    3.2655 H   0  0  0  0  0  0  0  0  0  0  0  0
   -6.6562    3.1326   -2.6239 H   0  0  0  0  0  0  0  0  0  0  0  0
   -4.9517    3.5021   -3.1450 H   0  0  0  0  0  0  0  0  0  0  0  0
   -6.0029    4.7620   -2.5108 H   0  0  0  0  0  0  0  0  0  0  0  0
    7.4872   -1.8825   -1.4299 H   0  0  0  0  0  0  0  0  0  0  0  0
    7.0533    3.3930    2.5351 H   0  0  0  0  0  0  0  0  0  0  0  0
    5.6237    2.3738    2.4314 H   0  0  0  0  0  0  0  0  0  0  0  0
    6.1142    3.4529    1.0492 H   0  0  0  0  0  0  0  0  0  0  0  0
   10.5689   -1.3545    0.0773 H   0  0  0  0  0  0  0  0  0  0  0  0
    9.6179   -1.2786   -1.4007 H   0  0  0  0  0  0  0  0  0  0  0  0
    9.1269   -2.3575   -0.0192 H   0  0  0  0  0  0  0  0  0  0  0  0
  1 18  1  0  0  0  0
  1 26  1  0  0  0  0
  2 21  1  0  0  0  0
  2 27  1  0  0  0  0
  3 28  1  0  0  0  0
  3 31  1  0  0  0  0
  4 30  1  0  0  0  0
  4 32  1  0  0  0  0
  5 14  1  0  0  0  0
  5 20  1  0  0  0  0
  5 48  1  0  0  0  0
  6 15  3  0  0  0  0
  7  8  1  0  0  0  0
  7  9  1  0  0  0  0
  7 11  1  0  0  0  0
  7 15  1  0  0  0  0
  8 12  1  0  0  0  0
  8 13  1  0  0  0  0
  8 33  1  0  0  0  0
  9 10  1  0  0  0  0
  9 34  1  0  0  0  0
  9 35  1  0  0  0  0
 10 14  1  0  0  0  0
 10 36  1  0  0  0  0
 10 37  1  0  0  0  0
 11 16  2  0  0  0  0
 11 17  1  0  0  0  0
 12 38  1  0  0  0  0
 12 39  1  0  0  0  0
 12 40  1  0  0  0  0
 13 41  1  0  0  0  0
 13 42  1  0  0  0  0
 13 43  1  0  0  0  0
 14 44  1  0  0  0  0
 14 45  1  0  0  0  0
 16 18  1  0  0  0  0
 16 46  1  0  0  0  0
 17 19  2  0  0  0  0
 17 47  1  0  0  0  0
 18 21  2  0  0  0  0
 19 21  1  0  0  0  0
 19 49  1  0  0  0  0
 20 22  1  0  0  0  0
 20 50  1  0  0  0  0
 20 51  1  0  0  0  0
 22 23  1  0  0  0  0
 22 52  1  0  0  0  0
 22 53  1  0  0  0  0
 23 24  2  0  0  0  0
 23 25  1  0  0  0  0
 24 28  1  0  0  0  0
 24 54  1  0  0  0  0
 25 29  2  0  0  0  0
 25 55  1  0  0  0  0
 26 56  1  0  0  0  0
 26 57  1  0  0  0  0
 26 58  1  0  0  0  0
 27 59  1  0  0  0  0
 27 60  1  0  0  0  0
 27 61  1  0  0  0  0
 28 30  2  0  0  0  0
 29 30  1  0  0  0  0
 29 62  1  0  0  0  0
 31 63  1  0  0  0  0
 31 64  1  0  0  0  0
 31 65  1  0  0  0  0
 32 66  1  0  0  0  0
 32 67  1  0  0  0  0
 32 68  1  0  0  0  0
M  END
> <DATABASE_ID>
DB06669

> <DATABASE_NAME>
drugbank

> <ORIGINAL_SOURCE>
PUBCHEM

> <ORIGINAL_SOURCE_URL>
https://pubchem.ncbi.nlm.nih.gov/rest/pug/compound/inchikey/UPKQNCPKPOLASS-AREMUKBSSA-N/SDF?record_type=3d

> <SMILES>
COC1=CC=C(CCNCCC[C@@](C#N)(C(C)C)C2=CC=C(OC)C(OC)=C2)C=C1OC

> <INCHI_IDENTIFIER>
InChI=1S/C26H36N2O4/c1-19(2)26(18-27,21-9-11-23(30-4)25(17-21)32-6)13-7-14-28-15-12-20-8-10-22(29-3)24(16-20)31-5/h8-11,16-17,19,28H,7,12-15H2,1-6H3/t26-/m1/s1

> <INCHI_KEY>
UPKQNCPKPOLASS-AREMUKBSSA-N

> <FORMULA>
C26H36N2O4

> <MOLECULAR_WEIGHT>
440.584

> <EXACT_MASS>
440.267507647

> <JCHEM_ACCEPTOR_COUNT>
6

> <JCHEM_ATOM_COUNT>
68

> <JCHEM_AVERAGE_POLARIZABILITY>
50.95948529606995

> <JCHEM_BIOAVAILABILITY>
1

> <JCHEM_DONOR_COUNT>
1

> <JCHEM_FORMAL_CHARGE>
0

> <JCHEM_GHOSE_FILTER>
1

> <JCHEM_IUPAC>
(2R)-2-(3,4-dimethoxyphenyl)-5-{[2-(3,4-dimethoxyphenyl)ethyl]amino}-2-(propan-2-yl)pentanenitrile

> <ALOGPS_LOGP>
4.41

> <JCHEM_LOGP>
4.660137883666668

> <ALOGPS_LOGS>
-5.18

> <JCHEM_MDDR_LIKE_RULE>
0

> <JCHEM_NUMBER_OF_RINGS>
2

> <JCHEM_PHYSIOLOGICAL_CHARGE>
1

> <JCHEM_PKA_STRONGEST_BASIC>
10.291138570478047

> <JCHEM_POLAR_SURFACE_AREA>
72.74000000000001

> <JCHEM_REFRACTIVITY>
127.35319999999999

> <JCHEM_ROTATABLE_BOND_COUNT>
13

> <JCHEM_RULE_OF_FIVE>
1

> <ALOGPS_SOLUBILITY>
2.93e-03 g/l

> <JCHEM_TRADITIONAL_IUPAC>
(2R)-2-(3,4-dimethoxyphenyl)-5-{[2-(3,4-dimethoxyphenyl)ethyl]amino}-2-isopropylpentanenitrile

> <JCHEM_VEBER_RULE>
0

> <DRUGBANK_ID>
DB06669

> <DRUG_GROUPS>
investigational

> <GENERIC_NAME>
Arverapamil

> <SYNONYMS>
(R)-norverapamil

> <INTERNATIONAL_BRANDS>
Rezular

$$$$
