5311236
  -OEChem-10051722163D

 65 65  0     1  0  0  0  0  0999 V2000
    1.0131   -3.7742   -1.1441 O   0  0  0  0  0  0  0  0  0  0  0  0
    4.2775   -3.3617    0.5843 O   0  0  0  0  0  0  0  0  0  0  0  0
   -1.6839    0.6874    0.2515 O   0  0  0  0  0  0  0  0  0  0  0  0
    1.4162    4.5103   -0.7248 O   0  0  0  0  0  0  0  0  0  0  0  0
    1.9859    2.3897   -1.2964 O   0  0  0  0  0  0  0  0  0  0  0  0
    1.7924   -1.8462    0.0906 C   0  0  2  0  0  0  0  0  0  0  0  0
    3.1893   -1.2113    0.1435 C   0  0  2  0  0  0  0  0  0  0  0  0
    1.7995   -2.5970   -1.2484 C   0  0  1  0  0  0  0  0  0  0  0  0
    4.0768   -2.3429   -0.3894 C   0  0  2  0  0  0  0  0  0  0  0  0
    3.2683   -2.9365   -1.5447 C   0  0  0  0  0  0  0  0  0  0  0  0
    0.6549   -0.8363    0.1807 C   0  0  0  0  0  0  0  0  0  0  0  0
    3.5732   -0.7091    1.5285 C   0  0  0  0  0  0  0  0  0  0  0  0
   -0.7073   -1.5174    0.0804 C   0  0  0  0  0  0  0  0  0  0  0  0
    4.9448   -0.1106    1.6777 C   0  0  0  0  0  0  0  0  0  0  0  0
   -1.8577   -0.5255    0.1356 C   0  0  0  0  0  0  0  0  0  0  0  0
   -3.2571   -1.1038    0.0720 C   0  0  0  0  0  0  0  0  0  0  0  0
    5.2990    1.1666    1.4686 C   0  0  0  0  0  0  0  0  0  0  0  0
   -4.3040   -0.0008    0.1740 C   0  0  0  0  0  0  0  0  0  0  0  0
    4.3384    2.2356    1.0360 C   0  0  0  0  0  0  0  0  0  0  0  0
   -5.7207   -0.5753    0.1522 C   0  0  0  0  0  0  0  0  0  0  0  0
    4.7015    2.8838   -0.3072 C   0  0  0  0  0  0  0  0  0  0  0  0
   -6.7720    0.5339    0.2210 C   0  0  0  0  0  0  0  0  0  0  0  0
   -8.1892   -0.0389    0.1657 C   0  0  0  0  0  0  0  0  0  0  0  0
    3.7365    3.9900   -0.7447 C   0  0  0  0  0  0  0  0  0  0  0  0
   -9.2392    1.0713    0.2011 C   0  0  0  0  0  0  0  0  0  0  0  0
  -10.6499    0.5045    0.1802 C   0  0  0  0  0  0  0  0  0  0  0  0
    2.3138    3.5143   -0.9441 C   0  0  0  0  0  0  0  0  0  0  0  0
    1.6779   -2.5657    0.9142 H   0  0  0  0  0  0  0  0  0  0  0  0
    3.2294   -0.3736   -0.5675 H   0  0  0  0  0  0  0  0  0  0  0  0
    1.3912   -1.9850   -2.0614 H   0  0  0  0  0  0  0  0  0  0  0  0
    5.0574   -1.9823   -0.7161 H   0  0  0  0  0  0  0  0  0  0  0  0
    3.4330   -4.0119   -1.6685 H   0  0  0  0  0  0  0  0  0  0  0  0
    3.5580   -2.4357   -2.4763 H   0  0  0  0  0  0  0  0  0  0  0  0
    0.7104   -0.2891    1.1289 H   0  0  0  0  0  0  0  0  0  0  0  0
    0.7516   -0.0861   -0.6141 H   0  0  0  0  0  0  0  0  0  0  0  0
    2.8271    0.0108    1.8827 H   0  0  0  0  0  0  0  0  0  0  0  0
    3.5018   -1.5318    2.2532 H   0  0  0  0  0  0  0  0  0  0  0  0
   -0.8125   -2.0485   -0.8702 H   0  0  0  0  0  0  0  0  0  0  0  0
   -0.8338   -2.2307    0.9020 H   0  0  0  0  0  0  0  0  0  0  0  0
    1.0724   -4.2406   -1.9953 H   0  0  0  0  0  0  0  0  0  0  0  0
    4.8308   -4.0502    0.1773 H   0  0  0  0  0  0  0  0  0  0  0  0
    5.7295   -0.8035    1.9757 H   0  0  0  0  0  0  0  0  0  0  0  0
   -3.3713   -1.8123    0.8994 H   0  0  0  0  0  0  0  0  0  0  0  0
   -3.3633   -1.6436   -0.8749 H   0  0  0  0  0  0  0  0  0  0  0  0
    6.3364    1.4546    1.6164 H   0  0  0  0  0  0  0  0  0  0  0  0
   -4.1587    0.5703    1.0998 H   0  0  0  0  0  0  0  0  0  0  0  0
   -4.1812    0.7053   -0.6569 H   0  0  0  0  0  0  0  0  0  0  0  0
    4.3396    3.0128    1.8109 H   0  0  0  0  0  0  0  0  0  0  0  0
    3.3115    1.8657    0.9891 H   0  0  0  0  0  0  0  0  0  0  0  0
   -5.8536   -1.2616    0.9973 H   0  0  0  0  0  0  0  0  0  0  0  0
   -5.8642   -1.1597   -0.7648 H   0  0  0  0  0  0  0  0  0  0  0  0
    4.7321    2.1068   -1.0820 H   0  0  0  0  0  0  0  0  0  0  0  0
    5.7121    3.3068   -0.2461 H   0  0  0  0  0  0  0  0  0  0  0  0
   -6.6259    1.2297   -0.6142 H   0  0  0  0  0  0  0  0  0  0  0  0
   -6.6420    1.1078    1.1465 H   0  0  0  0  0  0  0  0  0  0  0  0
   -8.3423   -0.7187    1.0127 H   0  0  0  0  0  0  0  0  0  0  0  0
   -8.3128   -0.6303   -0.7496 H   0  0  0  0  0  0  0  0  0  0  0  0
    4.0757    4.4290   -1.6891 H   0  0  0  0  0  0  0  0  0  0  0  0
    3.7382    4.7788    0.0168 H   0  0  0  0  0  0  0  0  0  0  0  0
   -9.1056    1.7380   -0.6587 H   0  0  0  0  0  0  0  0  0  0  0  0
   -9.1100    1.6776    1.1052 H   0  0  0  0  0  0  0  0  0  0  0  0
  -10.8231   -0.0832   -0.7270 H   0  0  0  0  0  0  0  0  0  0  0  0
  -11.3845    1.3155    0.2050 H   0  0  0  0  0  0  0  0  0  0  0  0
  -10.8265   -0.1405    1.0468 H   0  0  0  0  0  0  0  0  0  0  0  0
    0.4940    4.2094   -0.8711 H   0  0  0  0  0  0  0  0  0  0  0  0
  1  8  1  0  0  0  0
  1 40  1  0  0  0  0
  2  9  1  0  0  0  0
  2 41  1  0  0  0  0
  3 15  2  0  0  0  0
  4 27  1  0  0  0  0
  4 65  1  0  0  0  0
  5 27  2  0  0  0  0
  6  7  1  0  0  0  0
  6  8  1  0  0  0  0
  6 11  1  0  0  0  0
  6 28  1  0  0  0  0
  7  9  1  0  0  0  0
  7 12  1  0  0  0  0
  7 29  1  0  0  0  0
  8 10  1  0  0  0  0
  8 30  1  0  0  0  0
  9 10  1  0  0  0  0
  9 31  1  0  0  0  0
 10 32  1  0  0  0  0
 10 33  1  0  0  0  0
 11 13  1  0  0  0  0
 11 34  1  0  0  0  0
 11 35  1  0  0  0  0
 12 14  1  0  0  0  0
 12 36  1  0  0  0  0
 12 37  1  0  0  0  0
 13 15  1  0  0  0  0
 13 38  1  0  0  0  0
 13 39  1  0  0  0  0
 14 17  2  0  0  0  0
 14 42  1  0  0  0  0
 15 16  1  0  0  0  0
 16 18  1  0  0  0  0
 16 43  1  0  0  0  0
 16 44  1  0  0  0  0
 17 19  1  0  0  0  0
 17 45  1  0  0  0  0
 18 20  1  0  0  0  0
 18 46  1  0  0  0  0
 18 47  1  0  0  0  0
 19 21  1  0  0  0  0
 19 48  1  0  0  0  0
 19 49  1  0  0  0  0
 20 22  1  0  0  0  0
 20 50  1  0  0  0  0
 20 51  1  0  0  0  0
 21 24  1  0  0  0  0
 21 52  1  0  0  0  0
 21 53  1  0  0  0  0
 22 23  1  0  0  0  0
 22 54  1  0  0  0  0
 22 55  1  0  0  0  0
 23 25  1  0  0  0  0
 23 56  1  0  0  0  0
 23 57  1  0  0  0  0
 24 27  1  0  0  0  0
 24 58  1  0  0  0  0
 24 59  1  0  0  0  0
 25 26  1  0  0  0  0
 25 60  1  0  0  0  0
 25 61  1  0  0  0  0
 26 62  1  0  0  0  0
 26 63  1  0  0  0  0
 26 64  1  0  0  0  0
M  END
> <DATABASE_ID>
DB06826

> <DATABASE_NAME>
drugbank

> <ORIGINAL_SOURCE>
PUBCHEM

> <ORIGINAL_SOURCE_URL>
https://pubchem.ncbi.nlm.nih.gov/rest/pug/compound/inchikey/TVHAZVBUYQMHBC-SNHXEXRGSA-N/SDF?record_type=3d

> <SMILES>
CCCCCCCC(=O)CC[C@H]1[C@H](O)C[C@H](O)[C@@H]1C\C=C/CCCC(O)=O

> <INCHI_IDENTIFIER>
InChI=1S/C22H38O5/c1-2-3-4-5-8-11-17(23)14-15-19-18(20(24)16-21(19)25)12-9-6-7-10-13-22(26)27/h6,9,18-21,24-25H,2-5,7-8,10-16H2,1H3,(H,26,27)/b9-6-/t18-,19-,20+,21-/m1/s1

> <INCHI_KEY>
TVHAZVBUYQMHBC-SNHXEXRGSA-N

> <FORMULA>
C22H38O5

> <MOLECULAR_WEIGHT>
382.541

> <EXACT_MASS>
382.271924324

> <JCHEM_ACCEPTOR_COUNT>
5

> <JCHEM_ATOM_COUNT>
65

> <JCHEM_AVERAGE_POLARIZABILITY>
45.46864981554886

> <JCHEM_BIOAVAILABILITY>
1

> <JCHEM_DONOR_COUNT>
3

> <JCHEM_FORMAL_CHARGE>
0

> <JCHEM_GHOSE_FILTER>
1

> <JCHEM_IUPAC>
(5Z)-7-[(1R,2R,3R,5S)-3,5-dihydroxy-2-(3-oxodecyl)cyclopentyl]hept-5-enoic acid

> <ALOGPS_LOGP>
3.99

> <JCHEM_LOGP>
3.9137067456666657

> <ALOGPS_LOGS>
-4.10

> <JCHEM_MDDR_LIKE_RULE>
0

> <JCHEM_NUMBER_OF_RINGS>
1

> <JCHEM_PHYSIOLOGICAL_CHARGE>
-1

> <JCHEM_PKA>
14.54668364781423

> <JCHEM_PKA_STRONGEST_ACIDIC>
4.30630545882051

> <JCHEM_PKA_STRONGEST_BASIC>
-2.86345736064329

> <JCHEM_POLAR_SURFACE_AREA>
94.83

> <JCHEM_REFRACTIVITY>
107.682

> <JCHEM_ROTATABLE_BOND_COUNT>
15

> <JCHEM_RULE_OF_FIVE>
1

> <ALOGPS_SOLUBILITY>
3.06e-02 g/l

> <JCHEM_TRADITIONAL_IUPAC>
unoprostone

> <JCHEM_VEBER_RULE>
0

> <DRUGBANK_ID>
DB06826

> <DRUG_GROUPS>
approved; investigational

> <GENERIC_NAME>
Unoprostone

> <SYNONYMS>
13,14-dihydro-15-keto-20-ethyl PGF2Î±; Unoprostone

> <PRODUCTS>
Rescula

> <SALTS>
Unoprostone isopropyl

$$$$
