4567
  -OEChem-10061700163D

 47 48  0     1  0  0  0  0  0999 V2000
   -1.8772   -1.1551   -1.6825 O   0  0  0  0  0  0  0  0  0  0  0  0
   -7.5695    0.0604    0.4739 O   0  0  0  0  0  0  0  0  0  0  0  0
    0.2142    0.1995   -0.3046 N   0  0  0  0  0  0  0  0  0  0  0  0
    1.0428    1.3881   -0.1015 C   0  0  1  0  0  0  0  0  0  0  0  0
   -1.1824    0.4919   -0.0237 C   0  0  1  0  0  0  0  0  0  0  0  0
    2.5284    1.0724   -0.3570 C   0  0  0  0  0  0  0  0  0  0  0  0
   -2.0436   -0.7568   -0.3189 C   0  0  1  0  0  0  0  0  0  0  0  0
    3.1342    0.0089    0.5713 C   0  0  0  0  0  0  0  0  0  0  0  0
    0.5680    2.5073   -1.0287 C   0  0  0  0  0  0  0  0  0  0  0  0
   -1.2858    0.9457    1.4337 C   0  0  0  0  0  0  0  0  0  0  0  0
   -3.5262   -0.5373   -0.1058 C   0  0  0  0  0  0  0  0  0  0  0  0
    4.6052   -0.2335    0.3440 C   0  0  0  0  0  0  0  0  0  0  0  0
   -4.2110   -1.3590    0.7719 C   0  0  0  0  0  0  0  0  0  0  0  0
   -4.1633    0.4799   -0.7945 C   0  0  0  0  0  0  0  0  0  0  0  0
    5.0034   -1.2004   -0.5668 C   0  0  0  0  0  0  0  0  0  0  0  0
    5.5356    0.5144    1.0498 C   0  0  0  0  0  0  0  0  0  0  0  0
   -5.5772   -1.1570    0.9672 C   0  0  0  0  0  0  0  0  0  0  0  0
   -5.5296    0.6818   -0.5990 C   0  0  0  0  0  0  0  0  0  0  0  0
   -6.2366   -0.1366    0.2818 C   0  0  0  0  0  0  0  0  0  0  0  0
    6.3640   -1.4248   -0.7768 C   0  0  0  0  0  0  0  0  0  0  0  0
    6.8962    0.2901    0.8397 C   0  0  0  0  0  0  0  0  0  0  0  0
    7.3104   -0.6796   -0.0736 C   0  0  0  0  0  0  0  0  0  0  0  0
    1.0102    1.7441    0.9333 H   0  0  0  0  0  0  0  0  0  0  0  0
   -1.5464    1.2834   -0.6837 H   0  0  0  0  0  0  0  0  0  0  0  0
    2.6604    0.7543   -1.4006 H   0  0  0  0  0  0  0  0  0  0  0  0
    3.1094    1.9988   -0.2515 H   0  0  0  0  0  0  0  0  0  0  0  0
    0.5324   -0.5574    0.2984 H   0  0  0  0  0  0  0  0  0  0  0  0
   -1.6997   -1.5958    0.3003 H   0  0  0  0  0  0  0  0  0  0  0  0
    2.6080   -0.9464    0.4547 H   0  0  0  0  0  0  0  0  0  0  0  0
    2.9748    0.3030    1.6172 H   0  0  0  0  0  0  0  0  0  0  0  0
    0.4272    2.1536   -2.0567 H   0  0  0  0  0  0  0  0  0  0  0  0
   -0.3585    2.9786   -0.6863 H   0  0  0  0  0  0  0  0  0  0  0  0
    1.3132    3.3108   -1.0672 H   0  0  0  0  0  0  0  0  0  0  0  0
   -0.7585    0.2670    2.1145 H   0  0  0  0  0  0  0  0  0  0  0  0
   -0.9140    1.9628    1.5911 H   0  0  0  0  0  0  0  0  0  0  0  0
   -2.3293    0.9738    1.7652 H   0  0  0  0  0  0  0  0  0  0  0  0
   -0.9241   -1.2757   -1.8343 H   0  0  0  0  0  0  0  0  0  0  0  0
   -3.7086   -2.1563    1.3116 H   0  0  0  0  0  0  0  0  0  0  0  0
   -3.6347    1.1180   -1.4957 H   0  0  0  0  0  0  0  0  0  0  0  0
    4.2741   -1.7842   -1.1210 H   0  0  0  0  0  0  0  0  0  0  0  0
    5.2229    1.2731    1.7615 H   0  0  0  0  0  0  0  0  0  0  0  0
   -6.1165   -1.8013    1.6565 H   0  0  0  0  0  0  0  0  0  0  0  0
   -6.0384    1.4763   -1.1381 H   0  0  0  0  0  0  0  0  0  0  0  0
    6.6865   -2.1793   -1.4884 H   0  0  0  0  0  0  0  0  0  0  0  0
    7.6332    0.8707    1.3868 H   0  0  0  0  0  0  0  0  0  0  0  0
    8.3698   -0.8541   -0.2373 H   0  0  0  0  0  0  0  0  0  0  0  0
   -7.8957   -0.5945    1.1149 H   0  0  0  0  0  0  0  0  0  0  0  0
  1  7  1  0  0  0  0
  1 37  1  0  0  0  0
  2 19  1  0  0  0  0
  2 47  1  0  0  0  0
  3  4  1  0  0  0  0
  3  5  1  0  0  0  0
  3 27  1  0  0  0  0
  4  6  1  0  0  0  0
  4  9  1  0  0  0  0
  4 23  1  0  0  0  0
  5  7  1  0  0  0  0
  5 10  1  0  0  0  0
  5 24  1  0  0  0  0
  6  8  1  0  0  0  0
  6 25  1  0  0  0  0
  6 26  1  0  0  0  0
  7 11  1  0  0  0  0
  7 28  1  0  0  0  0
  8 12  1  0  0  0  0
  8 29  1  0  0  0  0
  8 30  1  0  0  0  0
  9 31  1  0  0  0  0
  9 32  1  0  0  0  0
  9 33  1  0  0  0  0
 10 34  1  0  0  0  0
 10 35  1  0  0  0  0
 10 36  1  0  0  0  0
 11 13  2  0  0  0  0
 11 14  1  0  0  0  0
 12 15  2  0  0  0  0
 12 16  1  0  0  0  0
 13 17  1  0  0  0  0
 13 38  1  0  0  0  0
 14 18  2  0  0  0  0
 14 39  1  0  0  0  0
 15 20  1  0  0  0  0
 15 40  1  0  0  0  0
 16 21  2  0  0  0  0
 16 41  1  0  0  0  0
 17 19  2  0  0  0  0
 17 42  1  0  0  0  0
 18 19  1  0  0  0  0
 18 43  1  0  0  0  0
 20 22  2  0  0  0  0
 20 44  1  0  0  0  0
 21 22  1  0  0  0  0
 21 45  1  0  0  0  0
 22 46  1  0  0  0  0
M  END
> <DATABASE_ID>
DB06152

> <DATABASE_NAME>
drugbank

> <ORIGINAL_SOURCE>
PUBCHEM

> <ORIGINAL_SOURCE_URL>
https://pubchem.ncbi.nlm.nih.gov/rest/pug/compound/inchikey/PTGXAUBQBSGPKF-UHFFFAOYSA-N/SDF?record_type=3d

> <SMILES>
CC(CCC1=CC=CC=C1)NC(C)C(O)C1=CC=C(O)C=C1

> <INCHI_IDENTIFIER>
InChI=1S/C19H25NO2/c1-14(8-9-16-6-4-3-5-7-16)20-15(2)19(22)17-10-12-18(21)13-11-17/h3-7,10-15,19-22H,8-9H2,1-2H3

> <INCHI_KEY>
PTGXAUBQBSGPKF-UHFFFAOYSA-N

> <FORMULA>
C19H25NO2

> <MOLECULAR_WEIGHT>
299.414

> <EXACT_MASS>
299.188529049

> <JCHEM_ACCEPTOR_COUNT>
3

> <JCHEM_ATOM_COUNT>
47

> <JCHEM_AVERAGE_POLARIZABILITY>
34.55918916248268

> <JCHEM_BIOAVAILABILITY>
1

> <JCHEM_DONOR_COUNT>
3

> <JCHEM_FORMAL_CHARGE>
0

> <JCHEM_GHOSE_FILTER>
1

> <JCHEM_IUPAC>
4-{1-hydroxy-2-[(4-phenylbutan-2-yl)amino]propyl}phenol

> <ALOGPS_LOGP>
2.73

> <JCHEM_LOGP>
3.0538085931686596

> <ALOGPS_LOGS>
-4.17

> <JCHEM_MDDR_LIKE_RULE>
0

> <JCHEM_NUMBER_OF_RINGS>
2

> <JCHEM_PHYSIOLOGICAL_CHARGE>
1

> <JCHEM_PKA>
14.030323457267063

> <JCHEM_PKA_STRONGEST_ACIDIC>
9.249612217400001

> <JCHEM_PKA_STRONGEST_BASIC>
10.107747446375129

> <JCHEM_POLAR_SURFACE_AREA>
52.489999999999995

> <JCHEM_REFRACTIVITY>
90.05559999999998

> <JCHEM_ROTATABLE_BOND_COUNT>
7

> <JCHEM_RULE_OF_FIVE>
1

> <ALOGPS_SOLUBILITY>
2.04e-02 g/l

> <JCHEM_TRADITIONAL_IUPAC>
nylidrin

> <JCHEM_VEBER_RULE>
0

> <DRUGBANK_ID>
DB06152

> <DRUG_GROUPS>
approved

> <GENERIC_NAME>
Nylidrin

> <SYNONYMS>
Bufenina; Buphenin; Buphenine; Bupheninum

> <PRODUCTS>
Arlidin Forte Tab 12mg; Arlidin Tablets 6mg; PMS-nylidrin Tab 6mg

> <INTERNATIONAL_BRANDS>
Arbid; Arlidin

> <SALTS>
Nylidrin hydrochloride

$$$$
