948
  -OEChem-10051720503D

  3  2  0     0  0  0  0  0  0999 V2000
    1.3063    0.0000    0.0000 O   0  5  0  0  0  0  0  0  0  0  0  0
   -0.1096    0.0000    0.0000 N   0  3  0  0  0  0  0  0  0  0  0  0
   -1.1967    0.0000    0.0000 N   0  0  0  0  0  0  0  0  0  0  0  0
  1  2  1  0  0  0  0
  2  3  3  0  0  0  0
M  CHG  2   1  -1   2   1
M  END
> <DATABASE_ID>
DB06690

> <DATABASE_NAME>
drugbank

> <ORIGINAL_SOURCE>
PUBCHEM

> <ORIGINAL_SOURCE_URL>
https://pubchem.ncbi.nlm.nih.gov/rest/pug/compound/inchikey/GQPLMRYTRLFLPF-UHFFFAOYSA-N/SDF?record_type=3d

> <SMILES>
[O-][N+]#N

> <INCHI_IDENTIFIER>
InChI=1S/N2O/c1-2-3

> <INCHI_KEY>
GQPLMRYTRLFLPF-UHFFFAOYSA-N

> <FORMULA>
N2O

> <MOLECULAR_WEIGHT>
44.0128

> <EXACT_MASS>
44.001062632

> <JCHEM_ACCEPTOR_COUNT>
3

> <JCHEM_AVERAGE_POLARIZABILITY>
2.540463164448618

> <JCHEM_BIOAVAILABILITY>
1

> <JCHEM_DONOR_COUNT>
0

> <JCHEM_FORMAL_CHARGE>
0

> <JCHEM_GHOSE_FILTER>
0

> <JCHEM_IUPAC>
diazooxidane

> <JCHEM_LOGP>
-0.021399999999999975

> <JCHEM_MDDR_LIKE_RULE>
0

> <JCHEM_NUMBER_OF_RINGS>
0

> <JCHEM_PHYSIOLOGICAL_CHARGE>
0

> <JCHEM_PKA_STRONGEST_BASIC>
-6.840191953533718

> <JCHEM_POLAR_SURFACE_AREA>
54.46

> <JCHEM_REFRACTIVITY>
27.6727

> <JCHEM_ROTATABLE_BOND_COUNT>
0

> <JCHEM_RULE_OF_FIVE>
1

> <JCHEM_TRADITIONAL_IUPAC>
nitrous oxide

> <JCHEM_VEBER_RULE>
0

> <DRUGBANK_ID>
DB06690

> <DRUG_GROUPS>
approved; vet_approved

> <GENERIC_NAME>
Nitrous oxide

> <SYNONYMS>
N2O; Nitrious oxide; Ã³xido nitroso

> <PRODUCTS>
Alnox Gas; Entonox; Liqui-med Analgesic Gas; Nitrous Oxide; Nitrous Oxide 100%; Nitrous Oxide 99%; Nitrous Oxide In Oxygen; Nitrous Oxide Sedara; Nitrous Oxide USP; Nitrous Oxide USP 99%; Nitrous Oxide, USP

$$$$
