204105
  -OEChem-10061700073D

 54 56  0     1  0  0  0  0  0999 V2000
   -3.7801   -2.6933    0.4986 O   0  0  0  0  0  0  0  0  0  0  0  0
   -1.6381   -3.2903   -1.1651 O   0  0  0  0  0  0  0  0  0  0  0  0
    3.4749   -1.5490    1.3380 O   0  0  0  0  0  0  0  0  0  0  0  0
    5.4356   -0.3281   -0.2074 O   0  0  0  0  0  0  0  0  0  0  0  0
   -1.4051    3.0303   -1.2169 N   0  0  0  0  0  0  0  0  0  0  0  0
   -0.1425    2.5140   -0.9734 N   0  0  0  0  0  0  0  0  0  0  0  0
   -2.3129    1.9687    0.8701 C   0  0  1  0  0  0  0  0  0  0  0  0
   -2.0840    0.5582    0.3846 C   0  0  0  0  0  0  0  0  0  0  0  0
   -1.3591    2.4473    1.9594 C   0  0  0  0  0  0  0  0  0  0  0  0
   -0.9961    0.2399   -0.4417 C   0  0  0  0  0  0  0  0  0  0  0  0
   -2.3555    2.8747   -0.3489 C   0  0  0  0  0  0  0  0  0  0  0  0
   -3.0110   -0.4485    0.6947 C   0  0  0  0  0  0  0  0  0  0  0  0
    0.0531    1.2589   -0.6991 C   0  0  0  0  0  0  0  0  0  0  0  0
   -0.8542   -1.0517   -0.9666 C   0  0  0  0  0  0  0  0  0  0  0  0
   -1.4270    1.5581    3.1869 C   0  0  0  0  0  0  0  0  0  0  0  0
   -2.8618   -1.7380    0.1821 C   0  0  0  0  0  0  0  0  0  0  0  0
   -1.7893   -2.0366   -0.6539 C   0  0  0  0  0  0  0  0  0  0  0  0
   -3.6620    3.5830   -0.6260 C   0  0  0  0  0  0  0  0  0  0  0  0
    1.4800    0.8345   -0.5669 C   0  0  0  0  0  0  0  0  0  0  0  0
    1.8150   -0.1694    0.3317 C   0  0  0  0  0  0  0  0  0  0  0  0
    2.4517    1.4512   -1.3434 C   0  0  0  0  0  0  0  0  0  0  0  0
    3.1472   -0.5641    0.4560 C   0  0  0  0  0  0  0  0  0  0  0  0
    3.7836    1.0566   -1.2190 C   0  0  0  0  0  0  0  0  0  0  0  0
    4.1314    0.0489   -0.3194 C   0  0  0  0  0  0  0  0  0  0  0  0
   -4.9115   -2.8147   -0.3610 C   0  0  0  0  0  0  0  0  0  0  0  0
   -0.8697   -4.2148   -0.3975 C   0  0  0  0  0  0  0  0  0  0  0  0
    3.4577   -2.8888    0.8494 C   0  0  0  0  0  0  0  0  0  0  0  0
    6.2298    0.3632    0.7547 C   0  0  0  0  0  0  0  0  0  0  0  0
   -3.3228    2.0112    1.3036 H   0  0  0  0  0  0  0  0  0  0  0  0
   -1.6282    3.4721    2.2447 H   0  0  0  0  0  0  0  0  0  0  0  0
   -0.3197    2.4961    1.6228 H   0  0  0  0  0  0  0  0  0  0  0  0
   -3.8645   -0.2253    1.3312 H   0  0  0  0  0  0  0  0  0  0  0  0
   -0.0251   -1.3000   -1.6250 H   0  0  0  0  0  0  0  0  0  0  0  0
   -2.4521    1.4732    3.5620 H   0  0  0  0  0  0  0  0  0  0  0  0
   -1.0462    0.5527    2.9823 H   0  0  0  0  0  0  0  0  0  0  0  0
   -0.8133    1.9820    3.9886 H   0  0  0  0  0  0  0  0  0  0  0  0
   -3.9598    4.1545    0.2573 H   0  0  0  0  0  0  0  0  0  0  0  0
   -4.4324    2.8413   -0.8538 H   0  0  0  0  0  0  0  0  0  0  0  0
   -3.5609    4.2662   -1.4738 H   0  0  0  0  0  0  0  0  0  0  0  0
    1.0774   -0.6385    0.9766 H   0  0  0  0  0  0  0  0  0  0  0  0
    2.2031    2.2312   -2.0575 H   0  0  0  0  0  0  0  0  0  0  0  0
    4.5450    1.5363   -1.8282 H   0  0  0  0  0  0  0  0  0  0  0  0
   -5.4920   -1.8867   -0.3643 H   0  0  0  0  0  0  0  0  0  0  0  0
   -5.5445   -3.6218    0.0178 H   0  0  0  0  0  0  0  0  0  0  0  0
   -4.5972   -3.0652   -1.3791 H   0  0  0  0  0  0  0  0  0  0  0  0
   -0.8630   -5.1739   -0.9226 H   0  0  0  0  0  0  0  0  0  0  0  0
   -1.3152   -4.3603    0.5917 H   0  0  0  0  0  0  0  0  0  0  0  0
    0.1616   -3.8633   -0.2975 H   0  0  0  0  0  0  0  0  0  0  0  0
    3.7450   -3.5555    1.6670 H   0  0  0  0  0  0  0  0  0  0  0  0
    4.1741   -3.0099    0.0308 H   0  0  0  0  0  0  0  0  0  0  0  0
    2.4528   -3.1606    0.5127 H   0  0  0  0  0  0  0  0  0  0  0  0
    5.8203    0.2287    1.7609 H   0  0  0  0  0  0  0  0  0  0  0  0
    6.2860    1.4288    0.5109 H   0  0  0  0  0  0  0  0  0  0  0  0
    7.2396   -0.0553    0.7295 H   0  0  0  0  0  0  0  0  0  0  0  0
  1 16  1  0  0  0  0
  1 25  1  0  0  0  0
  2 17  1  0  0  0  0
  2 26  1  0  0  0  0
  3 22  1  0  0  0  0
  3 27  1  0  0  0  0
  4 24  1  0  0  0  0
  4 28  1  0  0  0  0
  5  6  1  0  0  0  0
  5 11  2  0  0  0  0
  6 13  2  0  0  0  0
  7  8  1  0  0  0  0
  7  9  1  0  0  0  0
  7 11  1  0  0  0  0
  7 29  1  0  0  0  0
  8 10  1  0  0  0  0
  8 12  2  0  0  0  0
  9 15  1  0  0  0  0
  9 30  1  0  0  0  0
  9 31  1  0  0  0  0
 10 13  1  0  0  0  0
 10 14  2  0  0  0  0
 11 18  1  0  0  0  0
 12 16  1  0  0  0  0
 12 32  1  0  0  0  0
 13 19  1  0  0  0  0
 14 17  1  0  0  0  0
 14 33  1  0  0  0  0
 15 34  1  0  0  0  0
 15 35  1  0  0  0  0
 15 36  1  0  0  0  0
 16 17  2  0  0  0  0
 18 37  1  0  0  0  0
 18 38  1  0  0  0  0
 18 39  1  0  0  0  0
 19 20  2  0  0  0  0
 19 21  1  0  0  0  0
 20 22  1  0  0  0  0
 20 40  1  0  0  0  0
 21 23  2  0  0  0  0
 21 41  1  0  0  0  0
 22 24  2  0  0  0  0
 23 24  1  0  0  0  0
 23 42  1  0  0  0  0
 25 43  1  0  0  0  0
 25 44  1  0  0  0  0
 25 45  1  0  0  0  0
 26 46  1  0  0  0  0
 26 47  1  0  0  0  0
 26 48  1  0  0  0  0
 27 49  1  0  0  0  0
 27 50  1  0  0  0  0
 27 51  1  0  0  0  0
 28 52  1  0  0  0  0
 28 53  1  0  0  0  0
 28 54  1  0  0  0  0
M  END
> <DATABASE_ID>
DB06582

> <DATABASE_NAME>
drugbank

> <ORIGINAL_SOURCE>
PUBCHEM

> <ORIGINAL_SOURCE_URL>
https://pubchem.ncbi.nlm.nih.gov/rest/pug/compound/inchikey/RUJBDQSFYCKFAA-HNNXBMFYSA-N/SDF?record_type=3d

> <SMILES>
CC[C@@H]1C2=CC(OC)=C(OC)C=C2C(=NN=C1C)C1=CC=C(OC)C(OC)=C1

> <INCHI_IDENTIFIER>
InChI=1S/C22H26N2O4/c1-7-15-13(2)23-24-22(14-8-9-18(25-3)19(10-14)26-4)17-12-21(28-6)20(27-5)11-16(15)17/h8-12,15H,7H2,1-6H3/t15-/m0/s1

> <INCHI_KEY>
RUJBDQSFYCKFAA-HNNXBMFYSA-N

> <FORMULA>
C22H26N2O4

> <MOLECULAR_WEIGHT>
382.46

> <EXACT_MASS>
382.189257325

> <JCHEM_ACCEPTOR_COUNT>
6

> <JCHEM_ATOM_COUNT>
54

> <JCHEM_AVERAGE_POLARIZABILITY>
42.275201333913714

> <JCHEM_BIOAVAILABILITY>
1

> <JCHEM_DONOR_COUNT>
0

> <JCHEM_FORMAL_CHARGE>
0

> <JCHEM_GHOSE_FILTER>
1

> <JCHEM_IUPAC>
(5R)-1-(3,4-dimethoxyphenyl)-5-ethyl-7,8-dimethoxy-4-methyl-5H-2,3-benzodiazepine

> <ALOGPS_LOGP>
4.29

> <JCHEM_LOGP>
3.8256045320000003

> <ALOGPS_LOGS>
-5.21

> <JCHEM_MDDR_LIKE_RULE>
1

> <JCHEM_NUMBER_OF_RINGS>
3

> <JCHEM_PHYSIOLOGICAL_CHARGE>
0

> <JCHEM_PKA_STRONGEST_BASIC>
-2.2382082211651433

> <JCHEM_POLAR_SURFACE_AREA>
61.640000000000015

> <JCHEM_REFRACTIVITY>
109.03469999999999

> <JCHEM_ROTATABLE_BOND_COUNT>
6

> <JCHEM_RULE_OF_FIVE>
1

> <ALOGPS_SOLUBILITY>
2.39e-03 g/l

> <JCHEM_TRADITIONAL_IUPAC>
dextofisopam

> <JCHEM_VEBER_RULE>
0

> <DRUGBANK_ID>
DB06582

> <DRUG_GROUPS>
investigational

> <GENERIC_NAME>
Dextofisopam

> <SYNONYMS>
Dextofisopam; R-tofisopam

$$$$
