11198924
  -OEChem-10051723433D

 44 47  0     0  0  0  0  0  0999 V2000
   -1.0647    0.2273   -2.2241 F   0  0  0  0  0  0  0  0  0  0  0  0
   -1.7904    1.4404    0.9800 N   0  0  0  0  0  0  0  0  0  0  0  0
    2.8415    1.1776   -0.2943 N   0  0  0  0  0  0  0  0  0  0  0  0
    0.8832    2.0308    0.5811 N   0  0  0  0  0  0  0  0  0  0  0  0
    3.5578   -0.8790   -0.3946 N   0  0  0  0  0  0  0  0  0  0  0  0
    4.0258    1.3074   -0.9050 N   0  0  0  0  0  0  0  0  0  0  0  0
   -3.4370    2.0030   -0.3875 N   0  0  0  0  0  0  0  0  0  0  0  0
   -3.4760   -1.1617    0.1128 N   0  0  0  0  0  0  0  0  0  0  0  0
    1.3169   -0.3730    0.6641 C   0  0  0  0  0  0  0  0  0  0  0  0
    0.8870   -1.7775    1.0155 C   0  0  0  0  0  0  0  0  0  0  0  0
    0.5455    0.7222    0.9206 C   0  0  0  0  0  0  0  0  0  0  0  0
   -0.7750    0.6419    1.6456 C   0  0  0  0  0  0  0  0  0  0  0  0
    2.5605   -0.1218    0.0104 C   0  0  0  0  0  0  0  0  0  0  0  0
    1.3684   -2.1695    2.4038 C   0  0  0  0  0  0  0  0  0  0  0  0
   -2.6418    1.0301   -0.0011 C   0  0  0  0  0  0  0  0  0  0  0  0
    2.0148    2.2400   -0.0148 C   0  0  0  0  0  0  0  0  0  0  0  0
    0.9115   -3.5767    2.7558 C   0  0  0  0  0  0  0  0  0  0  0  0
   -2.0500    2.7512    1.2415 C   0  0  0  0  0  0  0  0  0  0  0  0
    4.4218    0.0314   -0.9429 C   0  0  0  0  0  0  0  0  0  0  0  0
   -2.6510   -0.3134   -0.5353 C   0  0  0  0  0  0  0  0  0  0  0  0
   -3.0729    3.0789    0.3828 C   0  0  0  0  0  0  0  0  0  0  0  0
    5.7033   -0.3690   -1.5349 C   0  0  0  0  0  0  0  0  0  0  0  0
   -1.8659   -0.6588   -1.6191 C   0  0  0  0  0  0  0  0  0  0  0  0
   -1.9316   -1.9719   -2.0718 C   0  0  0  0  0  0  0  0  0  0  0  0
   -3.5132   -2.4294   -0.3554 C   0  0  0  0  0  0  0  0  0  0  0  0
   -2.7685   -2.8804   -1.4333 C   0  0  0  0  0  0  0  0  0  0  0  0
   -0.1947   -1.9126    0.9250 H   0  0  0  0  0  0  0  0  0  0  0  0
    1.3081   -2.4720    0.2755 H   0  0  0  0  0  0  0  0  0  0  0  0
   -1.1813   -0.3607    1.7842 H   0  0  0  0  0  0  0  0  0  0  0  0
   -0.6526    1.0598    2.6536 H   0  0  0  0  0  0  0  0  0  0  0  0
    2.4629   -2.1242    2.4565 H   0  0  0  0  0  0  0  0  0  0  0  0
    0.9803   -1.4722    3.1559 H   0  0  0  0  0  0  0  0  0  0  0  0
    2.3271    3.2564   -0.3025 H   0  0  0  0  0  0  0  0  0  0  0  0
    1.3078   -4.3083    2.0443 H   0  0  0  0  0  0  0  0  0  0  0  0
   -0.1809   -3.6481    2.7507 H   0  0  0  0  0  0  0  0  0  0  0  0
    1.2643   -3.8502    3.7552 H   0  0  0  0  0  0  0  0  0  0  0  0
   -1.5129    3.3231    1.9855 H   0  0  0  0  0  0  0  0  0  0  0  0
   -3.5662    4.0344    0.2810 H   0  0  0  0  0  0  0  0  0  0  0  0
    5.8463   -1.4520   -1.4682 H   0  0  0  0  0  0  0  0  0  0  0  0
    6.5373    0.1133   -1.0155 H   0  0  0  0  0  0  0  0  0  0  0  0
    5.7461   -0.0882   -2.5919 H   0  0  0  0  0  0  0  0  0  0  0  0
   -1.3309   -2.2864   -2.9197 H   0  0  0  0  0  0  0  0  0  0  0  0
   -4.1805   -3.0987    0.1774 H   0  0  0  0  0  0  0  0  0  0  0  0
   -2.8350   -3.9091   -1.7683 H   0  0  0  0  0  0  0  0  0  0  0  0
  1 23  1  0  0  0  0
  2 12  1  0  0  0  0
  2 15  1  0  0  0  0
  2 18  1  0  0  0  0
  3  6  1  0  0  0  0
  3 13  1  0  0  0  0
  3 16  1  0  0  0  0
  4 11  1  0  0  0  0
  4 16  2  0  0  0  0
  5 13  2  0  0  0  0
  5 19  1  0  0  0  0
  6 19  2  0  0  0  0
  7 15  2  0  0  0  0
  7 21  1  0  0  0  0
  8 20  1  0  0  0  0
  8 25  2  0  0  0  0
  9 10  1  0  0  0  0
  9 11  2  0  0  0  0
  9 13  1  0  0  0  0
 10 14  1  0  0  0  0
 10 27  1  0  0  0  0
 10 28  1  0  0  0  0
 11 12  1  0  0  0  0
 12 29  1  0  0  0  0
 12 30  1  0  0  0  0
 14 17  1  0  0  0  0
 14 31  1  0  0  0  0
 14 32  1  0  0  0  0
 15 20  1  0  0  0  0
 16 33  1  0  0  0  0
 17 34  1  0  0  0  0
 17 35  1  0  0  0  0
 17 36  1  0  0  0  0
 18 21  2  0  0  0  0
 18 37  1  0  0  0  0
 19 22  1  0  0  0  0
 20 23  2  0  0  0  0
 21 38  1  0  0  0  0
 22 39  1  0  0  0  0
 22 40  1  0  0  0  0
 22 41  1  0  0  0  0
 23 24  1  0  0  0  0
 24 26  2  0  0  0  0
 24 42  1  0  0  0  0
 25 26  1  0  0  0  0
 25 43  1  0  0  0  0
 26 44  1  0  0  0  0
M  END
> <DATABASE_ID>
DB06579

> <DATABASE_NAME>
drugbank

> <ORIGINAL_SOURCE>
PUBCHEM

> <ORIGINAL_SOURCE_URL>
https://pubchem.ncbi.nlm.nih.gov/rest/pug/compound/inchikey/UAMAIHOEGLEXSV-UHFFFAOYSA-N/SDF?record_type=3d

> <SMILES>
CCCC1=C(CN2C=CN=C2C2=C(F)C=CC=N2)N=CN2N=C(C)N=C12

> <INCHI_IDENTIFIER>
InChI=1S/C18H18FN7/c1-3-5-13-15(22-11-26-17(13)23-12(2)24-26)10-25-9-8-21-18(25)16-14(19)6-4-7-20-16/h4,6-9,11H,3,5,10H2,1-2H3

> <INCHI_KEY>
UAMAIHOEGLEXSV-UHFFFAOYSA-N

> <FORMULA>
C18H18FN7

> <MOLECULAR_WEIGHT>
351.389

> <EXACT_MASS>
351.160771771

> <JCHEM_ACCEPTOR_COUNT>
5

> <JCHEM_ATOM_COUNT>
44

> <JCHEM_AVERAGE_POLARIZABILITY>
35.500581116717456

> <JCHEM_BIOAVAILABILITY>
1

> <JCHEM_DONOR_COUNT>
0

> <JCHEM_FORMAL_CHARGE>
0

> <JCHEM_GHOSE_FILTER>
1

> <JCHEM_IUPAC>
3-fluoro-2-[1-({2-methyl-8-propyl-[1,2,4]triazolo[1,5-c]pyrimidin-7-yl}methyl)-1H-imidazol-2-yl]pyridine

> <ALOGPS_LOGP>
2.53

> <JCHEM_LOGP>
3.240659825333333

> <ALOGPS_LOGS>
-4.05

> <JCHEM_MDDR_LIKE_RULE>
0

> <JCHEM_NUMBER_OF_RINGS>
4

> <JCHEM_PHYSIOLOGICAL_CHARGE>
0

> <JCHEM_PKA_STRONGEST_BASIC>
2.957552052744152

> <JCHEM_POLAR_SURFACE_AREA>
73.79

> <JCHEM_REFRACTIVITY>
116.54629999999999

> <JCHEM_ROTATABLE_BOND_COUNT>
5

> <JCHEM_RULE_OF_FIVE>
1

> <ALOGPS_SOLUBILITY>
3.10e-02 g/l

> <JCHEM_TRADITIONAL_IUPAC>
adipiplon

> <JCHEM_VEBER_RULE>
0

> <DRUGBANK_ID>
DB06579

> <DRUG_GROUPS>
investigational

> <GENERIC_NAME>
Adipiplon

$$$$
