REMARK  Name = 445824
REMARK  7 active torsions:
REMARK  status: ('A' for Active; 'I' for Inactive)
REMARK    1  A    between atoms: C_1  and  N_3
REMARK    2  A    between atoms: C_1  and  C_7
REMARK    3  A    between atoms: C_1  and  C_16
REMARK    4  A    between atoms: C_7  and  C_11
REMARK    5  A    between atoms: C_7  and  O_12
REMARK    6  A    between atoms: C_7  and  O_14
REMARK    7  A    between atoms: C_16  and  C_17
REMARK                            x       y       z     vdW  Elec       q    Type
REMARK                         _______ _______ _______ _____ _____    ______ ____
ROOT
ATOM      1  C   UNL     1       0.472  -0.314  -0.182  0.00  0.00    +0.136 C 
ENDROOT
BRANCH   1   3
ATOM      2  O   UNL     1      -0.009   2.096   1.363  0.00  0.00    -0.275 OA
ATOM      3  N   UNL     1       0.511   1.055  -0.653  0.00  0.00    -0.301 N 
ATOM      4  C   UNL     1       0.266   2.141   0.166  0.00  0.00    +0.223 C 
ATOM      5  C   UNL     1       0.397   3.448  -0.570  0.00  0.00    +0.095 C 
ATOM      6  H   UNL     1       0.722   1.219  -1.600  0.00  0.00    +0.150 HD
ENDBRANCH   1   3
BRANCH   1   7
ATOM      7  C   UNL     1       1.853  -1.002  -0.326  0.00  0.00    +0.288 C 
BRANCH   7  11
ATOM      8  F   UNL     1       2.731  -0.150   1.712  0.00  0.00    -0.165 F 
ATOM      9  F   UNL     1       3.140   0.995  -0.100  0.00  0.00    -0.165 F 
ATOM     10  F   UNL     1       4.152  -0.902   0.238  0.00  0.00    -0.165 F 
ATOM     11  C   UNL     1       2.974  -0.253   0.387  0.00  0.00    +0.446 C 
ENDBRANCH   7  11
BRANCH   7  12
ATOM     12  O   UNL     1       1.742  -2.305   0.256  0.00  0.00    -0.356 OA
ATOM     13  H   UNL     1       1.532  -2.221   1.199  0.00  0.00    +0.213 HD
ENDBRANCH   7  12
BRANCH   7  14
ATOM     14  O   UNL     1       2.162  -1.122  -1.713  0.00  0.00    -0.356 OA
ATOM     15  H   UNL     1       2.236  -0.238  -2.106  0.00  0.00    +0.213 HD
ENDBRANCH   7  14
ENDBRANCH   1   7
BRANCH   1  16
ATOM     16  C   UNL     1      -0.648  -1.091  -0.912  0.00  0.00    +0.051 C 
BRANCH  16  17
ATOM     17  C   UNL     1      -2.030  -0.747  -0.405  0.00  0.00    -0.020 C 
ATOM     18  C   UNL     1      -2.570  -1.477   0.640  0.00  0.00    -0.004 C 
ATOM     19  C   UNL     1      -2.729   0.292  -0.998  0.00  0.00    -0.004 C 
ATOM     20  C   UNL     1      -3.845  -1.159   1.107  0.00  0.00    -0.000 C 
ATOM     21  C   UNL     1      -4.004   0.610  -0.531  0.00  0.00    -0.000 C 
ATOM     22  C   UNL     1      -4.563  -0.116   0.522  0.00  0.00    -0.000 C 
ENDBRANCH  16  17
ENDBRANCH   1  16
TORSDOF 7
