REMARK  Name = 5287692
REMARK  2 active torsions:
REMARK  status: ('A' for Active; 'I' for Inactive)
REMARK    1  A    between atoms: C_3  and  C_11
REMARK    2  A    between atoms: C_11  and  O_12
REMARK                            x       y       z     vdW  Elec       q    Type
REMARK                         _______ _______ _______ _____ _____    ______ ____
ROOT
ATOM      1  O   UNL     1      -2.932  -0.431  -0.445  0.00  0.00    -0.275 OA
ATOM      2  N   UNL     1      -0.661  -0.299   0.051  0.00  0.00    -0.271 N 
ATOM      3  C   UNL     1       0.473   0.425   0.648  0.00  0.00    +0.174 C 
ATOM      4  C   UNL     1       1.563  -0.504   1.187  0.00  0.00    +0.031 C 
ATOM      5  C   UNL     1       1.923  -1.637   0.229  0.00  0.00    +0.004 C 
ATOM      6  C   UNL     1       0.670  -2.373  -0.224  0.00  0.00    +0.022 C 
ATOM      7  C   UNL     1      -0.331  -1.410  -0.849  0.00  0.00    +0.094 C 
ATOM      8  C   UNL     1      -1.999   0.097   0.166  0.00  0.00    +0.226 C 
ATOM      9  C   UNL     1      -2.292   1.236   1.110  0.00  0.00    +0.095 C 
ENDROOT
BRANCH   3  11
ATOM     10  O   UNL     1       0.574   1.431  -1.550  0.00  0.00    -0.248 OA
ATOM     11  C   UNL     1       0.998   1.356  -0.406  0.00  0.00    +0.332 C 
BRANCH  11  12
ATOM     12  O   UNL     1       2.015   2.108   0.082  0.00  0.00    -0.479 OA
ATOM     13  H   UNL     1       2.292   2.000   0.971  0.00  0.00    +0.295 HD
ENDBRANCH  11  12
ENDBRANCH   3  11
TORSDOF 2
