REMARK  Name = 10713671
REMARK  3 active torsions:
REMARK  status: ('A' for Active; 'I' for Inactive)
REMARK    1  A    between atoms: CA_6  and  CB_23
REMARK    2  A    between atoms: C_8  and  C_27
REMARK    3  A    between atoms: C_27  and  O_28
REMARK                            x       y       z     vdW  Elec       q    Type
REMARK                         _______ _______ _______ _____ _____    ______ ____
ROOT
ATOM      1  O   VAL A   1      -0.655   0.469  -1.494  0.00  0.00    -0.273 OA
ATOM      2  O   UNK A   2       3.678  -1.897  -0.021  0.00  0.00    -0.475 OA
ATOM      3  O   UNK A   0       1.509   1.529   1.920  0.00  0.00    -0.275 OA
ATOM      4  N   VAL A   1       0.577   2.392  -0.024  0.00  0.00    -0.298 N 
ATOM      5  N   UNK A   2      -2.132   0.059   0.253  0.00  0.00    -0.295 N 
ATOM      6  CA  VAL A   1      -0.814   2.093   0.291  0.00  0.00    +0.148 C 
ATOM      7  C   VAL A   1      -1.163   0.792  -0.421  0.00  0.00    +0.241 C 
ATOM      8  C   UNK A   2      -2.590  -1.246  -0.206  0.00  0.00    +0.176 C 
ATOM      9  C   UNK A   2      -1.935  -2.401   0.564  0.00  0.00    +0.057 C 
ATOM     10  C   UNK A   0       2.992   2.382   0.232  0.00  0.00    +0.085 C 
ATOM     11  C   UNK A   0       3.845   1.121   0.079  0.00  0.00    +0.013 C 
ATOM     12  C   UNK A   0       1.627   2.051   0.813  0.00  0.00    +0.223 C 
ATOM     13  C   UNK A   0       3.440   0.301  -1.152  0.00  0.00    +0.048 C 
ATOM     14  C   UNK A   2      -0.432  -2.412   0.423  0.00  0.00    -0.020 C 
ATOM     15  C   UNK A   0       4.056  -1.105  -1.158  0.00  0.00    +0.205 C 
ATOM     16  C   UNK A   2       0.168  -2.732  -0.802  0.00  0.00    -0.001 C 
ATOM     17  C   UNK A   2       0.379  -2.026   1.498  0.00  0.00    -0.001 C 
ATOM     18  C   UNK A   2       2.335  -2.145   0.085  0.00  0.00    +0.139 C 
ATOM     19  C   UNK A   2       1.547  -2.602  -0.972  0.00  0.00    +0.037 C 
ATOM     20  C   UNK A   2       1.758  -1.907   1.333  0.00  0.00    +0.037 C 
ATOM     21  H   VAL A   1       0.779   2.856  -0.869  0.00  0.00    +0.150 HD
ATOM     22  H   UNK A   2      -2.525   0.436   1.073  0.00  0.00    +0.150 HD
ENDROOT
BRANCH   6  23
ATOM     23  CB  VAL A   1      -1.736   3.210  -0.170  0.00  0.00    +0.027 C 
ATOM     24  CG1 VAL A   1      -1.420   4.514   0.563  0.00  0.00    +0.002 C 
ATOM     25  CG2 VAL A   1      -1.631   3.411  -1.683  0.00  0.00    +0.002 C 
ENDBRANCH   6  23
BRANCH   8  27
ATOM     26  O   UNK A   2      -4.628  -0.655   0.945  0.00  0.00    -0.248 OA
ATOM     27  C   UNK A   2      -4.067  -1.234   0.026  0.00  0.00    +0.332 C 
BRANCH  27  28
ATOM     28  O   UNK A   2      -4.707  -1.958  -0.924  0.00  0.00    -0.479 OA
ATOM     29  H   UNK A   2      -4.216  -2.378  -1.603  0.00  0.00    +0.295 HD
ENDBRANCH  27  28
ENDBRANCH   8  27
TORSDOF 3
