REMARK  Name = 9549259
REMARK  5 active torsions:
REMARK  status: ('A' for Active; 'I' for Inactive)
REMARK    1  A    between atoms: N_2  and  C_22
REMARK    2  A    between atoms: C_3  and  N_7
REMARK    3  A    between atoms: N_7  and  S_9
REMARK    4  A    between atoms: S_9  and  C_14
REMARK    5  A    between atoms: C_22  and  C_27
REMARK                            x       y       z     vdW  Elec       q    Type
REMARK                         _______ _______ _______ _____ _____    ______ ____
ROOT
ATOM      1  O   UNL     1      -2.297   1.690  -1.006  0.00  0.00    -0.273 OA
ATOM      2  N   UNL     1      -1.859  -0.616  -0.860  0.00  0.00    -0.272 N 
ATOM      3  C   UNL     1      -0.035   0.832  -0.774  0.00  0.00    +0.153 C 
ATOM      4  C   UNL     1       0.365  -0.526  -0.209  0.00  0.00    +0.048 C 
ATOM      5  C   UNL     1      -0.694  -1.464  -0.754  0.00  0.00    +0.096 C 
ATOM      6  C   UNL     1      -1.537   0.741  -0.885  0.00  0.00    +0.242 C 
ENDROOT
BRANCH   3   7
ATOM      7  N   UNL     1       0.320   1.914   0.152  0.00  0.00    -0.171 NA
ATOM      8  H   UNL     1      -0.421   2.614   0.098  0.00  0.00    +0.149 HD
BRANCH   7   9
ATOM      9  S   UNL     1       1.809   2.729  -0.092  0.00  0.00    +0.066 S 
ATOM     10  O   UNL     1       2.034   3.650   1.005  0.00  0.00    -0.152 OA
ATOM     11  O   UNL     1       1.890   3.167  -1.472  0.00  0.00    -0.152 OA
BRANCH   9  14
ATOM     12 CL   UNL     1       7.830  -2.626  -0.833  0.00  0.00    -0.082 Cl
ATOM     13  S   UNL     1       3.338   0.918   1.608  0.00  0.00    -0.067 S 
ATOM     14  C   UNL     1       3.109   1.502   0.039  0.00  0.00    +0.151 C 
ATOM     15  C   UNL     1       3.938   0.961  -0.880  0.00  0.00    +0.027 C 
ATOM     16  C   UNL     1       4.831   0.002  -0.294  0.00  0.00    +0.009 C 
ATOM     17  C   UNL     1       4.608  -0.122   1.081  0.00  0.00    +0.031 C 
ATOM     18  C   UNL     1       5.846  -0.790  -0.882  0.00  0.00    +0.012 C 
ATOM     19  C   UNL     1       5.366  -1.007   1.872  0.00  0.00    +0.007 C 
ATOM     20  C   UNL     1       6.600  -1.669  -0.100  0.00  0.00    +0.058 C 
ATOM     21  C   UNL     1       6.361  -1.775   1.263  0.00  0.00    +0.012 C 
ENDBRANCH   9  14
ENDBRANCH   7   9
ENDBRANCH   3   7
BRANCH   2  22
ATOM     22  C   UNL     1      -3.183  -1.168  -1.047  0.00  0.00    +0.152 C 
ATOM     23  C   UNL     1      -3.147  -2.583  -1.574  0.00  0.00    +0.031 C 
BRANCH  22  27
ATOM     24  O   UNL     1      -7.702   0.344   0.620  0.00  0.00    -0.350 OA
ATOM     25  O   UNL     1      -3.093  -1.306   1.318  0.00  0.00    -0.273 OA
ATOM     26  N   UNL     1      -5.173  -0.875   0.382  0.00  0.00    -0.273 N 
ATOM     27  C   UNL     1      -3.804  -1.126   0.327  0.00  0.00    +0.244 C 
ATOM     28  C   UNL     1      -5.854  -0.812   1.675  0.00  0.00    +0.126 C 
ATOM     29  C   UNL     1      -6.069  -0.782  -0.776  0.00  0.00    +0.126 C 
ATOM     30  C   UNL     1      -6.793   0.385   1.723  0.00  0.00    +0.164 C 
ATOM     31  C   UNL     1      -7.003   0.412  -0.625  0.00  0.00    +0.164 C 
ENDBRANCH  22  27
ENDBRANCH   2  22
TORSDOF 5
