REMARK  Name = 16122567
REMARK  6 active torsions:
REMARK  status: ('A' for Active; 'I' for Inactive)
REMARK    1  A    between atoms: C_1  and  C_4
REMARK    2  A    between atoms: C_1  and  C_14
REMARK    3  A    between atoms: C_1  and  P_26
REMARK    4  A    between atoms: N_13  and  C_16
REMARK    5  A    between atoms: P_26  and  O_28
REMARK    6  A    between atoms: P_26  and  O_30
REMARK                            x       y       z     vdW  Elec       q    Type
REMARK                         _______ _______ _______ _____ _____    ______ ____
ROOT
ATOM      1  C   UNL     1       1.389  -1.137   0.368  0.00  0.00    +0.203 C 
ENDROOT
BRANCH   1   4
ATOM      2 CL   UNL     1       4.158   3.381   2.595  0.00  0.00    -0.082 Cl
ATOM      3  S   UNL     1       4.240  -0.392  -2.350  0.00  0.00    -0.087 S 
ATOM      4  C   UNL     1       2.534  -0.628  -0.456  0.00  0.00    +0.005 C 
ATOM      5  C   UNL     1       3.357   0.488  -0.085  0.00  0.00    +0.004 C 
ATOM      6  C   UNL     1       4.344   0.731  -1.045  0.00  0.00    +0.029 C 
ATOM      7  C   UNL     1       2.905  -1.190  -1.655  0.00  0.00    +0.032 C 
ATOM      8  C   UNL     1       3.310   1.328   1.054  0.00  0.00    +0.012 C 
ATOM      9  C   UNL     1       5.274   1.779  -0.897  0.00  0.00    +0.007 C 
ATOM     10  C   UNL     1       4.231   2.369   1.204  0.00  0.00    +0.058 C 
ATOM     11  C   UNL     1       5.201   2.590   0.237  0.00  0.00    +0.012 C 
ENDBRANCH   1   4
BRANCH   1  14
ATOM     12  O   UNL     1       0.056   0.415  -0.877  0.00  0.00    -0.274 OA
ATOM     13  N   UNL     1      -1.010  -0.969   0.700  0.00  0.00    -0.283 N 
ATOM     14  C   UNL     1       0.082  -0.463  -0.020  0.00  0.00    +0.242 C 
ATOM     15  H   UNL     1      -0.805  -1.679   1.350  0.00  0.00    +0.155 HD
BRANCH  13  16
ATOM     16  C   UNL     1      -2.351  -0.593   0.611  0.00  0.00    +0.050 C 
ATOM     17  C   UNL     1      -4.083   0.791  -0.392  0.00  0.00    +0.001 C 
ATOM     18  C   UNL     1      -2.738   0.401  -0.289  0.00  0.00    +0.015 C 
ATOM     19  C   UNL     1      -5.050   0.165   0.430  0.00  0.00    +0.000 C 
ATOM     20  C   UNL     1      -3.302  -1.209   1.419  0.00  0.00    +0.015 C 
ATOM     21  C   UNL     1      -4.642  -0.834   1.330  0.00  0.00    +0.001 C 
ATOM     22  C   UNL     1      -4.490   1.789  -1.292  0.00  0.00    +0.000 C 
ATOM     23  C   UNL     1      -6.395   0.555   0.328  0.00  0.00    +0.000 C 
ATOM     24  C   UNL     1      -5.830   2.165  -1.380  0.00  0.00    +0.000 C 
ATOM     25  C   UNL     1      -6.781   1.549  -0.571  0.00  0.00    +0.000 C 
ENDBRANCH  13  16
ENDBRANCH   1  14
BRANCH   1  26
ATOM     26  P   UNL     1       1.348  -2.941   0.182  0.00  0.00    +0.349 P 
ATOM     27  O   UNL     1       0.704  -3.390  -1.080  0.00  0.00    -0.257 OA
BRANCH  26  28
ATOM     28  O   UNL     1       0.644  -3.409   1.550  0.00  0.00    -0.323 OA
ATOM     29  H   UNL     1       0.568  -4.376   1.561  0.00  0.00    +0.220 HD
ENDBRANCH  26  28
BRANCH  26  30
ATOM     30  O   UNL     1       2.893  -3.339   0.378  0.00  0.00    -0.323 OA
ATOM     31  H   UNL     1       2.993  -4.301   0.298  0.00  0.00    +0.220 HD
ENDBRANCH  26  30
ENDBRANCH   1  26
TORSDOF 6
