REMARK  Name = 4369424
REMARK  8 active torsions:
REMARK  status: ('A' for Active; 'I' for Inactive)
REMARK    1  A    between atoms: C_2  and  C_3
REMARK    2  A    between atoms: C_2  and  C_8
REMARK    3  A    between atoms: C_3  and  C_4
REMARK    4  A    between atoms: C_4  and  C_5
REMARK    5  A    between atoms: C_5  and  C_6
REMARK    6  A    between atoms: C_8  and  P_9
REMARK    7  A    between atoms: P_9  and  O_11
REMARK    8  A    between atoms: P_9  and  O_13
REMARK                            x       y       z     vdW  Elec       q    Type
REMARK                         _______ _______ _______ _____ _____    ______ ____
ROOT
ATOM      1  O   UNL     1       0.570   1.224   0.072  0.00  0.00    -0.295 OA
ATOM      2  C   UNL     1       0.458   0.003  -0.027  0.00  0.00    +0.163 C 
ENDROOT
BRANCH   2   3
ATOM      3  C   UNL     1      -0.891  -0.697  -0.069  0.00  0.00    +0.065 C 
BRANCH   3   4
ATOM      4  C   UNL     1      -2.083   0.257  -0.011  0.00  0.00    +0.008 C 
BRANCH   4   5
ATOM      5  C   UNL     1      -3.425  -0.482  -0.049  0.00  0.00    +0.000 C 
BRANCH   5   6
ATOM      6  C   UNL     1      -4.598   0.495   0.038  0.00  0.00    +0.000 C 
ATOM      7  C   UNL     1      -5.932  -0.234   0.029  0.00  0.00    +0.000 C 
ENDBRANCH   5   6
ENDBRANCH   4   5
ENDBRANCH   3   4
ENDBRANCH   2   3
BRANCH   2   8
ATOM      8  C   UNL     1       1.669  -0.890  -0.152  0.00  0.00    +0.180 C 
BRANCH   8   9
ATOM      9  P   UNL     1       3.242  -0.011  -0.071  0.00  0.00    +0.344 P 
ATOM     10  O   UNL     1       3.414   1.011  -1.141  0.00  0.00    -0.258 OA
BRANCH   9  11
ATOM     11  O   UNL     1       4.314  -1.213  -0.061  0.00  0.00    -0.323 OA
ATOM     12  H   UNL     1       5.211  -0.845  -0.018  0.00  0.00    +0.220 HD
ENDBRANCH   9  11
BRANCH   9  13
ATOM     13  O   UNL     1       3.259   0.537   1.443  0.00  0.00    -0.323 OA
ATOM     14  H   UNL     1       4.078   1.035   1.597  0.00  0.00    +0.220 HD
ENDBRANCH   9  13
ENDBRANCH   8   9
ENDBRANCH   2   8
TORSDOF 8
