REMARK  Name = 18432427
REMARK  5 active torsions:
REMARK  status: ('A' for Active; 'I' for Inactive)
REMARK    1  A    between atoms: C_4  and  C_14
REMARK    2  A    between atoms: C_5  and  C_18
REMARK    3  A    between atoms: C_6  and  N_10
REMARK    4  A    between atoms: C_14  and  O_15
REMARK    5  A    between atoms: C_18  and  O_19
REMARK                            x       y       z     vdW  Elec       q    Type
REMARK                         _______ _______ _______ _____ _____    ______ ____
ROOT
ATOM      1 BR   UNL     1      -0.001   2.871   0.000  0.00  0.00    -0.049 Br
ATOM      2 BR   UNL     1       2.862  -2.091  -0.050  0.00  0.00    -0.047 Br
ATOM      3 BR   UNL     1      -2.862  -2.091   0.050  0.00  0.00    -0.047 Br
ATOM      4  C   UNL     1      -1.208   0.261   0.020  0.00  0.00    +0.089 A 
ATOM      5  C   UNL     1       1.208   0.262  -0.020  0.00  0.00    +0.089 A 
ATOM      6  C   UNL     1       0.000  -1.831   0.000  0.00  0.00    +0.055 A 
ATOM      7  C   UNL     1       0.000   0.959   0.000  0.00  0.00    +0.048 A 
ATOM      8  C   UNL     1       1.208  -1.133  -0.021  0.00  0.00    +0.055 A 
ATOM      9  C   UNL     1      -1.208  -1.134   0.020  0.00  0.00    +0.055 A 
ENDROOT
BRANCH   6  10
ATOM     10  N   UNL     1       0.001  -3.248  -0.001  0.00  0.00    -0.356 N 
ATOM     11  H   UNL     1       0.853  -3.740  -0.015  0.00  0.00    +0.142 HD
ATOM     12  H   UNL     1      -0.852  -3.740   0.013  0.00  0.00    +0.142 HD
ENDBRANCH   6  10
BRANCH   4  14
ATOM     13  O   UNL     1      -3.070   1.345   1.059  0.00  0.00    -0.245 OA
ATOM     14  C   UNL     1      -2.475   0.992   0.042  0.00  0.00    +0.339 C 
BRANCH  14  15
ATOM     15  O   UNL     1      -2.939   1.250  -1.208  0.00  0.00    -0.477 OA
ATOM     16  H   UNL     1      -2.453   0.962  -1.956  0.00  0.00    +0.295 HD
ENDBRANCH  14  15
ENDBRANCH   4  14
BRANCH   5  18
ATOM     17  O   UNL     1       3.070   1.346  -1.059  0.00  0.00    -0.245 OA
ATOM     18  C   UNL     1       2.475   0.993  -0.042  0.00  0.00    +0.339 C 
BRANCH  18  19
ATOM     19  O   UNL     1       2.939   1.250   1.208  0.00  0.00    -0.477 OA
ATOM     20  H   UNL     1       2.453   0.963   1.956  0.00  0.00    +0.295 HD
ENDBRANCH  18  19
ENDBRANCH   5  18
TORSDOF 5
