REMARK  Name = 10267580
REMARK  2 active torsions:
REMARK  status: ('A' for Active; 'I' for Inactive)
REMARK    1  A    between atoms: N_1  and  C_21
REMARK    2  A    between atoms: C_7  and  C_14
REMARK                            x       y       z     vdW  Elec       q    Type
REMARK                         _______ _______ _______ _____ _____    ______ ____
ROOT
ATOM      1  N   UNL     1      -2.390   0.514   0.385  0.00  0.00    -0.290 N 
ATOM      2  N   UNL     1      -0.147  -0.183   0.247  0.00  0.00    -0.327 NA
ATOM      3  N   UNL     1       1.623   1.423  -0.055  0.00  0.00    -0.342 NA
ATOM      4  C   UNL     1      -0.650   2.175   0.081  0.00  0.00    +0.143 C 
ATOM      5  C   UNL     1      -1.020   0.842   0.233  0.00  0.00    +0.184 C 
ATOM      6  C   UNL     1       0.725   2.424  -0.064  0.00  0.00    +0.133 C 
ATOM      7  C   UNL     1       1.139   0.175   0.100  0.00  0.00    +0.165 C 
ATOM      8  C   UNL     1      -1.581   3.229   0.069  0.00  0.00    -0.011 C 
ATOM      9  C   UNL     1       1.133   3.746  -0.219  0.00  0.00    +0.029 C 
ATOM     10  C   UNL     1      -1.144   4.541  -0.088  0.00  0.00    -0.004 C 
ATOM     11  C   UNL     1       0.214   4.799  -0.232  0.00  0.00    +0.002 C 
ATOM     12  H   UNL     1      -2.971   1.235   0.721  0.00  0.00    +0.154 HD
ENDROOT
BRANCH   7  14
ATOM     13  N   UNL     1       3.394  -0.499  -0.042  0.00  0.00    -0.398 NA
ATOM     14  C   UNL     1       2.107  -0.891   0.109  0.00  0.00    +0.197 C 
ATOM     15  C   UNL     1       1.716  -2.214   0.263  0.00  0.00    +0.098 C 
ATOM     16  C   UNL     1       4.327  -1.478  -0.039  0.00  0.00    +0.110 C 
ATOM     17  C   UNL     1       2.705  -3.192   0.261  0.00  0.00    -0.016 C 
ATOM     18  C   UNL     1       4.037  -2.825   0.108  0.00  0.00    +0.023 C 
ATOM     19  C   UNL     1       5.746  -1.048  -0.205  0.00  0.00    +0.066 C 
ENDBRANCH   7  14
BRANCH   1  21
ATOM     20  N   UNL     1      -4.292  -3.148  -0.422  0.00  0.00    -0.242 NA
ATOM     21  C   UNL     1      -3.015  -0.690   0.119  0.00  0.00    +0.053 C 
ATOM     22  C   UNL     1      -4.057  -1.161   0.935  0.00  0.00    +0.035 C 
ATOM     23  C   UNL     1      -2.630  -1.482  -0.974  0.00  0.00    +0.035 C 
ATOM     24  C   UNL     1      -4.651  -2.374   0.627  0.00  0.00    +0.100 C 
ATOM     25  C   UNL     1      -3.288  -2.681  -1.197  0.00  0.00    +0.100 C 
ENDBRANCH   1  21
TORSDOF 2
