REMARK  Name = 6540268
REMARK  6 active torsions:
REMARK  status: ('A' for Active; 'I' for Inactive)
REMARK    1  A    between atoms: N_1  and  C_24
REMARK    2  A    between atoms: C_2  and  C_12
REMARK    3  A    between atoms: N_11  and  C_15
REMARK    4  A    between atoms: N_14  and  C_21
REMARK    5  A    between atoms: C_24  and  C_27
REMARK    6  A    between atoms: N_26  and  C_30
REMARK                            x       y       z     vdW  Elec       q    Type
REMARK                         _______ _______ _______ _____ _____    ______ ____
ROOT
ATOM      1  N   UNL     1       0.499   1.674   0.591  0.00  0.00    -0.275 N 
ATOM      2  C   UNL     1      -0.699   1.169   0.237  0.00  0.00    +0.106 C 
ATOM      3  C   UNL     1       0.551   2.997   0.214  0.00  0.00    +0.052 C 
ATOM      4  C   UNL     1      -1.455   2.114  -0.367  0.00  0.00    +0.021 C 
ATOM      5  C   UNL     1      -0.669   3.300  -0.393  0.00  0.00    +0.015 C 
ATOM      6  C   UNL     1       1.575   3.939   0.363  0.00  0.00    +0.015 C 
ATOM      7  C   UNL     1      -0.881   4.607  -0.876  0.00  0.00    +0.001 C 
ATOM      8  C   UNL     1       1.343   5.229  -0.124  0.00  0.00    +0.001 C 
ATOM      9  C   UNL     1       0.135   5.560  -0.734  0.00  0.00    +0.000 C 
ENDROOT
BRANCH   2  12
ATOM     10  O   UNL     1      -0.276  -1.148   0.501  0.00  0.00    -0.269 OA
ATOM     11  N   UNL     1      -2.455  -0.443   0.687  0.00  0.00    -0.302 N 
ATOM     12  C   UNL     1      -1.093  -0.225   0.490  0.00  0.00    +0.260 C 
ATOM     13  H   UNL     1      -3.068   0.327   0.670  0.00  0.00    +0.150 HD
BRANCH  11  15
ATOM     14  N   UNL     1      -5.740  -1.881  -0.135  0.00  0.00    +0.388 N 
ATOM     15  C   UNL     1      -2.997  -1.763   0.916  0.00  0.00    +0.068 C 
ATOM     16  C   UNL     1      -3.346  -2.453  -0.405  0.00  0.00    -0.003 C 
ATOM     17  C   UNL     1      -4.231  -1.704   1.820  0.00  0.00    -0.003 C 
ATOM     18  C   UNL     1      -4.596  -1.853  -1.056  0.00  0.00    -0.076 C 
ATOM     19  C   UNL     1      -5.451  -1.129   1.094  0.00  0.00    -0.076 C 
ATOM     20  H   UNL     1      -5.910  -2.852   0.124  0.00  0.00    -0.080 HD
BRANCH  14  21
ATOM     21  C   UNL     1      -6.937  -1.353  -0.789  0.00  0.00    -0.058 C 
ATOM     22  C   UNL     1      -7.242  -2.180  -2.034  0.00  0.00    -0.023 C 
ATOM     23  C   UNL     1      -8.117  -1.364   0.179  0.00  0.00    -0.023 C 
ENDBRANCH  14  21
ENDBRANCH  11  15
ENDBRANCH   2  12
BRANCH   1  24
ATOM     24  C   UNL     1       1.567   0.959   1.258  0.00  0.00    +0.181 C 
BRANCH  24  27
ATOM     25  O   UNL     1       2.381   0.361  -0.928  0.00  0.00    -0.273 OA
ATOM     26  N   UNL     1       3.537  -0.365   0.983  0.00  0.00    -0.283 N 
ATOM     27  C   UNL     1       2.527   0.294   0.288  0.00  0.00    +0.247 C 
ATOM     28  H   UNL     1       3.494  -0.313   1.966  0.00  0.00    +0.155 HD
BRANCH  26  30
ATOM     29 CL   UNL     1       8.048  -3.437  -1.274  0.00  0.00    -0.082 Cl
ATOM     30  C   UNL     1       4.618  -1.101   0.442  0.00  0.00    +0.050 C 
ATOM     31  C   UNL     1       5.531  -1.693   1.300  0.00  0.00    +0.016 C 
ATOM     32  C   UNL     1       4.740  -1.214  -0.933  0.00  0.00    +0.016 C 
ATOM     33  C   UNL     1       6.596  -2.419   0.766  0.00  0.00    +0.013 C 
ATOM     34  C   UNL     1       5.805  -1.939  -1.466  0.00  0.00    +0.013 C 
ATOM     35  C   UNL     1       6.734  -2.542  -0.617  0.00  0.00    +0.058 C 
ENDBRANCH  26  30
ENDBRANCH  24  27
ENDBRANCH   1  24
TORSDOF 6
