REMARK  Name = 11332763
REMARK  3 active torsions:
REMARK  status: ('A' for Active; 'I' for Inactive)
REMARK    1  A    between atoms: C_2  and  C_7
REMARK    2  A    between atoms: C_3  and  C_12
REMARK    3  A    between atoms: C_12  and  N_13
REMARK                            x       y       z     vdW  Elec       q    Type
REMARK                         _______ _______ _______ _____ _____    ______ ____
ROOT
ATOM      1  O   UNL     1       1.155   0.449  -0.240  0.00  0.00    -0.460 OA
ATOM      2  C   UNL     1       0.277  -0.568  -0.051  0.00  0.00    +0.146 C 
ATOM      3  C   UNL     1       2.394  -0.109  -0.252  0.00  0.00    +0.101 C 
ATOM      4  C   UNL     1       0.934  -1.767   0.059  0.00  0.00    +0.040 C 
ATOM      5  C   UNL     1       2.312  -1.470  -0.071  0.00  0.00    +0.034 C 
ENDROOT
BRANCH   2   7
ATOM      6  N   UNL     1      -2.769   1.574  -0.125  0.00  0.00    -0.242 NA
ATOM      7  C   UNL     1      -1.110  -0.181  -0.008  0.00  0.00    +0.054 C 
ATOM      8  C   UNL     1      -2.112  -1.126   0.181  0.00  0.00    +0.006 C 
ATOM      9  C   UNL     1      -1.487   1.144  -0.154  0.00  0.00    +0.102 C 
ATOM     10  C   UNL     1      -3.442  -0.723   0.217  0.00  0.00    +0.021 C 
ATOM     11  C   UNL     1      -3.716   0.626   0.061  0.00  0.00    +0.099 C 
ENDBRANCH   2   7
BRANCH   3  12
ATOM     12  C   UNL     1       3.522   0.813  -0.446  0.00  0.00    -0.020 C 
BRANCH  12  13
ATOM     13  N   UNL     1       4.042   1.337   0.828  0.00  0.00    +0.385 N 
ATOM     14  H   UNL     1       4.820   1.970   0.643  0.00  0.00    -0.089 HD
ATOM     15  H   UNL     1       4.364   0.563   1.409  0.00  0.00    -0.089 HD
ATOM     16  H   UNL     1       3.302   1.843   1.316  0.00  0.00    -0.089 HD
ENDBRANCH  12  13
ENDBRANCH   3  12
TORSDOF 3
