REMARK  Name = 3783853
REMARK  4 active torsions:
REMARK  status: ('A' for Active; 'I' for Inactive)
REMARK    1  A    between atoms: C_1  and  N_12
REMARK    2  A    between atoms: C_4  and  C_10
REMARK    3  A    between atoms: C_13  and  C_15
REMARK    4  A    between atoms: C_15  and  C_19
REMARK                            x       y       z     vdW  Elec       q    Type
REMARK                         _______ _______ _______ _____ _____    ______ ____
ROOT
ATOM      1  C   UNL     1       0.004  -0.356   0.181  0.00  0.00    +0.050 C 
ATOM      2  C   UNL     1       0.811  -1.479   0.233  0.00  0.00    +0.015 C 
ATOM      3  C   UNL     1       0.539   0.914   0.040  0.00  0.00    +0.015 C 
ATOM      4  C   UNL     1       2.751  -0.058   0.000  0.00  0.00    +0.072 C 
ATOM      5  C   UNL     1       2.195  -1.329   0.142  0.00  0.00    +0.005 C 
ATOM      6  C   UNL     1       1.923   1.064  -0.051  0.00  0.00    +0.005 C 
ENDROOT
BRANCH   4  10
ATOM      7  F   UNL     1       4.915  -1.077  -0.033  0.00  0.00    -0.166 F 
ATOM      8  F   UNL     1       4.641   0.690  -1.260  0.00  0.00    -0.166 F 
ATOM      9  F   UNL     1       4.741   0.877   0.904  0.00  0.00    -0.166 F 
ATOM     10  C   UNL     1       4.230   0.103  -0.097  0.00  0.00    +0.419 C 
ENDBRANCH   4  10
BRANCH   1  12
ATOM     11  O   UNL     1      -2.159   1.696   0.126  0.00  0.00    -0.275 OA
ATOM     12  N   UNL     1      -1.401  -0.508   0.273  0.00  0.00    -0.284 N 
ATOM     13  C   UNL     1      -2.370   0.490   0.241  0.00  0.00    +0.226 C 
ATOM     14  H   UNL     1      -1.731  -1.430   0.372  0.00  0.00    +0.155 HD
BRANCH  13  15
ATOM     15  C   UNL     1      -3.816  -0.057   0.370  0.00  0.00    +0.084 C 
ATOM     16  C   UNL     1      -3.953  -0.806   1.710  0.00  0.00    +0.010 C 
ATOM     17  C   UNL     1      -4.812   1.122   0.395  0.00  0.00    +0.010 C 
BRANCH  15  19
ATOM     18 CL   UNL     1      -4.071  -0.262  -2.393  0.00  0.00    -0.113 Cl
ATOM     19  C   UNL     1      -4.166  -1.025  -0.783  0.00  0.00    +0.103 C 
ENDBRANCH  15  19
ENDBRANCH  13  15
ENDBRANCH   1  12
TORSDOF 4
