REMARK  Name = 5282031
REMARK  2 active torsions:
REMARK  status: ('A' for Active; 'I' for Inactive)
REMARK    1  A    between atoms: C_5  and  O_19
REMARK    2  A    between atoms: C_10  and  C_21
REMARK                            x       y       z     vdW  Elec       q    Type
REMARK                         _______ _______ _______ _____ _____    ______ ____
ROOT
ATOM      1  O   UNL     1       1.546   0.705  -0.424  0.00  0.00    -0.452 OA
ATOM      2  O   UNL     1       1.131   2.062   1.397  0.00  0.00    -0.250 OA
ATOM      3  O   UNL     1      -1.544  -3.007   1.370  0.00  0.00    -0.291 OA
ATOM      4  C   UNL     1      -2.034   0.762   0.601  0.00  0.00    +0.028 C 
ATOM      5  C   UNL     1      -1.589   2.188   0.157  0.00  0.00    +0.121 C 
ATOM      6  C   UNL     1      -2.437  -0.136  -0.596  0.00  0.00    +0.010 C 
ATOM      7  C   UNL     1      -0.241   2.233  -0.599  0.00  0.00    +0.126 C 
ATOM      8  C   UNL     1      -2.674  -1.622  -0.245  0.00  0.00    +0.062 C 
ATOM      9  C   UNL     1      -3.202   0.883   1.593  0.00  0.00    +0.003 C 
ATOM     10  C   UNL     1       2.540  -0.074   0.286  0.00  0.00    +0.173 C 
ATOM     11  C   UNL     1       2.338  -1.567  -0.079  0.00  0.00    +0.062 C 
ATOM     12  C   UNL     1       0.884   1.681   0.260  0.00  0.00    +0.319 C 
ATOM     13  C   UNL     1       0.149   3.651  -1.022  0.00  0.00    +0.014 C 
ATOM     14  C   UNL     1      -1.449  -2.306   0.363  0.00  0.00    +0.172 C 
ATOM     15  C   UNL     1      -3.134  -2.407  -1.474  0.00  0.00    +0.008 C 
ATOM     16  C   UNL     1       0.973  -1.992   0.433  0.00  0.00    -0.020 C 
ATOM     17  C   UNL     1      -0.138  -2.099  -0.308  0.00  0.00    +0.033 C 
ATOM     18  C   UNL     1       2.562  -1.858  -1.569  0.00  0.00    +0.008 C 
ENDROOT
BRANCH   5  19
ATOM     19  O   UNL     1      -2.620   2.755  -0.652  0.00  0.00    -0.384 OA
ATOM     20  H   UNL     1      -3.463   2.724  -0.172  0.00  0.00    +0.210 HD
ENDBRANCH   5  19
BRANCH  10  21
ATOM     21  C   UNL     1       3.917   0.465  -0.086  0.00  0.00    +0.044 C 
ATOM     22  C   UNL     1       5.023  -0.319   0.595  0.00  0.00    +0.004 C 
ENDBRANCH  10  21
TORSDOF 2
