REMARK  Name = 5288017
REMARK  6 active torsions:
REMARK  status: ('A' for Active; 'I' for Inactive)
REMARK    1  A    between atoms: C_4  and  C_15
REMARK    2  A    between atoms: C_10  and  N_22
REMARK    3  A    between atoms: C_23  and  C_25
REMARK    4  A    between atoms: C_25  and  N_26
REMARK    5  A    between atoms: C_27  and  C_33
REMARK    6  A    between atoms: C_33  and  N_34
REMARK                            x       y       z     vdW  Elec       q    Type
REMARK                         _______ _______ _______ _____ _____    ______ ____
ROOT
ATOM      1  O   UNL     1       1.470  -0.902  -0.401  0.00  0.00    -0.286 OA
ATOM      2  N   UNL     1       5.356   1.029   0.635  0.00  0.00    -0.280 N 
ATOM      3  N   UNL     1       4.718   2.232   0.675  0.00  0.00    -0.173 NA
ATOM      4  C   UNL     1       4.544  -0.044   0.326  0.00  0.00    +0.056 A 
ATOM      5  C   UNL     1       3.313   0.509   0.158  0.00  0.00    +0.071 A 
ATOM      6  C   UNL     1       3.474   1.885   0.380  0.00  0.00    +0.105 A 
ATOM      7  C   UNL     1       1.948   0.186  -0.157  0.00  0.00    +0.199 C 
ATOM      8  C   UNL     1       1.261   1.525  -0.108  0.00  0.00    +0.054 C 
ATOM      9  C   UNL     1       2.209   2.534   0.219  0.00  0.00    +0.024 C 
ATOM     10  C   UNL     1      -0.051   1.835  -0.326  0.00  0.00    +0.053 C 
ATOM     11  C   UNL     1       1.845   3.856   0.330  0.00  0.00    +0.002 C 
ATOM     12  C   UNL     1      -0.443   3.161  -0.220  0.00  0.00    +0.015 C 
ATOM     13  C   UNL     1       0.498   4.164   0.106  0.00  0.00    +0.001 C 
ATOM     14  H   UNL     1       6.319   0.932   0.813  0.00  0.00    +0.189 HD
ENDROOT
BRANCH   4  15
ATOM     15  C   UNL     1       5.067  -1.470   0.233  0.00  0.00    +0.040 C 
ATOM     16  C   UNL     1       4.418  -2.387   1.283  0.00  0.00    +0.006 C 
ATOM     17  C   UNL     1       4.907  -2.047  -1.184  0.00  0.00    +0.006 C 
ATOM     18  C   UNL     1       4.956  -3.814   1.187  0.00  0.00    +0.000 C 
ATOM     19  C   UNL     1       5.443  -3.475  -1.268  0.00  0.00    +0.000 C 
ATOM     20  C   UNL     1       4.800  -4.381  -0.222  0.00  0.00    +0.000 C 
ENDBRANCH   4  15
BRANCH  10  22
ATOM     21  O   UNL     1      -2.993   2.072  -0.869  0.00  0.00    -0.277 OA
ATOM     22  N   UNL     1      -1.006   0.842  -0.651  0.00  0.00    -0.286 N 
ATOM     23  C   UNL     1      -2.366   1.018  -0.896  0.00  0.00    +0.205 C 
ATOM     24  H   UNL     1      -0.669  -0.081  -0.713  0.00  0.00    +0.155 HD
BRANCH  23  25
ATOM     25  C   UNL     1      -3.020  -0.316  -1.210  0.00  0.00    +0.010 C 
BRANCH  25  26
ATOM     26  N   UNL     1      -4.414  -0.291  -0.766  0.00  0.00    +0.393 N 
ATOM     27  C   UNL     1      -6.723  -1.232   0.777  0.00  0.00    -0.026 C 
ATOM     28  C   UNL     1      -5.941   0.031   1.154  0.00  0.00    -0.025 C 
ATOM     29  C   UNL     1      -6.567  -1.510  -0.722  0.00  0.00    -0.025 C 
ATOM     30  C   UNL     1      -4.488  -0.051   0.682  0.00  0.00    -0.077 C 
ATOM     31  C   UNL     1      -5.093  -1.542  -1.131  0.00  0.00    -0.077 C 
ATOM     32  H   UNL     1      -4.893   0.476  -1.237  0.00  0.00    -0.079 HD
BRANCH  27  33
ATOM     33  C   UNL     1      -8.194  -1.102   1.161  0.00  0.00    -0.086 C 
BRANCH  33  34
ATOM     34  N   UNL     1      -8.928  -2.313   0.824  0.00  0.00    +0.380 N 
ATOM     35  H   UNL     1      -9.906  -2.202   1.089  0.00  0.00    -0.089 HD
ATOM     36  H   UNL     1      -8.527  -3.105   1.327  0.00  0.00    -0.089 HD
ATOM     37  H   UNL     1      -8.865  -2.480  -0.180  0.00  0.00    -0.089 HD
ENDBRANCH  33  34
ENDBRANCH  27  33
ENDBRANCH  25  26
ENDBRANCH  23  25
ENDBRANCH  10  22
TORSDOF 6
