REMARK  Name = 3383616
REMARK  10 active torsions:
REMARK  status: ('A' for Active; 'I' for Inactive)
REMARK    1  A    between atoms: C_1  and  C_2
REMARK    2  A    between atoms: C_1  and  C_9
REMARK    3  A    between atoms: C_2  and  C_3
REMARK    4  A    between atoms: C_3  and  C_4
REMARK    5  A    between atoms: C_4  and  C_5
REMARK    6  A    between atoms: C_5  and  C_6
REMARK    7  A    between atoms: C_6  and  C_7
REMARK    8  A    between atoms: C_9  and  C_10
REMARK    9  A    between atoms: C_11  and  C_12
REMARK   10  A    between atoms: C_12  and  S_13
REMARK                            x       y       z     vdW  Elec       q    Type
REMARK                         _______ _______ _______ _____ _____    ______ ____
ROOT
ATOM      1  C   UNL     1      -0.299  -0.641  -0.068  0.00  0.00    +0.005 C 
ENDROOT
BRANCH   1   2
ATOM      2  C   UNL     1      -1.536   0.261  -0.099  0.00  0.00    +0.000 C 
BRANCH   2   3
ATOM      3  C   UNL     1      -2.856  -0.514  -0.049  0.00  0.00    +0.000 C 
BRANCH   3   4
ATOM      4  C   UNL     1      -4.093   0.386  -0.106  0.00  0.00    +0.000 C 
BRANCH   4   5
ATOM      5  C   UNL     1      -5.380  -0.433   0.020  0.00  0.00    +0.000 C 
BRANCH   5   6
ATOM      6  C   UNL     1      -6.616   0.468   0.002  0.00  0.00    +0.000 C 
BRANCH   6   7
ATOM      7  C   UNL     1      -7.902  -0.352   0.094  0.00  0.00    +0.000 C 
ATOM      8  C   UNL     1      -9.132   0.541   0.110  0.00  0.00    +0.000 C 
ENDBRANCH   6   7
ENDBRANCH   5   6
ENDBRANCH   4   5
ENDBRANCH   3   4
ENDBRANCH   2   3
ENDBRANCH   1   2
BRANCH   1   9
ATOM      9  C   UNL     1       0.988   0.186  -0.092  0.00  0.00    +0.026 C 
BRANCH   9  10
ATOM     10  C   UNL     1       2.259  -0.660   0.030  0.00  0.00    -0.029 C 
ATOM     11  C   UNL     1       3.585   0.103  -0.069  0.00  0.00    -0.005 C 
BRANCH  11  12
ATOM     12  C   UNL     1       4.841  -0.739   0.111  0.00  0.00    +0.184 C 
BRANCH  12  13
ATOM     13  S   UNL     1       6.324   0.212   0.039  0.00  0.00    +0.027 S 
ATOM     14  O   UNL     1       6.167   1.162   1.141  0.00  0.00    -0.069 OA
ATOM     15  O   UNL     1       7.373  -0.788   0.233  0.00  0.00    -0.069 OA
ATOM     16  O   UNL     1       6.277   0.806  -1.297  0.00  0.00    -0.069 OA
ENDBRANCH  12  13
ENDBRANCH  11  12
ENDBRANCH   9  10
ENDBRANCH   1   9
TORSDOF 10
