REMARK  Name = 24941254
REMARK  6 active torsions:
REMARK  status: ('A' for Active; 'I' for Inactive)
REMARK    1  A    between atoms: C_1  and  S_21
REMARK    2  A    between atoms: C_4  and  C_9
REMARK    3  A    between atoms: N_8  and  C_11
REMARK    4  A    between atoms: C_12  and  C_18
REMARK    5  A    between atoms: C_18  and  O_19
REMARK    6  A    between atoms: S_21  and  N_24
REMARK                            x       y       z     vdW  Elec       q    Type
REMARK                         _______ _______ _______ _____ _____    ______ ____
ROOT
ATOM      1  C   UNL     1      -1.239  -2.452   0.388  0.00  0.00    +0.122 C 
ATOM      2  C   UNL     1       0.063  -1.955   0.330  0.00  0.00    +0.024 C 
ATOM      3  C   UNL     1      -1.681  -3.361  -0.574  0.00  0.00    +0.020 C 
ATOM      4  C   UNL     1       0.922  -2.366  -0.689  0.00  0.00    +0.055 C 
ATOM      5  C   UNL     1      -0.822  -3.772  -1.593  0.00  0.00    +0.002 C 
ATOM      6  C   UNL     1       0.480  -3.274  -1.650  0.00  0.00    +0.005 C 
ENDROOT
BRANCH   4   9
ATOM      7  O   UNL     1       3.160  -2.525  -1.304  0.00  0.00    -0.270 OA
ATOM      8  N   UNL     1       2.478  -0.582  -0.180  0.00  0.00    -0.280 N 
ATOM      9  C   UNL     1       2.280  -1.848  -0.749  0.00  0.00    +0.250 C 
ATOM     10  H   UNL     1       1.683  -0.166   0.225  0.00  0.00    +0.155 HD
BRANCH   8  11
ATOM     11  C   UNL     1       3.671   0.178  -0.113  0.00  0.00    +0.057 C 
ATOM     12  C   UNL     1       3.690   1.434   0.494  0.00  0.00    +0.089 C 
ATOM     13  C   UNL     1       4.839  -0.347  -0.666  0.00  0.00    +0.015 C 
ATOM     14  C   UNL     1       4.878   2.164   0.548  0.00  0.00    +0.008 C 
ATOM     15  C   UNL     1       6.026   0.384  -0.613  0.00  0.00    +0.001 C 
ATOM     16  C   UNL     1       6.045   1.639  -0.006  0.00  0.00    +0.000 C 
BRANCH  12  18
ATOM     17  O   UNL     1       1.560   1.371   1.580  0.00  0.00    -0.245 OA
ATOM     18  C   UNL     1       2.488   2.012   1.082  0.00  0.00    +0.339 C 
BRANCH  18  19
ATOM     19  O   UNL     1       2.488   3.371   1.027  0.00  0.00    -0.477 OA
ATOM     20  H   UNL     1       3.211   3.824   0.640  0.00  0.00    +0.295 HD
ENDBRANCH  18  19
ENDBRANCH  12  18
ENDBRANCH   8  11
ENDBRANCH   4   9
BRANCH   1  21
ATOM     21  S   UNL     1      -2.328  -1.931   1.676  0.00  0.00    +0.064 S 
ATOM     22  O   UNL     1      -3.334  -2.958   1.847  0.00  0.00    -0.153 OA
ATOM     23  O   UNL     1      -1.518  -1.489   2.792  0.00  0.00    -0.153 OA
BRANCH  21  24
ATOM     24  N   UNL     1      -3.042  -0.565   0.931  0.00  0.00    -0.151 NA
ATOM     25  C   UNL     1      -4.032  -0.854  -0.141  0.00  0.00    +0.101 C 
ATOM     26  C   UNL     1      -2.093   0.520   0.537  0.00  0.00    +0.122 C 
ATOM     27  C   UNL     1      -4.904   0.381  -0.348  0.00  0.00    +0.045 C 
ATOM     28  C   UNL     1      -2.756   1.702  -0.129  0.00  0.00    -0.008 C 
ATOM     29  C   UNL     1      -4.085   1.625  -0.581  0.00  0.00    -0.023 C 
ATOM     30  C   UNL     1      -2.023   2.878  -0.336  0.00  0.00    -0.003 C 
ATOM     31  C   UNL     1      -4.669   2.738  -1.201  0.00  0.00    -0.004 C 
ATOM     32  C   UNL     1      -2.610   3.976  -0.965  0.00  0.00    -0.000 C 
ATOM     33  C   UNL     1      -3.933   3.906  -1.395  0.00  0.00    -0.000 C 
ENDBRANCH  21  24
ENDBRANCH   1  21
TORSDOF 6
