REMARK  Name = 10411846
REMARK  5 active torsions:
REMARK  status: ('A' for Active; 'I' for Inactive)
REMARK    1  A    between atoms: C_2  and  S_17
REMARK    2  A    between atoms: C_3  and  C_11
REMARK    3  A    between atoms: C_4  and  S_25
REMARK    4  A    between atoms: S_17  and  C_19
REMARK    5  A    between atoms: S_25  and  C_29
REMARK                            x       y       z     vdW  Elec       q    Type
REMARK                         _______ _______ _______ _____ _____    ______ ____
ROOT
ATOM      1  N   UNL     1      -1.376   0.555  -1.305  0.00  0.00    -0.394 NA
ATOM      2  C   UNL     1       0.810   1.399  -1.877  0.00  0.00    +0.060 C 
ATOM      3  C   UNL     1      -0.053   0.380  -1.519  0.00  0.00    +0.191 C 
ATOM      4  C   UNL     1      -1.848   1.813  -1.459  0.00  0.00    +0.145 C 
ATOM      5  C   UNL     1       0.293   2.678  -2.027  0.00  0.00    -0.009 C 
ATOM      6  C   UNL     1      -1.063   2.897  -1.815  0.00  0.00    +0.093 C 
ENDROOT
BRANCH   3  11
ATOM      7  S   UNL     1      -1.187  -3.699   1.119  0.00  0.00    -0.060 S 
ATOM      8  O   UNL     1       1.344  -1.407  -2.019  0.00  0.00    -0.267 OA
ATOM      9  N   UNL     1      -0.329  -1.745  -0.403  0.00  0.00    -0.249 N 
ATOM     10  N   UNL     1       0.777  -3.880  -0.552  0.00  0.00    -0.388 NA
ATOM     11  C   UNL     1       0.395  -0.995  -1.337  0.00  0.00    +0.282 C 
ATOM     12  C   UNL     1      -0.124  -3.086  -0.062  0.00  0.00    +0.213 C 
ATOM     13  C   UNL     1       0.631  -5.112   0.057  0.00  0.00    +0.101 C 
ATOM     14  C   UNL     1      -0.379  -5.207   0.990  0.00  0.00    +0.120 C 
ATOM     15  C   UNL     1       1.549  -6.199  -0.335  0.00  0.00    +0.063 C 
ATOM     16  H   UNL     1      -1.060  -1.279   0.064  0.00  0.00    +0.158 HD
ENDBRANCH   3  11
BRANCH   2  17
ATOM     17  S   UNL     1       2.556   1.134  -2.154  0.00  0.00    -0.085 S 
BRANCH  17  19
ATOM     18  F   UNL     1       4.735   2.042   3.266  0.00  0.00    -0.204 F 
ATOM     19  C   UNL     1       3.213   1.408  -0.520  0.00  0.00    +0.030 C 
ATOM     20  C   UNL     1       3.331   0.341   0.372  0.00  0.00    +0.009 C 
ATOM     21  C   UNL     1       3.608   2.688  -0.133  0.00  0.00    +0.009 C 
ATOM     22  C   UNL     1       3.846   0.556   1.651  0.00  0.00    +0.030 C 
ATOM     23  C   UNL     1       4.122   2.902   1.146  0.00  0.00    +0.030 C 
ATOM     24  C   UNL     1       4.241   1.836   2.038  0.00  0.00    +0.140 C 
ENDBRANCH  17  19
ENDBRANCH   2  17
BRANCH   4  25
ATOM     25  S   UNL     1      -3.594   2.049  -1.177  0.00  0.00    -0.023 S 
BRANCH  25  29
ATOM     26  N   UNL     1      -4.868   0.978   0.978  0.00  0.00    -0.246 N 
ATOM     27  N   UNL     1      -2.821   1.627   1.399  0.00  0.00    -0.124 NA
ATOM     28  N   UNL     1      -3.360   1.105   2.558  0.00  0.00    -0.128 NA
ATOM     29  C   UNL     1      -3.745   1.524   0.524  0.00  0.00    +0.191 C 
ATOM     30  C   UNL     1      -6.117   0.695   0.313  0.00  0.00    +0.121 C 
ATOM     31  C   UNL     1      -4.587   0.722   2.285  0.00  0.00    +0.193 C 
ENDBRANCH  25  29
ENDBRANCH   4  25
TORSDOF 5
