REMARK  Name = 1723
REMARK  9 active torsions:
REMARK  status: ('A' for Active; 'I' for Inactive)
REMARK    1  A    between atoms: S_1  and  C_2
REMARK    2  A    between atoms: S_1  and  C_18
REMARK    3  A    between atoms: C_2  and  C_5
REMARK    4  A    between atoms: C_6  and  N_15
REMARK    5  A    between atoms: C_18  and  C_20
REMARK    6  A    between atoms: C_19  and  C_25
REMARK    7  A    between atoms: C_25  and  C_29
REMARK    8  A    between atoms: C_25  and  O_30
REMARK    9  A    between atoms: C_25  and  O_32
REMARK                            x       y       z     vdW  Elec       q    Type
REMARK                         _______ _______ _______ _____ _____    ______ ____
ROOT
ATOM      1  S   UNL     1      -0.143  -0.543  -0.363  0.00  0.00    -0.131 S 
ENDROOT
BRANCH   1   2
ATOM      2  C   UNL     1      -1.516  -0.532  -1.555  0.00  0.00    +0.087 C 
BRANCH   2   5
ATOM      3  F   UNL     1      -5.702  -2.235   1.025  0.00  0.00    -0.208 F 
ATOM      4  N   UNL     1      -4.128   2.010  -0.596  0.00  0.00    -0.410 NA
ATOM      5  C   UNL     1      -2.763   0.057  -0.984  0.00  0.00    +0.024 C 
ATOM      6  C   UNL     1      -3.704  -0.727  -0.332  0.00  0.00    +0.030 C 
ATOM      7  C   UNL     1      -4.865  -0.144   0.193  0.00  0.00    +0.137 C 
ATOM      8  C   UNL     1      -3.021   1.409  -1.089  0.00  0.00    +0.107 C 
ATOM      9  C   UNL     1      -5.039   1.247   0.037  0.00  0.00    +0.120 C 
ATOM     10  C   UNL     1      -5.837  -0.911   0.859  0.00  0.00    +0.129 C 
ATOM     11  C   UNL     1      -2.051   2.313  -1.778  0.00  0.00    +0.066 C 
ATOM     12  C   UNL     1      -6.193   1.825   0.559  0.00  0.00    +0.028 C 
ATOM     13  C   UNL     1      -6.981  -0.306   1.371  0.00  0.00    +0.026 C 
ATOM     14  C   UNL     1      -7.159   1.063   1.221  0.00  0.00    +0.004 C 
BRANCH   6  15
ATOM     15  N   UNL     1      -3.454  -2.117  -0.217  0.00  0.00    -0.360 N 
ATOM     16  H   UNL     1      -2.630  -2.502  -0.594  0.00  0.00    +0.142 HD
ATOM     17  H   UNL     1      -4.104  -2.698   0.241  0.00  0.00    +0.142 HD
ENDBRANCH   6  15
ENDBRANCH   2   5
ENDBRANCH   1   2
BRANCH   1  18
ATOM     18  C   UNL     1       1.111  -1.304  -1.418  0.00  0.00    +0.084 C 
BRANCH  18  20
ATOM     19  C   UNL     1       4.588  -0.597  -0.108  0.00  0.00    +0.036 C 
ATOM     20  C   UNL     1       2.427  -1.466  -0.708  0.00  0.00    -0.011 C 
ATOM     21  C   UNL     1       3.368  -0.446  -0.767  0.00  0.00    -0.003 C 
ATOM     22  C   UNL     1       4.857  -1.766   0.604  0.00  0.00    +0.001 C 
ATOM     23  C   UNL     1       2.685  -2.634  -0.002  0.00  0.00    -0.003 C 
ATOM     24  C   UNL     1       3.905  -2.784   0.657  0.00  0.00    -0.000 C 
BRANCH  19  25
ATOM     25  C   UNL     1       5.606   0.493  -0.164  0.00  0.00    +0.291 C 
BRANCH  25  29
ATOM     26  F   UNL     1       5.557   0.896   2.195  0.00  0.00    -0.165 F 
ATOM     27  F   UNL     1       6.361   2.474   0.925  0.00  0.00    -0.165 F 
ATOM     28  F   UNL     1       4.214   2.077   0.949  0.00  0.00    -0.165 F 
ATOM     29  C   UNL     1       5.433   1.494   0.987  0.00  0.00    +0.449 C 
ENDBRANCH  25  29
BRANCH  25  30
ATOM     30  O   UNL     1       5.508   1.210  -1.407  0.00  0.00    -0.355 OA
ATOM     31  H   UNL     1       4.621   1.594  -1.490  0.00  0.00    +0.213 HD
ENDBRANCH  25  30
BRANCH  25  32
ATOM     32  O   UNL     1       6.934  -0.055  -0.092  0.00  0.00    -0.355 OA
ATOM     33  H   UNL     1       7.036  -0.548   0.737  0.00  0.00    +0.213 HD
ENDBRANCH  25  32
ENDBRANCH  19  25
ENDBRANCH  18  20
ENDBRANCH   1  18
TORSDOF 9
