REMARK  Name = 446967
REMARK  4 active torsions:
REMARK  status: ('A' for Active; 'I' for Inactive)
REMARK    1  A    between atoms: C_1  and  C_16
REMARK    2  A    between atoms: C_16  and  C_17
REMARK    3  A    between atoms: C_17  and  C_19
REMARK    4  A    between atoms: C_19  and  O_20
REMARK                            x       y       z     vdW  Elec       q    Type
REMARK                         _______ _______ _______ _____ _____    ______ ____
ROOT
ATOM      1  C   UNL     1       0.340   0.011   0.360  0.00  0.00    -0.022 A 
ATOM      2  C   UNL     1      -0.351   1.226   0.222  0.00  0.00    -0.004 A 
ATOM      3  C   UNL     1      -0.315  -1.224   0.221  0.00  0.00    -0.004 A 
ATOM      4  C   UNL     1      -1.734   1.205  -0.063  0.00  0.00    -0.004 A 
ATOM      5  C   UNL     1      -1.698  -1.245  -0.064  0.00  0.00    -0.004 A 
ATOM      6  C   UNL     1      -2.390  -0.030  -0.202  0.00  0.00    -0.022 A 
ATOM      7  C   UNL     1       0.303   2.461   0.361  0.00  0.00    -0.000 C 
ATOM      8  C   UNL     1       0.376  -2.440   0.358  0.00  0.00    -0.000 C 
ATOM      9  C   UNL     1      -2.425   2.420  -0.200  0.00  0.00    -0.000 C 
ATOM     10  C   UNL     1      -2.353  -2.480  -0.203  0.00  0.00    -0.000 C 
ATOM     11  C   UNL     1      -3.864  -0.052  -0.504  0.00  0.00    +0.031 C 
ATOM     12  C   UNL     1      -0.398   3.659   0.221  0.00  0.00    -0.000 C 
ATOM     13  C   UNL     1      -0.289  -3.658   0.217  0.00  0.00    -0.000 C 
ATOM     14  C   UNL     1      -1.760   3.639  -0.059  0.00  0.00    -0.000 C 
ATOM     15  C   UNL     1      -1.651  -3.678  -0.063  0.00  0.00    -0.000 C 
ENDROOT
BRANCH   1  16
ATOM     16  C   UNL     1       1.814   0.033   0.665  0.00  0.00    +0.038 C 
BRANCH  16  17
ATOM     17  C   UNL     1       2.689   0.048  -0.587  0.00  0.00    +0.114 C 
BRANCH  17  19
ATOM     18  O   UNL     1       4.591   0.002   0.902  0.00  0.00    -0.250 OA
ATOM     19  C   UNL     1       4.159   0.029  -0.244  0.00  0.00    +0.314 C 
BRANCH  19  20
ATOM     20  O   UNL     1       4.957   0.074  -1.339  0.00  0.00    -0.480 OA
ATOM     21  H   UNL     1       4.577   0.093  -2.195  0.00  0.00    +0.295 HD
ENDBRANCH  19  20
ENDBRANCH  17  19
ENDBRANCH  16  17
ENDBRANCH   1  16
TORSDOF 4
