REMARK  Name = 16122635
REMARK  4 active torsions:
REMARK  status: ('A' for Active; 'I' for Inactive)
REMARK    1  A    between atoms: C_1  and  C_3
REMARK    2  A    between atoms: C_1  and  C_9
REMARK    3  A    between atoms: C_1  and  C_15
REMARK    4  A    between atoms: C_15  and  N_16
REMARK                            x       y       z     vdW  Elec       q    Type
REMARK                         _______ _______ _______ _____ _____    ______ ____
ROOT
ATOM      1  C   UNL     1      -0.496  -1.149   0.312  0.00  0.00    +0.023 C 
ENDROOT
BRANCH   1   3
ATOM      2 CL   UNL     1       4.798   1.719  -0.271  0.00  0.00    -0.082 Cl
ATOM      3  C   UNL     1       0.850  -0.419   0.165  0.00  0.00    -0.020 C 
ATOM      4  C   UNL     1       1.923  -0.762   0.987  0.00  0.00    -0.003 C 
ATOM      5  C   UNL     1       0.997   0.585  -0.792  0.00  0.00    -0.003 C 
ATOM      6  C   UNL     1       3.144  -0.101   0.852  0.00  0.00    +0.011 C 
ATOM      7  C   UNL     1       2.218   1.246  -0.927  0.00  0.00    +0.011 C 
ATOM      8  C   UNL     1       3.292   0.903  -0.105  0.00  0.00    +0.058 C 
ENDBRANCH   1   3
BRANCH   1   9
ATOM      9  C   UNL     1      -1.660  -0.224   0.195  0.00  0.00    -0.021 C 
ATOM     10  C   UNL     1      -2.059   0.538   1.293  0.00  0.00    -0.004 C 
ATOM     11  C   UNL     1      -2.349  -0.120  -1.014  0.00  0.00    -0.004 C 
ATOM     12  C   UNL     1      -3.148   1.403   1.183  0.00  0.00    -0.000 C 
ATOM     13  C   UNL     1      -3.438   0.746  -1.123  0.00  0.00    -0.000 C 
ATOM     14  C   UNL     1      -3.837   1.507  -0.025  0.00  0.00    -0.000 C 
ENDBRANCH   1   9
BRANCH   1  15
ATOM     15  C   UNL     1      -0.568  -2.411  -0.605  0.00  0.00    -0.077 C 
BRANCH  15  16
ATOM     16  N   UNL     1       0.331  -3.460  -0.124  0.00  0.00    +0.381 N 
ATOM     17  H   UNL     1       0.266  -4.271  -0.738  0.00  0.00    -0.089 HD
ATOM     18  H   UNL     1       0.064  -3.728   0.823  0.00  0.00    -0.089 HD
ATOM     19  H   UNL     1       1.290  -3.111  -0.121  0.00  0.00    -0.089 HD
ENDBRANCH  15  16
ENDBRANCH   1  15
TORSDOF 4
