REMARK  Name = 25113136
REMARK  10 active torsions:
REMARK  status: ('A' for Active; 'I' for Inactive)
REMARK    1  A    between atoms: C_2  and  C_8
REMARK    2  A    between atoms: C_3  and  C_23
REMARK    3  A    between atoms: C_8  and  N_9
REMARK    4  A    between atoms: N_9  and  S_10
REMARK    5  A    between atoms: N_9  and  C_19
REMARK    6  A    between atoms: S_10  and  C_13
REMARK    7  A    between atoms: C_19  and  C_20
REMARK    8  A    between atoms: C_23  and  O_24
REMARK    9  A    between atoms: O_24  and  C_25
REMARK   10  A    between atoms: C_25  and  C_26
REMARK                            x       y       z     vdW  Elec       q    Type
REMARK                         _______ _______ _______ _____ _____    ______ ____
ROOT
ATOM      1  N   UNL     1      -0.221   4.056  -1.511  0.00  0.00    +0.384 N 
ATOM      2  C   UNL     1       0.308   1.810  -0.844  0.00  0.00    -0.003 C 
ATOM      3  C   UNL     1      -0.492   1.836  -2.149  0.00  0.00    +0.008 C 
ATOM      4  C   UNL     1       0.585   3.290  -0.555  0.00  0.00    -0.080 C 
ATOM      5  C   UNL     1      -1.244   3.152  -2.030  0.00  0.00    -0.079 C 
ATOM      6  H   UNL     1       0.367   4.394  -2.273  0.00  0.00    -0.085 HD
ATOM      7  H   UNL     1      -0.646   4.866  -1.060  0.00  0.00    -0.085 HD
ENDROOT
BRANCH   2   8
ATOM      8  C   UNL     1       1.574   0.972  -0.928  0.00  0.00    +0.094 C 
BRANCH   8   9
ATOM      9  N   UNL     1       2.042   0.648   0.433  0.00  0.00    -0.156 NA
BRANCH   9  10
ATOM     10  S   UNL     1       1.443  -0.792   1.179  0.00  0.00    +0.063 S 
ATOM     11  O   UNL     1      -0.009  -0.789   1.157  0.00  0.00    -0.153 OA
ATOM     12  O   UNL     1       2.136  -1.003   2.437  0.00  0.00    -0.153 OA
BRANCH  10  13
ATOM     13  C   UNL     1       1.983  -2.056   0.063  0.00  0.00    +0.122 C 
ATOM     14  C   UNL     1       1.052  -2.740  -0.719  0.00  0.00    +0.020 C 
ATOM     15  C   UNL     1       3.339  -2.368  -0.034  0.00  0.00    +0.020 C 
ATOM     16  C   UNL     1       1.478  -3.737  -1.598  0.00  0.00    +0.001 C 
ATOM     17  C   UNL     1       3.765  -3.364  -0.913  0.00  0.00    +0.001 C 
ATOM     18  C   UNL     1       2.834  -4.049  -1.695  0.00  0.00    +0.000 C 
ENDBRANCH  10  13
ENDBRANCH   9  10
BRANCH   9  19
ATOM     19  C   UNL     1       3.482   0.970   0.628  0.00  0.00    +0.096 C 
BRANCH  19  20
ATOM     20  C   UNL     1       3.673   2.297   1.371  0.00  0.00    +0.018 C 
ATOM     21  C   UNL     1       3.033   2.282   2.760  0.00  0.00    +0.001 C 
ATOM     22  C   UNL     1       5.147   2.697   1.462  0.00  0.00    +0.001 C 
ENDBRANCH  19  20
ENDBRANCH   9  19
ENDBRANCH   8   9
ENDBRANCH   2   8
BRANCH   3  23
ATOM     23  C   UNL     1      -1.415   0.642  -2.329  0.00  0.00    +0.140 C 
BRANCH  23  24
ATOM     24  O   UNL     1      -2.268   0.552  -1.200  0.00  0.00    -0.349 OA
BRANCH  24  25
ATOM     25  C   UNL     1      -3.162  -0.550  -1.303  0.00  0.00    +0.169 C 
BRANCH  25  26
ATOM     26  C   UNL     1      -4.034  -0.590  -0.083  0.00  0.00    +0.007 C 
ATOM     27  C   UNL     1      -3.631  -1.315   1.039  0.00  0.00    -0.002 C 
ATOM     28  C   UNL     1      -5.247   0.099  -0.068  0.00  0.00    -0.002 C 
ATOM     29  C   UNL     1      -4.441  -1.351   2.174  0.00  0.00    -0.000 C 
ATOM     30  C   UNL     1      -6.056   0.063   1.067  0.00  0.00    -0.000 C 
ATOM     31  C   UNL     1      -5.653  -0.662   2.188  0.00  0.00    -0.000 C 
ENDBRANCH  25  26
ENDBRANCH  24  25
ENDBRANCH  23  24
ENDBRANCH   3  23
TORSDOF 10
