REMARK  Name = 16040294
REMARK  4 active torsions:
REMARK  status: ('A' for Active; 'I' for Inactive)
REMARK    1  A    between atoms: N_6  and  C_21
REMARK    2  A    between atoms: C_7  and  C_30
REMARK    3  A    between atoms: C_24  and  C_27
REMARK    4  A    between atoms: C_27  and  C_29
REMARK                            x       y       z     vdW  Elec       q    Type
REMARK                         _______ _______ _______ _____ _____    ______ ____
ROOT
ATOM      1  N   UNL     1       0.907  -2.953   0.818  0.00  0.00    -0.239 N 
ATOM      2  N   UNL     1       0.237  -1.797   0.676  0.00  0.00    -0.166 NA
ATOM      3  N   UNL     1      -1.916  -1.356  -0.286  0.00  0.00    -0.271 N 
ATOM      4  N   UNL     1      -1.006   0.812  -0.187  0.00  0.00    -0.312 NA
ATOM      5  N   UNL     1      -2.435   2.735   0.074  0.00  0.00    -0.332 NA
ATOM      6  N   UNL     1      -0.107   2.973  -0.087  0.00  0.00    -0.238 N 
ATOM      7  C   UNL     1       0.241  -4.040   0.331  0.00  0.00    +0.045 C 
ATOM      8  C   UNL     1      -0.947  -3.560  -0.164  0.00  0.00    +0.048 C 
ATOM      9  C   UNL     1      -0.860  -2.202   0.088  0.00  0.00    +0.152 C 
ATOM     10  C   UNL     1      -2.111   0.043  -0.162  0.00  0.00    +0.201 C 
ATOM     11  C   UNL     1      -3.402   0.542  -0.023  0.00  0.00    +0.072 C 
ATOM     12  C   UNL     1      -3.517   1.937   0.095  0.00  0.00    +0.131 C 
ATOM     13  C   UNL     1      -1.238   2.129  -0.066  0.00  0.00    +0.204 C 
ATOM     14  C   UNL     1      -4.541  -0.282   0.000  0.00  0.00    +0.006 C 
ATOM     15  C   UNL     1      -4.795   2.474   0.235  0.00  0.00    +0.086 C 
ATOM     16  C   UNL     1      -5.805   0.282   0.141  0.00  0.00    -0.004 C 
ATOM     17  C   UNL     1      -5.932   1.661   0.259  0.00  0.00    -0.019 C 
ATOM     18  H   UNL     1       1.797  -3.011   1.236  0.00  0.00    +0.174 HD
ATOM     19  H   UNL     1      -2.666  -1.824  -0.718  0.00  0.00    +0.156 HD
ATOM     20  H   UNL     1      -0.324   3.928   0.006  0.00  0.00    +0.166 HD
ENDROOT
BRANCH   6  21
ATOM     21  C   UNL     1       1.271   2.715  -0.214  0.00  0.00    +0.058 C 
ATOM     22  C   UNL     1       1.713   1.609  -0.943  0.00  0.00    +0.015 C 
ATOM     23  C   UNL     1       2.201   3.565   0.388  0.00  0.00    +0.015 C 
ATOM     24  C   UNL     1       4.005   2.205  -0.467  0.00  0.00    -0.007 C 
ATOM     25  C   UNL     1       3.078   1.354  -1.069  0.00  0.00    -0.002 C 
ATOM     26  C   UNL     1       3.566   3.310   0.262  0.00  0.00    -0.002 C 
BRANCH  24  27
ATOM     27  C   UNL     1       5.465   1.932  -0.601  0.00  0.00    +0.132 C 
BRANCH  27  29
ATOM     28  N   UNL     1       6.380   0.390   1.328  0.00  0.00    -0.196 NA
ATOM     29  C   UNL     1       5.982   1.070   0.477  0.00  0.00    +0.078 C 
ENDBRANCH  27  29
ENDBRANCH  24  27
ENDBRANCH   6  21
BRANCH   7  30
ATOM     30  C   UNL     1       0.725  -5.484   0.340  0.00  0.00    +0.037 C 
ATOM     31  C   UNL     1       2.056  -5.817  -0.285  0.00  0.00    +0.006 C 
ATOM     32  C   UNL     1       0.786  -6.247  -0.959  0.00  0.00    +0.006 C 
ENDBRANCH   7  30
TORSDOF 4
