REMARK  Name = 4565
REMARK  4 active torsions:
REMARK  status: ('A' for Active; 'I' for Inactive)
REMARK    1  A    between atoms: N_5  and  C_15
REMARK    2  A    between atoms: C_6  and  O_21
REMARK    3  A    between atoms: O_21  and  C_22
REMARK    4  A    between atoms: C_22  and  C_23
REMARK                            x       y       z     vdW  Elec       q    Type
REMARK                         _______ _______ _______ _____ _____    ______ ____
ROOT
ATOM      1  N   UNL     1       0.806  -0.653  -0.044  0.00  0.00    -0.293 NA
ATOM      2  N   UNL     1      -0.503  -4.085  -0.223  0.00  0.00    -0.266 NA
ATOM      3  N   UNL     1       2.524  -2.383   0.058  0.00  0.00    -0.316 NA
ATOM      4  N   UNL     1       1.648  -4.647  -0.060  0.00  0.00    -0.296 N 
ATOM      5  N   UNL     1       3.076  -0.111   0.151  0.00  0.00    -0.238 N 
ATOM      6  C   UNL     1      -0.176  -1.575  -0.143  0.00  0.00    +0.288 C 
ATOM      7  C   UNL     1       0.183  -2.907  -0.142  0.00  0.00    +0.215 C 
ATOM      8  C   UNL     1       1.516  -3.282  -0.042  0.00  0.00    +0.196 C 
ATOM      9  C   UNL     1       2.079  -1.108   0.049  0.00  0.00    +0.207 C 
ATOM     10  C   UNL     1       0.417  -5.099  -0.170  0.00  0.00    +0.164 C 
ATOM     11  H   UNL     1      -1.479  -4.188  -0.304  0.00  0.00    +0.126 HD
ATOM     12  H   UNL     1       2.479  -5.172  -0.004  0.00  0.00    +0.150 HD
ATOM     13  H   UNL     1       3.991  -0.470   0.217  0.00  0.00    +0.166 HD
ENDROOT
BRANCH   5  15
ATOM     14 CL   UNL     1       0.674   4.184  -1.301  0.00  0.00    -0.082 Cl
ATOM     15  C   UNL     1       3.017   1.294   0.177  0.00  0.00    +0.059 C 
ATOM     16  C   UNL     1       1.994   1.966  -0.497  0.00  0.00    +0.027 C 
ATOM     17  C   UNL     1       3.981   2.024   0.877  0.00  0.00    +0.015 C 
ATOM     18  C   UNL     1       1.936   3.359  -0.470  0.00  0.00    +0.059 C 
ATOM     19  C   UNL     1       3.922   3.417   0.904  0.00  0.00    +0.002 C 
ATOM     20  C   UNL     1       2.899   4.085   0.230  0.00  0.00    +0.011 C 
ENDBRANCH   5  15
BRANCH   6  21
ATOM     21  O   UNL     1      -1.478  -1.148  -0.239  0.00  0.00    -0.453 OA
BRANCH  21  22
ATOM     22  C   UNL     1      -1.699   0.250  -0.227  0.00  0.00    +0.208 C 
BRANCH  22  23
ATOM     23  C   UNL     1      -3.201   0.504  -0.338  0.00  0.00    +0.044 C 
ATOM     24  C   UNL     1      -3.949  -0.149   0.833  0.00  0.00    +0.004 C 
ATOM     25  C   UNL     1      -3.493   2.009  -0.401  0.00  0.00    +0.004 C 
ATOM     26  C   UNL     1      -5.448   0.136   0.773  0.00  0.00    +0.000 C 
ATOM     27  C   UNL     1      -4.993   2.290  -0.458  0.00  0.00    +0.000 C 
ATOM     28  C   UNL     1      -5.734   1.632   0.702  0.00  0.00    +0.000 C 
ENDBRANCH  22  23
ENDBRANCH  21  22
ENDBRANCH   6  21
TORSDOF 4
