REMARK  Name = 736027
REMARK  4 active torsions:
REMARK  status: ('A' for Active; 'I' for Inactive)
REMARK    1  A    between atoms: C_1  and  C_8
REMARK    2  A    between atoms: C_2  and  N_18
REMARK    3  A    between atoms: C_10  and  C_13
REMARK    4  A    between atoms: C_13  and  O_14
REMARK                            x       y       z     vdW  Elec       q    Type
REMARK                         _______ _______ _______ _____ _____    ______ ____
ROOT
ATOM      1  C   UNL     1      -1.113   0.596  -0.226  0.00  0.00    +0.057 C 
ATOM      2  C   UNL     1      -1.945  -0.478   0.092  0.00  0.00    +0.146 C 
ATOM      3  C   UNL     1      -1.606   1.899  -0.171  0.00  0.00    +0.005 C 
ATOM      4  C   UNL     1      -3.269  -0.248   0.464  0.00  0.00    +0.024 C 
ATOM      5  C   UNL     1      -2.931   2.129   0.201  0.00  0.00    +0.000 C 
ATOM      6  C   UNL     1      -3.763   1.055   0.518  0.00  0.00    +0.002 C 
ENDROOT
BRANCH   1   8
ATOM      7  O   UNL     1       1.155   0.398   0.406  0.00  0.00    -0.447 OA
ATOM      8  C   UNL     1       0.266   0.395  -0.615  0.00  0.00    +0.147 C 
ATOM      9  C   UNL     1       0.889   0.199  -1.817  0.00  0.00    +0.041 C 
ATOM     10  C   UNL     1       2.377   0.198  -0.154  0.00  0.00    +0.220 C 
ATOM     11  C   UNL     1       2.267   0.070  -1.519  0.00  0.00    +0.047 C 
BRANCH  10  13
ATOM     12  O   UNL     1       3.499   0.286   1.957  0.00  0.00    -0.242 OA
ATOM     13  C   UNL     1       3.506   0.157   0.710  0.00  0.00    +0.373 C 
BRANCH  13  14
ATOM     14  O   UNL     1       4.695  -0.050   0.054  0.00  0.00    -0.475 OA
ATOM     15  H   UNL     1       4.705  -0.147  -0.878  0.00  0.00    +0.296 HD
ENDBRANCH  13  14
ENDBRANCH  10  13
ENDBRANCH   1   8
BRANCH   2  18
ATOM     16  O   UNL     1      -2.265  -2.748   0.342  0.00  0.00    -0.126 OA
ATOM     17  O   UNL     1      -0.286  -2.036  -0.287  0.00  0.00    -0.126 OA
ATOM     18  N   UNL     1      -1.475  -1.822   0.047  0.00  0.00    +0.058 N 
ENDBRANCH   2  18
TORSDOF 4
