REMARK  Name = 46937086
REMARK  7 active torsions:
REMARK  status: ('A' for Active; 'I' for Inactive)
REMARK    1  A    between atoms: C_2  and  O_15
REMARK    2  A    between atoms: C_3  and  C_17
REMARK    3  A    between atoms: C_5  and  C_8
REMARK    4  A    between atoms: C_17  and  O_18
REMARK    5  A    between atoms: O_18  and  P_19
REMARK    6  A    between atoms: P_19  and  O_21
REMARK    7  A    between atoms: P_19  and  O_23
REMARK                            x       y       z     vdW  Elec       q    Type
REMARK                         _______ _______ _______ _____ _____    ______ ____
ROOT
ATOM      1  O   UNL     1      -0.584   1.187   0.976  0.00  0.00    -0.349 OA
ATOM      2  C   UNL     1      -1.178   2.768  -0.697  0.00  0.00    +0.143 C 
ATOM      3  C   UNL     1      -1.723   1.751   0.297  0.00  0.00    +0.172 C 
ATOM      4  C   UNL     1       0.209   2.247  -0.997  0.00  0.00    +0.066 C 
ATOM      5  C   UNL     1       0.625   1.636   0.337  0.00  0.00    +0.142 C 
ENDROOT
BRANCH   5   8
ATOM      6  F   UNL     1       3.425   2.069   0.432  0.00  0.00    -0.204 F 
ATOM      7  F   UNL     1       4.408  -2.509  -0.219  0.00  0.00    -0.204 F 
ATOM      8  C   UNL     1       1.637   0.527   0.188  0.00  0.00    +0.032 C 
ATOM      9  C   UNL     1       1.206  -0.785  -0.008  0.00  0.00    -0.002 C 
ATOM     10  C   UNL     1       3.001   0.811   0.245  0.00  0.00    +0.141 C 
ATOM     11  C   UNL     1       2.139  -1.813  -0.145  0.00  0.00    +0.006 C 
ATOM     12  C   UNL     1       3.935  -0.216   0.108  0.00  0.00    +0.059 C 
ATOM     13  C   UNL     1       3.504  -1.528  -0.087  0.00  0.00    +0.138 C 
ATOM     14  C   UNL     1       1.675  -3.215  -0.353  0.00  0.00    +0.033 C 
ENDBRANCH   5   8
BRANCH   2  15
ATOM     15  O   UNL     1      -1.087   4.052  -0.083  0.00  0.00    -0.382 OA
ATOM     16  H   UNL     1      -1.979   4.382   0.108  0.00  0.00    +0.210 HD
ENDBRANCH   2  15
BRANCH   3  17
ATOM     17  C   UNL     1      -2.477   0.614  -0.378  0.00  0.00    +0.185 C 
BRANCH  17  18
ATOM     18  O   UNL     1      -2.935  -0.282   0.620  0.00  0.00    -0.271 OA
BRANCH  18  19
ATOM     19  P   UNL     1      -3.773  -1.589   0.159  0.00  0.00    +0.473 P 
ATOM     20  O   UNL     1      -4.219  -2.482   1.279  0.00  0.00    -0.227 OA
BRANCH  19  21
ATOM     21  O   UNL     1      -2.820  -2.286  -0.945  0.00  0.00    -0.303 OA
ATOM     22  H   UNL     1      -2.584  -1.637  -1.626  0.00  0.00    +0.222 HD
ENDBRANCH  19  21
BRANCH  19  23
ATOM     23  O   UNL     1      -4.969  -0.957  -0.728  0.00  0.00    -0.303 OA
ATOM     24  H   UNL     1      -4.593  -0.396  -1.424  0.00  0.00    +0.222 HD
ENDBRANCH  19  23
ENDBRANCH  18  19
ENDBRANCH  17  18
ENDBRANCH   3  17
TORSDOF 7
