REMARK  Name = 6857699
REMARK  4 active torsions:
REMARK  status: ('A' for Active; 'I' for Inactive)
REMARK    1  A    between atoms: C_2  and  C_21
REMARK    2  A    between atoms: C_7  and  C_13
REMARK    3  A    between atoms: C_18  and  O_19
REMARK    4  A    between atoms: C_21  and  O_22
REMARK                            x       y       z     vdW  Elec       q    Type
REMARK                         _______ _______ _______ _____ _____    ______ ____
ROOT
ATOM      1  O   UNL     1      -0.341   0.667  -1.263  0.00  0.00    -0.351 OA
ATOM      2  C   UNL     1      -2.586   0.244  -0.298  0.00  0.00    +0.059 C 
ATOM      3  C   UNL     1      -2.001   0.590   1.107  0.00  0.00    +0.011 C 
ATOM      4  C   UNL     1      -0.517   0.128   1.120  0.00  0.00    +0.050 C 
ATOM      5  C   UNL     1      -2.545  -1.315  -0.512  0.00  0.00    +0.026 C 
ATOM      6  C   UNL     1      -1.722   1.017  -1.333  0.00  0.00    +0.145 C 
ATOM      7  C   UNL     1       0.234   0.935   0.024  0.00  0.00    +0.141 C 
ATOM      8  C   UNL     1      -0.430  -1.372   0.871  0.00  0.00    -0.046 C 
ATOM      9  C   UNL     1      -1.348  -2.000   0.114  0.00  0.00    -0.035 C 
ATOM     10  C   UNL     1      -2.793   0.038   2.300  0.00  0.00    +0.001 C 
ATOM     11  C   UNL     1      -2.674  -1.751  -1.977  0.00  0.00    +0.005 C 
ATOM     12  C   UNL     1       0.679  -2.128   1.544  0.00  0.00    +0.026 C 
ENDROOT
BRANCH   7  13
ATOM     13  C   UNL     1       1.694   0.644  -0.058  0.00  0.00    +0.005 C 
ATOM     14  C   UNL     1       2.600   1.405   0.680  0.00  0.00    +0.001 C 
ATOM     15  C   UNL     1       2.154  -0.390  -0.875  0.00  0.00    +0.001 C 
ATOM     16  C   UNL     1       3.966   1.132   0.603  0.00  0.00    +0.036 C 
ATOM     17  C   UNL     1       3.519  -0.662  -0.952  0.00  0.00    +0.036 C 
ATOM     18  C   UNL     1       4.426   0.098  -0.213  0.00  0.00    +0.134 C 
BRANCH  18  19
ATOM     19  O   UNL     1       5.758  -0.167  -0.289  0.00  0.00    -0.506 OA
ATOM     20  H   UNL     1       6.367   0.344   0.208  0.00  0.00    +0.292 HD
ENDBRANCH  18  19
ENDBRANCH   7  13
BRANCH   2  21
ATOM     21  C   UNL     1      -4.035   0.752  -0.435  0.00  0.00    +0.140 C 
BRANCH  21  22
ATOM     22  O   UNL     1      -4.038   2.135  -0.157  0.00  0.00    -0.382 OA
ATOM     23  H   UNL     1      -4.942   2.479  -0.236  0.00  0.00    +0.210 HD
ENDBRANCH  21  22
ENDBRANCH   2  21
TORSDOF 4
