REMARK  Name = 445957
REMARK  8 active torsions:
REMARK  status: ('A' for Active; 'I' for Inactive)
REMARK    1  A    between atoms: N_2  and  C_15
REMARK    2  A    between atoms: N_3  and  C_28
REMARK    3  A    between atoms: C_12  and  O_18
REMARK    4  A    between atoms: O_18  and  C_19
REMARK    5  A    between atoms: C_19  and  C_20
REMARK    6  A    between atoms: C_20  and  O_21
REMARK    7  A    between atoms: C_20  and  C_23
REMARK    8  A    between atoms: C_23  and  N_24
REMARK                            x       y       z     vdW  Elec       q    Type
REMARK                         _______ _______ _______ _____ _____    ______ ____
ROOT
ATOM      1 BR   UNL     1       6.659  -0.879   0.108  0.00  0.00    -0.043 Br
ATOM      2  N   UNL     1       1.973   2.822  -0.244  0.00  0.00    -0.247 N 
ATOM      3  N   UNL     1       3.607  -1.533   0.484  0.00  0.00    -0.287 N 
ATOM      4  N   UNL     1       2.782   0.650   0.120  0.00  0.00    -0.321 NA
ATOM      5  N   UNL     1       4.289   2.467  -0.361  0.00  0.00    -0.169 NA
ATOM      6  C   UNL     1       3.066   1.938  -0.157  0.00  0.00    +0.150 C 
ATOM      7  C   UNL     1       3.852  -0.169   0.195  0.00  0.00    +0.204 C 
ATOM      8  C   UNL     1       5.153   0.251   0.007  0.00  0.00    +0.099 C 
ATOM      9  C   UNL     1       5.313   1.593  -0.271  0.00  0.00    +0.122 C 
ATOM     10  H   UNL     1       2.230   3.750  -0.449  0.00  0.00    +0.165 HD
ATOM     11  H   UNL     1       4.339  -1.973   0.973  0.00  0.00    +0.155 HD
ENDROOT
BRANCH   2  15
ATOM     12  C   UNL     1      -2.159   2.279   0.203  0.00  0.00    +0.139 C 
ATOM     13  C   UNL     1      -1.277   1.468   0.909  0.00  0.00    +0.038 C 
ATOM     14  C   UNL     1      -1.683   3.268  -0.650  0.00  0.00    +0.038 C 
ATOM     15  C   UNL     1       0.583   2.639  -0.094  0.00  0.00    +0.058 C 
ATOM     16  C   UNL     1       0.098   1.648   0.760  0.00  0.00    +0.018 C 
ATOM     17  C   UNL     1      -0.308   3.449  -0.799  0.00  0.00    +0.018 C 
BRANCH  12  18
ATOM     18  O   UNL     1      -3.509   2.100   0.348  0.00  0.00    -0.473 OA
BRANCH  18  19
ATOM     19  C   UNL     1      -3.952   0.780   0.646  0.00  0.00    +0.232 C 
BRANCH  19  20
ATOM     20  C   UNL     1      -5.355   0.589   0.075  0.00  0.00    +0.133 C 
BRANCH  20  21
ATOM     21  O   UNL     1      -6.232   1.532   0.697  0.00  0.00    -0.383 OA
ATOM     22  H   UNL     1      -7.129   1.422   0.343  0.00  0.00    +0.210 HD
ENDBRANCH  20  21
BRANCH  20  23
ATOM     23  C   UNL     1      -5.919  -0.815   0.309  0.00  0.00    -0.044 C 
BRANCH  23  24
ATOM     24  N   UNL     1      -5.066  -1.849  -0.259  0.00  0.00    +0.386 N 
ATOM     25  C   UNL     1      -4.972  -1.700  -1.713  0.00  0.00    -0.101 C 
ATOM     26  C   UNL     1      -5.572  -3.181   0.081  0.00  0.00    -0.101 C 
ATOM     27  H   UNL     1      -4.133  -1.745   0.139  0.00  0.00    -0.080 HD
ENDBRANCH  23  24
ENDBRANCH  20  23
ENDBRANCH  19  20
ENDBRANCH  18  19
ENDBRANCH  12  18
ENDBRANCH   2  15
BRANCH   3  28
ATOM     28  C   UNL     1       2.521  -2.380   0.209  0.00  0.00    +0.050 C 
ATOM     29  C   UNL     1       2.548  -3.716   0.622  0.00  0.00    +0.015 C 
ATOM     30  C   UNL     1       1.406  -1.893  -0.479  0.00  0.00    +0.015 C 
ATOM     31  C   UNL     1       1.470  -4.557   0.347  0.00  0.00    +0.001 C 
ATOM     32  C   UNL     1       0.328  -2.735  -0.753  0.00  0.00    +0.001 C 
ATOM     33  C   UNL     1       0.359  -4.067  -0.340  0.00  0.00    +0.000 C 
ENDBRANCH   3  28
TORSDOF 8
