REMARK  Name = 46937103
REMARK  14 active torsions:
REMARK  status: ('A' for Active; 'I' for Inactive)
REMARK    1  A    between atoms: C_1  and  C_3
REMARK    2  A    between atoms: C_1  and  C_14
REMARK    3  A    between atoms: C_3  and  C_4
REMARK    4  A    between atoms: C_4  and  C_5
REMARK    5  A    between atoms: C_5  and  C_6
REMARK    6  A    between atoms: C_6  and  C_8
REMARK    7  A    between atoms: C_8  and  C_9
REMARK    8  A    between atoms: C_9  and  C_10
REMARK    9  A    between atoms: C_10  and  C_11
REMARK   10  A    between atoms: C_14  and  C_15
REMARK   11  A    between atoms: C_15  and  P_16
REMARK   12  A    between atoms: C_15  and  O_22
REMARK   13  A    between atoms: P_16  and  O_18
REMARK   14  A    between atoms: P_16  and  O_20
REMARK                            x       y       z     vdW  Elec       q    Type
REMARK                         _______ _______ _______ _____ _____    ______ ____
ROOT
ATOM      1  C   UNL     1       2.778  -1.830   0.330  0.00  0.00    +0.003 C 
ATOM      2  C   UNL     1       3.157  -2.923  -0.677  0.00  0.00    +0.000 C 
ENDROOT
BRANCH   1   3
ATOM      3  C   UNL     1       1.442  -2.143   1.037  0.00  0.00    +0.000 C 
BRANCH   3   4
ATOM      4  C   UNL     1       0.225  -2.333   0.121  0.00  0.00    +0.000 C 
BRANCH   4   5
ATOM      5  C   UNL     1      -1.051  -2.707   0.882  0.00  0.00    +0.000 C 
BRANCH   5   6
ATOM      6  C   UNL     1      -2.296  -2.814  -0.022  0.00  0.00    +0.000 C 
ATOM      7  C   UNL     1      -2.106  -3.952  -1.031  0.00  0.00    +0.000 C 
BRANCH   6   8
ATOM      8  C   UNL     1      -2.696  -1.500  -0.728  0.00  0.00    +0.000 C 
BRANCH   8   9
ATOM      9  C   UNL     1      -2.832  -0.283   0.193  0.00  0.00    +0.000 C 
BRANCH   9  10
ATOM     10  C   UNL     1      -3.152   1.015  -0.561  0.00  0.00    +0.000 C 
BRANCH  10  11
ATOM     11  C   UNL     1      -3.368   2.266   0.310  0.00  0.00    +0.000 C 
ATOM     12  C   UNL     1      -4.530   2.102   1.291  0.00  0.00    +0.000 C 
ATOM     13  C   UNL     1      -3.616   3.483  -0.586  0.00  0.00    +0.000 C 
ENDBRANCH  10  11
ENDBRANCH   9  10
ENDBRANCH   8   9
ENDBRANCH   6   8
ENDBRANCH   5   6
ENDBRANCH   4   5
ENDBRANCH   3   4
ENDBRANCH   1   3
BRANCH   1  14
ATOM     14  C   UNL     1       2.726  -0.472  -0.407  0.00  0.00    +0.042 C 
BRANCH  14  15
ATOM     15  C   UNL     1       2.445   0.738   0.484  0.00  0.00    +0.214 C 
BRANCH  15  16
ATOM     16  P   UNL     1       2.470   2.300  -0.391  0.00  0.00    +0.363 P 
ATOM     17  O   UNL     1       3.772   2.630  -1.059  0.00  0.00    -0.256 OA
BRANCH  16  18
ATOM     18  O   UNL     1       1.199   2.193  -1.384  0.00  0.00    -0.322 OA
ATOM     19  H   UNL     1       1.129   3.006  -1.909  0.00  0.00    +0.220 HD
ENDBRANCH  16  18
BRANCH  16  20
ATOM     20  O   UNL     1       1.980   3.366   0.721  0.00  0.00    -0.322 OA
ATOM     21  H   UNL     1       1.962   4.254   0.331  0.00  0.00    +0.220 HD
ENDBRANCH  16  20
ENDBRANCH  15  16
BRANCH  15  22
ATOM     22  O   UNL     1       3.452   0.867   1.479  0.00  0.00    -0.374 OA
ATOM     23  H   UNL     1       3.260   1.638   2.036  0.00  0.00    +0.211 HD
ENDBRANCH  15  22
ENDBRANCH  14  15
ENDBRANCH   1  14
TORSDOF 14
