REMARK  Name = 6857711
REMARK  9 active torsions:
REMARK  status: ('A' for Active; 'I' for Inactive)
REMARK    1  A    between atoms: C_1  and  C_4
REMARK    2  A    between atoms: C_1  and  N_13
REMARK    3  A    between atoms: C_1  and  C_25
REMARK    4  A    between atoms: N_3  and  C_7
REMARK    5  A    between atoms: C_10  and  O_11
REMARK    6  A    between atoms: N_13  and  C_16
REMARK    7  A    between atoms: C_16  and  N_17
REMARK    8  A    between atoms: N_17  and  C_19
REMARK    9  A    between atoms: C_25  and  C_26
REMARK                            x       y       z     vdW  Elec       q    Type
REMARK                         _______ _______ _______ _____ _____    ______ ____
ROOT
ATOM      1  C   UNL     1      -1.467   1.244  -0.178  0.00  0.00    +0.148 C 
ENDROOT
BRANCH   1   4
ATOM      2  O   UNL     1      -1.892   0.036  -2.237  0.00  0.00    -0.273 OA
ATOM      3  N   UNL     1      -1.994  -1.115  -0.223  0.00  0.00    -0.302 N 
ATOM      4  C   UNL     1      -1.820   0.015  -1.010  0.00  0.00    +0.240 C 
ATOM      5  H   UNL     1      -1.915  -1.021   0.754  0.00  0.00    +0.150 HD
BRANCH   3   7
ATOM      6  O   UNL     1      -2.073  -3.998   1.000  0.00  0.00    -0.329 OA
ATOM      7  C   UNL     1      -2.285  -2.420  -0.765  0.00  0.00    +0.106 C 
ATOM      8  C   UNL     1      -1.023  -3.228  -0.978  0.00  0.00    +0.083 C 
ATOM      9  C   UNL     1      -3.046  -3.278   0.228  0.00  0.00    +0.164 C 
ATOM     10  C   UNL     1      -0.785  -3.846   0.391  0.00  0.00    +0.234 C 
BRANCH  10  11
ATOM     11  O   UNL     1       0.043  -2.981   1.159  0.00  0.00    -0.360 OA
ATOM     12  H   UNL     1       0.196  -3.373   2.033  0.00  0.00    +0.213 HD
ENDBRANCH  10  11
ENDBRANCH   3   7
ENDBRANCH   1   4
BRANCH   1  13
ATOM     13  N   UNL     1      -0.518   2.014  -0.940  0.00  0.00    -0.310 N 
ATOM     14  H   UNL     1      -0.890   2.728  -1.506  0.00  0.00    +0.149 HD
BRANCH  13  16
ATOM     15  S   UNL     1       1.732   2.877  -1.991  0.00  0.00    -0.019 S 
ATOM     16  C   UNL     1       0.869   1.863  -0.967  0.00  0.00    +0.135 C 
BRANCH  16  17
ATOM     17  N   UNL     1       1.350   0.843  -0.153  0.00  0.00    -0.296 N 
ATOM     18  H   UNL     1       0.649   0.358   0.339  0.00  0.00    +0.154 HD
BRANCH  17  19
ATOM     19  C   UNL     1       2.665   0.373   0.099  0.00  0.00    +0.050 C 
ATOM     20  C   UNL     1       2.889  -0.985   0.322  0.00  0.00    +0.015 C 
ATOM     21  C   UNL     1       3.734   1.270   0.122  0.00  0.00    +0.015 C 
ATOM     22  C   UNL     1       4.181  -1.448   0.570  0.00  0.00    +0.001 C 
ATOM     23  C   UNL     1       5.026   0.807   0.370  0.00  0.00    +0.001 C 
ATOM     24  C   UNL     1       5.250  -0.552   0.594  0.00  0.00    +0.000 C 
ENDBRANCH  17  19
ENDBRANCH  16  17
ENDBRANCH  13  16
ENDBRANCH   1  13
BRANCH   1  25
ATOM     25  C   UNL     1      -2.734   2.044   0.150  0.00  0.00    +0.029 C 
BRANCH  25  26
ATOM     26  C   UNL     1      -2.492   3.340   0.951  0.00  0.00    +0.002 C 
ATOM     27  C   UNL     1      -1.829   3.003   2.289  0.00  0.00    +0.000 C 
ATOM     28  C   UNL     1      -3.782   4.122   1.198  0.00  0.00    +0.000 C 
ENDBRANCH  25  26
ENDBRANCH   1  25
TORSDOF 9
