REMARK  Name = 22747857
REMARK  5 active torsions:
REMARK  status: ('A' for Active; 'I' for Inactive)
REMARK    1  A    between atoms: O_1  and  C_4
REMARK    2  A    between atoms: O_1  and  C_10
REMARK    3  A    between atoms: N_3  and  C_6
REMARK    4  A    between atoms: C_6  and  C_8
REMARK    5  A    between atoms: C_10  and  C_11
REMARK                            x       y       z     vdW  Elec       q    Type
REMARK                         _______ _______ _______ _____ _____    ______ ____
ROOT
ATOM      1  O   UNL     1      -0.015  -0.875   0.275  0.00  0.00    -0.430 OA
ENDROOT
BRANCH   1   4
ATOM      2  O   UNL     1      -1.587  -1.234  -1.361  0.00  0.00    -0.226 OA
ATOM      3  N   UNL     1      -2.185  -0.647   0.802  0.00  0.00    -0.264 N 
ATOM      4  C   UNL     1      -1.293  -0.946  -0.205  0.00  0.00    +0.402 C 
ATOM      5  H   UNL     1      -1.825  -0.431   1.693  0.00  0.00    +0.153 HD
BRANCH   3   6
ATOM      6  C   UNL     1      -3.619  -0.632   0.625  0.00  0.00    +0.157 C 
BRANCH   6   8
ATOM      7  O   UNL     1      -5.354   0.882   0.009  0.00  0.00    -0.294 OA
ATOM      8  C   UNL     1      -4.146   0.724   0.203  0.00  0.00    +0.171 C 
ATOM      9  C   UNL     1      -3.185   1.870   0.020  0.00  0.00    +0.074 C 
ENDBRANCH   6   8
ENDBRANCH   3   6
ENDBRANCH   1   4
BRANCH   1  10
ATOM     10  C   UNL     1       1.024  -1.164  -0.667  0.00  0.00    +0.237 C 
BRANCH  10  11
ATOM     11  C   UNL     1       2.252  -0.386  -0.296  0.00  0.00    +0.021 C 
ATOM     12  C   UNL     1       2.450   0.894  -0.814  0.00  0.00    -0.001 C 
ATOM     13  C   UNL     1       3.195  -0.943   0.568  0.00  0.00    -0.001 C 
ATOM     14  C   UNL     1       3.592   1.617  -0.468  0.00  0.00    -0.000 C 
ATOM     15  C   UNL     1       4.337  -0.219   0.914  0.00  0.00    -0.000 C 
ATOM     16  C   UNL     1       4.535   1.060   0.395  0.00  0.00    -0.000 C 
ENDBRANCH  10  11
ENDBRANCH   1  10
TORSDOF 5
