REMARK  Name = 46882177
REMARK  4 active torsions:
REMARK  status: ('A' for Active; 'I' for Inactive)
REMARK    1  A    between atoms: C_4  and  O_22
REMARK    2  A    between atoms: C_5  and  O_24
REMARK    3  A    between atoms: C_19  and  O_28
REMARK    4  A    between atoms: C_20  and  O_26
REMARK                            x       y       z     vdW  Elec       q    Type
REMARK                         _______ _______ _______ _____ _____    ______ ____
ROOT
ATOM      1  O   UNL     1       0.549   2.221   0.057  0.00  0.00    -0.449 OA
ATOM      2  O   UNL     1      -3.541   0.341  -0.714  0.00  0.00    -0.289 OA
ATOM      3  O   UNL     1       0.840   1.793  -2.207  0.00  0.00    -0.245 OA
ATOM      4  C   UNL     1      -3.224  -2.481  -0.154  0.00  0.00    +0.149 C 
ATOM      5  C   UNL     1      -3.157  -1.396   0.934  0.00  0.00    +0.199 C 
ATOM      6  C   UNL     1      -2.128  -2.430  -1.229  0.00  0.00    +0.058 C 
ATOM      7  C   UNL     1      -0.343   3.331  -0.185  0.00  0.00    +0.174 C 
ATOM      8  C   UNL     1      -1.802   2.833  -0.172  0.00  0.00    +0.070 C 
ATOM      9  C   UNL     1      -3.202   0.045   0.428  0.00  0.00    +0.202 C 
ATOM     10  C   UNL     1      -0.744  -2.216  -0.691  0.00  0.00    -0.024 C 
ATOM     11  C   UNL     1       1.372  -0.879  -0.570  0.00  0.00    +0.012 C 
ATOM     12  C   UNL     1       1.847   0.446  -0.536  0.00  0.00    +0.109 C 
ATOM     13  C   UNL     1      -2.252   2.272   1.151  0.00  0.00    -0.019 C 
ATOM     14  C   UNL     1       0.030  -1.195  -1.092  0.00  0.00    -0.004 C 
ATOM     15  C   UNL     1      -2.825   1.092   1.423  0.00  0.00    +0.036 C 
ATOM     16  C   UNL     1      -0.039   4.405   0.853  0.00  0.00    +0.048 C 
ATOM     17  C   UNL     1       1.031   1.565  -1.026  0.00  0.00    +0.344 C 
ATOM     18  C   UNL     1       2.235  -1.891  -0.119  0.00  0.00    +0.037 C 
ATOM     19  C   UNL     1       3.123   0.755  -0.049  0.00  0.00    +0.143 C 
ATOM     20  C   UNL     1       3.510  -1.586   0.369  0.00  0.00    +0.142 C 
ATOM     21  C   UNL     1       3.951  -0.265   0.408  0.00  0.00    +0.074 C 
ENDROOT
BRANCH   4  22
ATOM     22  O   UNL     1      -4.498  -2.413  -0.802  0.00  0.00    -0.381 OA
ATOM     23  H   UNL     1      -5.202  -2.444  -0.135  0.00  0.00    +0.210 HD
ENDBRANCH   4  22
BRANCH   5  24
ATOM     24  O   UNL     1      -4.256  -1.589   1.817  0.00  0.00    -0.375 OA
ATOM     25  H   UNL     1      -4.246  -2.500   2.150  0.00  0.00    +0.211 HD
ENDBRANCH   5  24
BRANCH  20  26
ATOM     26  O   UNL     1       4.328  -2.587   0.800  0.00  0.00    -0.471 OA
ATOM     27  C   UNL     1       5.615  -2.209   1.286  0.00  0.00    +0.252 C 
ENDBRANCH  20  26
BRANCH  19  28
ATOM     28  O   UNL     1       3.582   2.035   0.020  0.00  0.00    -0.505 OA
ATOM     29  H   UNL     1       3.045   2.742  -0.280  0.00  0.00    +0.292 HD
ENDBRANCH  19  28
TORSDOF 4
