REMARK  Name = 10680
REMARK  1 active torsions:
REMARK  status: ('A' for Active; 'I' for Inactive)
REMARK    1  A    between atoms: C_4  and  C_12
REMARK                            x       y       z     vdW  Elec       q    Type
REMARK                         _______ _______ _______ _____ _____    ______ ____
ROOT
ATOM      1  O   UNL     1      -0.191   0.876   0.084  0.00  0.00    -0.453 OA
ATOM      2  O   UNL     1      -1.877  -2.817  -0.259  0.00  0.00    -0.286 OA
ATOM      3  C   UNL     1      -2.199  -0.486  -0.040  0.00  0.00    +0.074 C 
ATOM      4  C   UNL     1       0.582  -0.269  -0.037  0.00  0.00    +0.148 C 
ATOM      5  C   UNL     1      -1.557   0.746   0.076  0.00  0.00    +0.148 C 
ATOM      6  C   UNL     1      -1.381  -1.703  -0.159  0.00  0.00    +0.202 C 
ATOM      7  C   UNL     1       0.083  -1.510  -0.149  0.00  0.00    +0.080 C 
ATOM      8  C   UNL     1      -3.593  -0.559  -0.042  0.00  0.00    +0.006 C 
ATOM      9  C   UNL     1      -2.309   1.915   0.192  0.00  0.00    +0.038 C 
ATOM     10  C   UNL     1      -4.343   0.613   0.074  0.00  0.00    +0.000 C 
ATOM     11  C   UNL     1      -3.702   1.847   0.191  0.00  0.00    +0.003 C 
ENDROOT
BRANCH   4  12
ATOM     12  C   UNL     1       2.037  -0.015  -0.013  0.00  0.00    +0.035 C 
ATOM     13  C   UNL     1       2.908  -0.975   0.510  0.00  0.00    +0.003 C 
ATOM     14  C   UNL     1       2.549   1.185  -0.511  0.00  0.00    +0.003 C 
ATOM     15  C   UNL     1       4.282  -0.736   0.534  0.00  0.00    +0.000 C 
ATOM     16  C   UNL     1       3.923   1.424  -0.487  0.00  0.00    +0.000 C 
ATOM     17  C   UNL     1       4.789   0.464   0.035  0.00  0.00    +0.000 C 
ENDBRANCH   4  12
TORSDOF 1
