REMARK  Name = 11712628
REMARK  7 active torsions:
REMARK  status: ('A' for Active; 'I' for Inactive)
REMARK    1  A    between atoms: C_1  and  C_10
REMARK    2  A    between atoms: C_2  and  C_16
REMARK    3  A    between atoms: C_3  and  C_14
REMARK    4  A    between atoms: C_4  and  S_25
REMARK    5  A    between atoms: C_15  and  C_24
REMARK    6  A    between atoms: S_25  and  C_26
REMARK    7  A    between atoms: C_29  and  N_32
REMARK                            x       y       z     vdW  Elec       q    Type
REMARK                         _______ _______ _______ _____ _____    ______ ____
ROOT
ATOM      1  C   UNL     1       0.308   1.623  -0.290  0.00  0.00    +0.076 C 
ATOM      2  C   UNL     1      -0.480   0.719  -0.985  0.00  0.00    +0.004 C 
ATOM      3  C   UNL     1       1.697   1.509  -0.348  0.00  0.00    +0.081 C 
ATOM      4  C   UNL     1       2.282   0.491  -1.102  0.00  0.00    +0.033 C 
ATOM      5  C   UNL     1       0.088  -0.298  -1.738  0.00  0.00    +0.000 C 
ATOM      6  C   UNL     1       1.477  -0.412  -1.797  0.00  0.00    +0.006 C 
ENDROOT
BRANCH   1  10
ATOM      7  F   UNL     1      -1.677   2.711   0.486  0.00  0.00    -0.166 F 
ATOM      8  F   UNL     1       0.016   2.667   1.843  0.00  0.00    -0.166 F 
ATOM      9  F   UNL     1       0.061   3.957   0.093  0.00  0.00    -0.166 F 
ATOM     10  C   UNL     1      -0.314   2.719   0.521  0.00  0.00    +0.419 C 
ENDBRANCH   1  10
BRANCH   3  14
ATOM     11  F   UNL     1       1.814   3.418   1.088  0.00  0.00    -0.166 F 
ATOM     12  F   UNL     1       3.348   1.905   1.336  0.00  0.00    -0.166 F 
ATOM     13  F   UNL     1       3.371   3.196  -0.413  0.00  0.00    -0.166 F 
ATOM     14  C   UNL     1       2.542   2.490   0.405  0.00  0.00    +0.419 C 
ENDBRANCH   3  14
BRANCH   2  16
ATOM     15  C   UNL     1      -2.718   0.177  -0.059  0.00  0.00    +0.058 C 
ATOM     16  C   UNL     1      -1.950   0.810  -0.946  0.00  0.00    +0.005 C 
BRANCH  15  24
ATOM     17  O   UNL     1      -6.764  -2.888   0.287  0.00  0.00    -0.350 OA
ATOM     18  O   UNL     1      -4.589   1.438  -0.594  0.00  0.00    -0.270 OA
ATOM     19  N   UNL     1      -4.998  -0.688   0.249  0.00  0.00    -0.271 N 
ATOM     20  C   UNL     1      -6.446  -0.485   0.311  0.00  0.00    +0.126 C 
ATOM     21  C   UNL     1      -4.565  -1.989   0.776  0.00  0.00    +0.126 C 
ATOM     22  C   UNL     1      -7.170  -1.663  -0.328  0.00  0.00    +0.164 C 
ATOM     23  C   UNL     1      -5.361  -3.110   0.117  0.00  0.00    +0.164 C 
ATOM     24  C   UNL     1      -4.179   0.361  -0.157  0.00  0.00    +0.249 C 
ENDBRANCH  15  24
ENDBRANCH   2  16
BRANCH   4  25
ATOM     25  S   UNL     1       4.057   0.296  -1.212  0.00  0.00    -0.087 S 
BRANCH  25  26
ATOM     26  C   UNL     1       4.263  -1.346  -0.544  0.00  0.00    +0.031 C 
ATOM     27  C   UNL     1       3.851  -1.624   0.758  0.00  0.00    +0.021 C 
ATOM     28  C   UNL     1       4.837  -2.346  -1.326  0.00  0.00    +0.007 C 
ATOM     29  C   UNL     1       4.013  -2.907   1.279  0.00  0.00    +0.042 C 
ATOM     30  C   UNL     1       4.999  -3.630  -0.805  0.00  0.00    +0.002 C 
ATOM     31  C   UNL     1       4.587  -3.910   0.498  0.00  0.00    +0.014 C 
BRANCH  29  32
ATOM     32  N   UNL     1       3.597  -3.192   2.596  0.00  0.00    -0.357 N 
ATOM     33  H   UNL     1       3.192  -2.484   3.148  0.00  0.00    +0.142 HD
ATOM     34  H   UNL     1       3.711  -4.098   2.964  0.00  0.00    +0.142 HD
ENDBRANCH  29  32
ENDBRANCH  25  26
ENDBRANCH   4  25
TORSDOF 7
