REMARK  Name = 46937114
REMARK  6 active torsions:
REMARK  status: ('A' for Active; 'I' for Inactive)
REMARK    1  A    between atoms: C_1  and  C_2
REMARK    2  A    between atoms: C_1  and  O_4
REMARK    3  A    between atoms: C_1  and  C_9
REMARK    4  A    between atoms: O_4  and  P_6
REMARK    5  A    between atoms: C_9  and  O_10
REMARK    6  A    between atoms: O_10  and  C_11
REMARK                            x       y       z     vdW  Elec       q    Type
REMARK                         _______ _______ _______ _____ _____    ______ ____
ROOT
ATOM      1  C   UNL     1       1.429   0.855  -0.619  0.00  0.00    +0.166 C 
ENDROOT
BRANCH   1   2
ATOM      2  C   UNL     1       2.305   2.095  -0.437  0.00  0.00    +0.034 C 
ATOM      3  C   UNL     1       2.098   2.756   0.920  0.00  0.00    +0.003 C 
ENDBRANCH   1   2
BRANCH   1   4
ATOM      4  O   UNL     1       1.794  -0.115   0.362  0.00  0.00    -0.302 OA
BRANCH   4   6
ATOM      5 CL   UNL     1       3.330  -1.925   1.877  0.00  0.00    -0.026 Cl
ATOM      6  P   UNL     1       3.101  -1.022   0.103  0.00  0.00    +0.302 P 
ATOM      7  O   UNL     1       4.337  -0.281  -0.313  0.00  0.00    -0.273 OA
ATOM      8  C   UNL     1       2.576  -2.302  -1.016  0.00  0.00    +0.114 C 
ENDBRANCH   4   6
ENDBRANCH   1   4
BRANCH   1   9
ATOM      9  C   UNL     1      -0.049   1.195  -0.445  0.00  0.00    +0.235 C 
BRANCH   9  10
ATOM     10  O   UNL     1      -0.852   0.171  -1.024  0.00  0.00    -0.473 OA
BRANCH  10  11
ATOM     11  C   UNL     1      -2.087  -0.031  -0.468  0.00  0.00    +0.139 C 
ATOM     12  C   UNL     1      -2.768   1.032   0.123  0.00  0.00    +0.037 C 
ATOM     13  C   UNL     1      -2.663  -1.301  -0.493  0.00  0.00    +0.037 C 
ATOM     14  C   UNL     1      -4.026   0.826   0.690  0.00  0.00    +0.003 C 
ATOM     15  C   UNL     1      -3.921  -1.508   0.073  0.00  0.00    +0.003 C 
ATOM     16  C   UNL     1      -4.603  -0.444   0.665  0.00  0.00    +0.000 C 
ENDBRANCH  10  11
ENDBRANCH   9  10
ENDBRANCH   1   9
TORSDOF 6
