REMARK  Name = 24880024
REMARK  5 active torsions:
REMARK  status: ('A' for Active; 'I' for Inactive)
REMARK    1  A    between atoms: N_5  and  C_12
REMARK    2  A    between atoms: C_6  and  C_22
REMARK    3  A    between atoms: C_13  and  C_21
REMARK    4  A    between atoms: C_22  and  C_23
REMARK    5  A    between atoms: C_23  and  N_25
REMARK                            x       y       z     vdW  Elec       q    Type
REMARK                         _______ _______ _______ _____ _____    ______ ____
ROOT
ATOM      1  S   UNL     1       1.471  -1.673   1.617  0.00  0.00    -0.056 S 
ATOM      2  O   UNL     1      -2.162  -2.039  -1.293  0.00  0.00    -0.252 OA
ATOM      3  N   UNL     1       0.645  -2.799  -0.559  0.00  0.00    -0.223 NA
ATOM      4  N   UNL     1      -0.902  -1.328   0.558  0.00  0.00    -0.248 N 
ATOM      5  N   UNL     1      -3.083  -0.551   0.259  0.00  0.00    -0.268 N 
ATOM      6  C   UNL     1       2.548  -2.729   0.801  0.00  0.00    +0.031 C 
ATOM      7  C   UNL     1       1.937  -3.229  -0.330  0.00  0.00    +0.103 C 
ATOM      8  C   UNL     1       0.295  -1.975   0.404  0.00  0.00    +0.166 C 
ATOM      9  C   UNL     1      -2.072  -1.371  -0.268  0.00  0.00    +0.310 C 
ATOM     10  H   UNL     1      -0.969  -0.749   1.352  0.00  0.00    +0.158 HD
ATOM     11  H   UNL     1      -2.863  -0.075   1.092  0.00  0.00    +0.156 HD
ENDROOT
BRANCH   5  12
ATOM     12  C   UNL     1      -4.380  -0.326  -0.260  0.00  0.00    +0.052 C 
ATOM     13  C   UNL     1      -6.537   0.751  -0.108  0.00  0.00    +0.073 C 
ATOM     14  C   UNL     1      -5.259   0.529   0.404  0.00  0.00    +0.019 C 
ATOM     15  C   UNL     1      -4.779  -0.959  -1.437  0.00  0.00    +0.015 C 
ATOM     16  C   UNL     1      -6.936   0.118  -1.285  0.00  0.00    +0.004 C 
ATOM     17  C   UNL     1      -6.057  -0.737  -1.950  0.00  0.00    +0.001 C 
BRANCH  13  21
ATOM     18  F   UNL     1      -8.691   1.787  -0.012  0.00  0.00    -0.166 F 
ATOM     19  F   UNL     1      -7.763   1.271   1.879  0.00  0.00    -0.166 F 
ATOM     20  F   UNL     1      -6.993   2.936   0.711  0.00  0.00    -0.166 F 
ATOM     21  C   UNL     1      -7.478   1.665   0.602  0.00  0.00    +0.419 C 
ENDBRANCH  13  21
ENDBRANCH   5  12
BRANCH   6  22
ATOM     22  C   UNL     1       3.932  -2.985   1.346  0.00  0.00    +0.056 C 
BRANCH  22  23
ATOM     23  C   UNL     1       5.019  -2.196   0.617  0.00  0.00    +0.093 C 
BRANCH  23  25
ATOM     24  S   UNL     1       4.013   2.320   0.962  0.00  0.00    -0.101 S 
ATOM     25  N   UNL     1       4.763  -0.789   0.684  0.00  0.00    -0.320 N 
ATOM     26  N   UNL     1       6.644  -0.237  -0.666  0.00  0.00    -0.233 NA
ATOM     27  N   UNL     1       7.205   2.047  -1.234  0.00  0.00    -0.247 NA
ATOM     28  C   UNL     1       5.574   0.168   0.046  0.00  0.00    +0.118 C 
ATOM     29  C   UNL     1       5.291   1.526   0.136  0.00  0.00    +0.145 C 
ATOM     30  C   UNL     1       6.122   2.439  -0.512  0.00  0.00    +0.073 C 
ATOM     31  C   UNL     1       5.689   3.785  -0.317  0.00  0.00    +0.022 C 
ATOM     32  C   UNL     1       4.558   3.861   0.463  0.00  0.00    +0.033 C 
ATOM     33  C   UNL     1       7.387   0.717  -1.257  0.00  0.00    +0.251 C 
ATOM     34  H   UNL     1       3.986  -0.477   1.201  0.00  0.00    +0.148 HD
ENDBRANCH  23  25
ENDBRANCH  22  23
ENDBRANCH   6  22
TORSDOF 5
