REMARK  Name = 4634717
REMARK  7 active torsions:
REMARK  status: ('A' for Active; 'I' for Inactive)
REMARK    1  A    between atoms: C_1  and  C_12
REMARK    2  A    between atoms: C_2  and  C_11
REMARK    3  A    between atoms: C_5  and  N_7
REMARK    4  A    between atoms: C_12  and  C_14
REMARK    5  A    between atoms: C_14  and  O_15
REMARK    6  A    between atoms: O_15  and  C_16
REMARK    7  A    between atoms: C_16  and  C_18
REMARK                            x       y       z     vdW  Elec       q    Type
REMARK                         _______ _______ _______ _____ _____    ______ ____
ROOT
ATOM      1  C   UNL     1       0.873   0.308  -0.570  0.00  0.00    -0.008 C 
ATOM      2  C   UNL     1       1.531  -0.807  -0.052  0.00  0.00    +0.040 C 
ATOM      3  C   UNL     1       1.560   1.511  -0.731  0.00  0.00    -0.002 C 
ATOM      4  C   UNL     1       2.876  -0.720   0.305  0.00  0.00    +0.017 C 
ATOM      5  C   UNL     1       3.564   0.483   0.143  0.00  0.00    +0.042 C 
ATOM      6  C   UNL     1       2.906   1.599  -0.375  0.00  0.00    +0.014 C 
ENDROOT
BRANCH   5   7
ATOM      7  N   UNL     1       4.925   0.572   0.504  0.00  0.00    -0.357 N 
ATOM      8  H   UNL     1       5.390  -0.215   0.870  0.00  0.00    +0.142 HD
ATOM      9  H   UNL     1       5.410   1.421   0.390  0.00  0.00    +0.142 HD
ENDBRANCH   5   7
BRANCH   2  11
ATOM     10  O   UNL     1       1.403  -3.167   0.054  0.00  0.00    -0.283 OA
ATOM     11  C   UNL     1       0.836  -2.075   0.127  0.00  0.00    +0.234 C 
ENDBRANCH   2  11
BRANCH   1  12
ATOM     12  C   UNL     1      -0.568   0.242  -0.959  0.00  0.00    +0.136 C 
BRANCH  12  14
ATOM     13  O   UNL     1      -1.169   0.949   1.291  0.00  0.00    -0.250 OA
ATOM     14  C   UNL     1      -1.514   0.597   0.171  0.00  0.00    +0.321 C 
BRANCH  14  15
ATOM     15  O   UNL     1      -2.803   0.461  -0.262  0.00  0.00    -0.447 OA
BRANCH  15  16
ATOM     16  C   UNL     1      -3.813   0.765   0.705  0.00  0.00    +0.221 C 
BRANCH  16  18
ATOM     17 BR   UNL     1      -5.425  -1.290  -0.442  0.00  0.00    -0.077 Br
ATOM     18  C   UNL     1      -5.183   0.572   0.089  0.00  0.00    +0.115 C 
ENDBRANCH  16  18
ENDBRANCH  15  16
ENDBRANCH  14  15
ENDBRANCH  12  14
ENDBRANCH   1  12
TORSDOF 7
