REMARK  Name = 9865587
REMARK  5 active torsions:
REMARK  status: ('A' for Active; 'I' for Inactive)
REMARK    1  A    between atoms: C_3  and  C_9
REMARK    2  A    between atoms: C_4  and  C_27
REMARK    3  A    between atoms: C_5  and  C_19
REMARK    4  A    between atoms: C_14  and  C_15
REMARK    5  A    between atoms: C_15  and  O_16
REMARK                            x       y       z     vdW  Elec       q    Type
REMARK                         _______ _______ _______ _____ _____    ______ ____
ROOT
ATOM      1  N   UNL     1       0.273   1.846   0.080  0.00  0.00    -0.280 N 
ATOM      2  N   UNL     1      -1.005   2.261   0.064  0.00  0.00    -0.173 NA
ATOM      3  C   UNL     1       0.404   0.493   0.059  0.00  0.00    +0.054 A 
ATOM      4  C   UNL     1      -0.863  -0.019   0.029  0.00  0.00    +0.050 A 
ATOM      5  C   UNL     1      -1.695   1.117   0.033  0.00  0.00    +0.103 A 
ATOM      6  H   UNL     1       1.041   2.462   0.103  0.00  0.00    +0.189 HD
ENDROOT
BRANCH   3   9
ATOM      7  O   UNL     1       6.495   0.698   1.289  0.00  0.00    -0.272 OA
ATOM      8  N   UNL     1       4.670  -0.140   0.122  0.00  0.00    -0.277 N 
ATOM      9  C   UNL     1       1.774  -0.167   0.072  0.00  0.00    +0.043 C 
ATOM     10  C   UNL     1       2.559   0.155   1.357  0.00  0.00    +0.027 C 
ATOM     11  C   UNL     1       2.601   0.197  -1.175  0.00  0.00    +0.027 C 
ATOM     12  C   UNL     1       3.937  -0.504   1.336  0.00  0.00    +0.094 C 
ATOM     13  C   UNL     1       3.979  -0.464  -1.132  0.00  0.00    +0.094 C 
ATOM     14  C   UNL     1       5.929   0.450   0.221  0.00  0.00    +0.256 C 
BRANCH  14  15
ATOM     15  C   UNL     1       6.617   0.798  -1.075  0.00  0.00    +0.223 C 
BRANCH  15  16
ATOM     16  O   UNL     1       7.838   1.405  -0.732  0.00  0.00    -0.374 OA
ATOM     17  H   UNL     1       8.317   1.647  -1.540  0.00  0.00    +0.211 HD
ENDBRANCH  15  16
ENDBRANCH  14  15
ENDBRANCH   3   9
BRANCH   5  19
ATOM     18 CL   UNL     1      -7.639   1.220  -0.068  0.00  0.00    -0.082 Cl
ATOM     19  C   UNL     1      -3.135   1.144   0.009  0.00  0.00    +0.019 C 
ATOM     20  C   UNL     1      -3.848   1.137   1.205  0.00  0.00    +0.002 C 
ATOM     21  C   UNL     1      -3.807   1.174  -1.210  0.00  0.00    +0.002 C 
ATOM     22  C   UNL     1      -5.243   1.160   1.181  0.00  0.00    +0.011 C 
ATOM     23  C   UNL     1      -5.201   1.198  -1.234  0.00  0.00    +0.011 C 
ATOM     24  C   UNL     1      -5.919   1.191  -0.038  0.00  0.00    +0.058 C 
ENDBRANCH   5  19
BRANCH   4  27
ATOM     25  N   UNL     1      -1.274  -1.975  -1.224  0.00  0.00    -0.224 NA
ATOM     26  N   UNL     1      -1.749  -4.082  -0.156  0.00  0.00    -0.222 NA
ATOM     27  C   UNL     1      -1.169  -1.419   0.002  0.00  0.00    +0.087 C 
ATOM     28  C   UNL     1      -1.338  -2.122   1.178  0.00  0.00    +0.040 C 
ATOM     29  C   UNL     1      -1.629  -3.463   1.036  0.00  0.00    +0.102 C 
ATOM     30  C   UNL     1      -1.562  -3.290  -1.229  0.00  0.00    +0.199 C 
ENDBRANCH   4  27
TORSDOF 5
