REMARK  Name = 776315
REMARK  4 active torsions:
REMARK  status: ('A' for Active; 'I' for Inactive)
REMARK    1  A    between atoms: C_2  and  C_6
REMARK    2  A    between atoms: C_4  and  C_15
REMARK    3  A    between atoms: C_7  and  O_12
REMARK    4  A    between atoms: C_15  and  O_16
REMARK                            x       y       z     vdW  Elec       q    Type
REMARK                         _______ _______ _______ _____ _____    ______ ____
ROOT
ATOM      1  O   UNL     1       1.329  -0.536   0.000  0.00  0.00    -0.447 OA
ATOM      2  C   UNL     1       0.266   0.305  -0.001  0.00  0.00    +0.149 C 
ATOM      3  C   UNL     1       0.670   1.613  -0.001  0.00  0.00    +0.041 C 
ATOM      4  C   UNL     1       2.436   0.251   0.000  0.00  0.00    +0.220 C 
ATOM      5  C   UNL     1       2.085   1.581   0.000  0.00  0.00    +0.047 C 
ENDROOT
BRANCH   2   6
ATOM      6  C   UNL     1      -1.026  -0.342  -0.001  0.00  0.00    +0.068 C 
ATOM      7  C   UNL     1      -2.202   0.409   0.000  0.00  0.00    +0.142 C 
ATOM      8  C   UNL     1      -1.088  -1.735  -0.001  0.00  0.00    +0.006 C 
ATOM      9  C   UNL     1      -3.439  -0.234   0.001  0.00  0.00    +0.037 C 
ATOM     10  C   UNL     1      -2.326  -2.378   0.000  0.00  0.00    +0.000 C 
ATOM     11  C   UNL     1      -3.502  -1.627   0.001  0.00  0.00    +0.003 C 
BRANCH   7  12
ATOM     12  O   UNL     1      -2.171   1.772   0.000  0.00  0.00    -0.471 OA
ATOM     13  C   UNL     1      -3.427   2.447   0.001  0.00  0.00    +0.252 C 
ENDBRANCH   7  12
ENDBRANCH   2   6
BRANCH   4  15
ATOM     14  O   UNL     1       3.922  -1.624   0.001  0.00  0.00    -0.242 OA
ATOM     15  C   UNL     1       3.708  -0.389   0.001  0.00  0.00    +0.373 C 
BRANCH  15  16
ATOM     16  O   UNL     1       4.766   0.486   0.000  0.00  0.00    -0.475 OA
ATOM     17  H   UNL     1       4.610   1.410   0.000  0.00  0.00    +0.296 HD
ENDBRANCH  15  16
ENDBRANCH   4  15
TORSDOF 4
