REMARK  Name = 9882812
REMARK  9 active torsions:
REMARK  status: ('A' for Active; 'I' for Inactive)
REMARK    1  A    between atoms: C_1  and  C_2
REMARK    2  A    between atoms: C_1  and  C_12
REMARK    3  A    between atoms: C_2  and  C_3
REMARK    4  A    between atoms: C_3  and  C_4
REMARK    5  A    between atoms: C_4  and  C_5
REMARK    6  A    between atoms: C_5  and  C_7
REMARK    7  A    between atoms: C_7  and  C_11
REMARK    8  A    between atoms: C_12  and  C_15
REMARK    9  A    between atoms: N_14  and  C_17
REMARK                            x       y       z     vdW  Elec       q    Type
REMARK                         _______ _______ _______ _____ _____    ______ ____
ROOT
ATOM      1  C   UNL     1       0.458   0.088   0.170  0.00  0.00    +0.010 C 
ENDROOT
BRANCH   1   2
ATOM      2  C   UNL     1      -0.838  -0.727   0.140  0.00  0.00    +0.001 C 
BRANCH   2   3
ATOM      3  C   UNL     1      -2.071   0.174   0.202  0.00  0.00    +0.000 C 
BRANCH   3   4
ATOM      4  C   UNL     1      -3.401  -0.591   0.161  0.00  0.00    +0.008 C 
BRANCH   4   5
ATOM      5  C   UNL     1      -4.640   0.306   0.151  0.00  0.00    +0.073 C 
BRANCH   5   7
ATOM      6  O   UNL     1      -6.016  -1.671  -0.072  0.00  0.00    -0.287 OA
ATOM      7  C   UNL     1      -5.953  -0.444  -0.007  0.00  0.00    +0.244 C 
BRANCH   7  11
ATOM      8  F   UNL     1      -6.909   1.724  -0.046  0.00  0.00    -0.163 F 
ATOM      9  F   UNL     1      -7.852   0.195  -1.281  0.00  0.00    -0.163 F 
ATOM     10  F   UNL     1      -8.068   0.129   0.887  0.00  0.00    -0.163 F 
ATOM     11  C   UNL     1      -7.192   0.399  -0.113  0.00  0.00    +0.451 C 
ENDBRANCH   7  11
ENDBRANCH   5   7
ENDBRANCH   4   5
ENDBRANCH   3   4
ENDBRANCH   2   3
ENDBRANCH   1   2
BRANCH   1  12
ATOM     12  C   UNL     1       1.708  -0.789   0.092  0.00  0.00    +0.085 C 
BRANCH  12  15
ATOM     13  O   UNL     1       2.917   1.270   0.138  0.00  0.00    -0.275 OA
ATOM     14  N   UNL     1       4.118  -0.746  -0.002  0.00  0.00    -0.284 N 
ATOM     15  C   UNL     1       2.978   0.045   0.068  0.00  0.00    +0.226 C 
ATOM     16  H   UNL     1       3.971  -1.719  -0.027  0.00  0.00    +0.155 HD
BRANCH  14  17
ATOM     17  C   UNL     1       5.465  -0.317  -0.042  0.00  0.00    +0.050 C 
ATOM     18  C   UNL     1       6.494  -1.255  -0.112  0.00  0.00    +0.015 C 
ATOM     19  C   UNL     1       5.764   1.046  -0.011  0.00  0.00    +0.015 C 
ATOM     20  C   UNL     1       7.823  -0.832  -0.152  0.00  0.00    +0.001 C 
ATOM     21  C   UNL     1       7.093   1.469  -0.051  0.00  0.00    +0.001 C 
ATOM     22  C   UNL     1       8.122   0.530  -0.121  0.00  0.00    +0.000 C 
ENDBRANCH  14  17
ENDBRANCH  12  15
ENDBRANCH   1  12
TORSDOF 9
