REMARK  Name = 656580
REMARK  13 active torsions:
REMARK  status: ('A' for Active; 'I' for Inactive)
REMARK    1  A    between atoms: C_1  and  N_3
REMARK    2  A    between atoms: C_1  and  C_9
REMARK    3  A    between atoms: C_1  and  C_21
REMARK    4  A    between atoms: C_4  and  C_8
REMARK    5  A    between atoms: C_9  and  C_10
REMARK    6  A    between atoms: C_9  and  O_19
REMARK    7  A    between atoms: C_15  and  N_18
REMARK    8  A    between atoms: C_21  and  O_22
REMARK    9  A    between atoms: O_22  and  C_24
REMARK   10  A    between atoms: C_24  and  C_25
REMARK   11  A    between atoms: C_25  and  C_26
REMARK   12  A    between atoms: C_26  and  C_28
REMARK   13  A    between atoms: C_28  and  O_29
REMARK                            x       y       z     vdW  Elec       q    Type
REMARK                         _______ _______ _______ _____ _____    ______ ____
ROOT
ATOM      1  C   UNL     1      -0.167  -1.657   0.072  0.00  0.00    +0.147 C 
ENDROOT
BRANCH   1   3
ATOM      2  O   UNL     1      -1.550  -3.759   1.449  0.00  0.00    -0.272 OA
ATOM      3  N   UNL     1      -1.320  -2.394  -0.411  0.00  0.00    -0.298 N 
ATOM      4  C   UNL     1      -1.918  -3.395   0.333  0.00  0.00    +0.253 C 
ATOM      5  H   UNL     1      -1.689  -2.174  -1.297  0.00  0.00    +0.150 HD
BRANCH   4   8
ATOM      6 CL   UNL     1      -2.768  -5.737  -0.600  0.00  0.00    -0.087 Cl
ATOM      7 CL   UNL     1      -4.536  -3.764   0.629  0.00  0.00    -0.087 Cl
ATOM      8  C   UNL     1      -3.100  -4.012  -0.377  0.00  0.00    +0.234 C 
ENDBRANCH   4   8
ENDBRANCH   1   3
BRANCH   1   9
ATOM      9  C   UNL     1       0.726  -1.253  -1.121  0.00  0.00    +0.154 C 
BRANCH   9  10
ATOM     10  C   UNL     1       2.025  -0.592  -0.718  0.00  0.00    +0.006 C 
ATOM     11  C   UNL     1       2.328   0.663  -1.219  0.00  0.00    -0.000 C 
ATOM     12  C   UNL     1       2.883  -1.254   0.144  0.00  0.00    -0.000 C 
ATOM     13  C   UNL     1       3.526   1.273  -0.848  0.00  0.00    +0.024 C 
ATOM     14  C   UNL     1       4.081  -0.643   0.515  0.00  0.00    +0.024 C 
ATOM     15  C   UNL     1       4.402   0.621   0.019  0.00  0.00    +0.143 C 
BRANCH  15  18
ATOM     16  O   UNL     1       5.891   2.380  -0.060  0.00  0.00    -0.126 OA
ATOM     17  O   UNL     1       6.396   0.639   1.179  0.00  0.00    -0.126 OA
ATOM     18  N   UNL     1       5.621   1.243   0.397  0.00  0.00    +0.058 N 
ENDBRANCH  15  18
ENDBRANCH   9  10
BRANCH   9  19
ATOM     19  O   UNL     1       1.066  -2.420  -1.877  0.00  0.00    -0.378 OA
ATOM     20  H   UNL     1       0.255  -2.874  -2.154  0.00  0.00    +0.211 HD
ENDBRANCH   9  19
ENDBRANCH   1   9
BRANCH   1  21
ATOM     21  C   UNL     1      -0.639  -0.478   0.930  0.00  0.00    +0.231 C 
BRANCH  21  22
ATOM     22  O   UNL     1      -1.402   0.460   0.164  0.00  0.00    -0.447 OA
BRANCH  22  24
ATOM     23  O   UNL     1      -1.681   1.770   2.041  0.00  0.00    -0.250 OA
ATOM     24  C   UNL     1      -1.864   1.546   0.853  0.00  0.00    +0.318 C 
BRANCH  24  25
ATOM     25  C   UNL     1      -2.646   2.428  -0.096  0.00  0.00    +0.121 C 
BRANCH  25  26
ATOM     26  C   UNL     1      -3.137   3.717   0.552  0.00  0.00    +0.121 C 
BRANCH  26  28
ATOM     27  O   UNL     1      -4.045   4.284  -1.614  0.00  0.00    -0.250 OA
ATOM     28  C   UNL     1      -3.861   4.589  -0.443  0.00  0.00    +0.314 C 
BRANCH  28  29
ATOM     29  O   UNL     1      -4.311   5.745   0.105  0.00  0.00    -0.480 OA
ATOM     30  H   UNL     1      -4.144   5.932   1.008  0.00  0.00    +0.295 HD
ENDBRANCH  28  29
ENDBRANCH  26  28
ENDBRANCH  25  26
ENDBRANCH  24  25
ENDBRANCH  22  24
ENDBRANCH  21  22
ENDBRANCH   1  21
TORSDOF 13
