REMARK  Name = 24180721
REMARK  2 active torsions:
REMARK  status: ('A' for Active; 'I' for Inactive)
REMARK    1  A    between atoms: C_4  and  N_11
REMARK    2  A    between atoms: N_11  and  C_13
REMARK                            x       y       z     vdW  Elec       q    Type
REMARK                         _______ _______ _______ _____ _____    ______ ____
ROOT
ATOM      1  N   UNL     1      -1.744   1.858  -0.465  0.00  0.00    -0.296 N 
ATOM      2  N   UNL     1      -3.883   0.854   0.007  0.00  0.00    -0.229 NA
ATOM      3  C   UNL     1      -1.738  -0.334  -0.038  0.00  0.00    +0.046 C 
ATOM      4  C   UNL     1      -0.406   0.089  -0.292  0.00  0.00    +0.066 C 
ATOM      5  C   UNL     1      -2.547   0.792  -0.153  0.00  0.00    +0.133 C 
ATOM      6  C   UNL     1      -0.441   1.442  -0.552  0.00  0.00    +0.078 C 
ATOM      7  C   UNL     1      -2.365  -1.550   0.280  0.00  0.00    +0.006 C 
ATOM      8  C   UNL     1      -3.747  -1.544   0.456  0.00  0.00    +0.021 C 
ATOM      9  C   UNL     1      -4.433  -0.345   0.311  0.00  0.00    +0.100 C 
ATOM     10  H   UNL     1      -2.056   2.781  -0.604  0.00  0.00    +0.154 HD
ENDROOT
BRANCH   4  11
ATOM     11  N   UNL     1       0.702  -0.682  -0.285  0.00  0.00    -0.311 N 
ATOM     12  H   UNL     1       0.522  -1.635  -0.456  0.00  0.00    +0.152 HD
BRANCH  11  13
ATOM     13  C   UNL     1       2.084  -0.386  -0.079  0.00  0.00    +0.048 C 
ATOM     14  C   UNL     1       3.061  -1.085  -0.788  0.00  0.00    +0.015 C 
ATOM     15  C   UNL     1       2.457   0.603   0.831  0.00  0.00    +0.015 C 
ATOM     16  C   UNL     1       4.410  -0.796  -0.588  0.00  0.00    +0.001 C 
ATOM     17  C   UNL     1       3.807   0.892   1.032  0.00  0.00    +0.001 C 
ATOM     18  C   UNL     1       4.784   0.193   0.323  0.00  0.00    +0.000 C 
ENDBRANCH  11  13
ENDBRANCH   4  11
TORSDOF 2
