REMARK  Name = 46937102
REMARK  8 active torsions:
REMARK  status: ('A' for Active; 'I' for Inactive)
REMARK    1  A    between atoms: C_1  and  C_6
REMARK    2  A    between atoms: C_1  and  N_17
REMARK    3  A    between atoms: C_1  and  C_26
REMARK    4  A    between atoms: N_3  and  C_8
REMARK    5  A    between atoms: C_8  and  C_10
REMARK    6  A    between atoms: C_8  and  C_12
REMARK    7  A    between atoms: C_12  and  C_13
REMARK    8  A    between atoms: C_18  and  C_20
REMARK                            x       y       z     vdW  Elec       q    Type
REMARK                         _______ _______ _______ _____ _____    ______ ____
ROOT
ATOM      1  C   UNL     1      -0.394  -2.030   0.731  0.00  0.00    +0.091 C 
ATOM      2  C   UNL     1      -0.843  -2.286   2.216  0.00  0.00    +0.026 C 
ENDROOT
BRANCH   1   6
ATOM      3  N   UNL     1       2.477   0.074   0.230  0.00  0.00    -0.157 NA
ATOM      4  N   UNL     1       1.768  -1.326   1.702  0.00  0.00    -0.152 NA
ATOM      5  N   UNL     1       2.773  -0.510   1.403  0.00  0.00    -0.063 NA
ATOM      6  C   UNL     1       0.845  -1.241   0.698  0.00  0.00    +0.091 C 
ATOM      7  C   UNL     1       1.278  -0.351  -0.253  0.00  0.00    +0.140 C 
BRANCH   3   8
ATOM      8  C   UNL     1       3.432   1.070  -0.403  0.00  0.00    +0.141 C 
BRANCH   8  10
ATOM      9  O   UNL     1       3.837   1.144  -2.793  0.00  0.00    -0.295 OA
ATOM     10  C   UNL     1       3.968   0.533  -1.732  0.00  0.00    +0.167 C 
ATOM     11  C   UNL     1       4.703  -0.784  -1.688  0.00  0.00    +0.074 C 
ENDBRANCH   8  10
BRANCH   8  12
ATOM     12  C   UNL     1       2.795   2.464  -0.587  0.00  0.00    +0.051 C 
BRANCH  12  13
ATOM     13  C   UNL     1       2.366   3.079   0.717  0.00  0.00    -0.029 C 
ATOM     14  C   UNL     1       1.102   3.433   0.994  0.00  0.00    -0.030 C 
ATOM     15  C   UNL     1       0.675   4.044   2.287  0.00  0.00    +0.030 C 
ENDBRANCH  12  13
ENDBRANCH   8  12
ENDBRANCH   3   8
ENDBRANCH   1   6
BRANCH   1  17
ATOM     16  O   UNL     1      -1.591   0.453   1.534  0.00  0.00    -0.270 OA
ATOM     17  N   UNL     1      -1.569  -1.365   0.103  0.00  0.00    -0.299 N 
ATOM     18  C   UNL     1      -2.041  -0.180   0.584  0.00  0.00    +0.246 C 
ATOM     19  H   UNL     1      -2.010  -1.787  -0.669  0.00  0.00    +0.150 HD
BRANCH  18  20
ATOM     20  C   UNL     1      -3.234   0.338  -0.134  0.00  0.00    +0.053 C 
ATOM     21  C   UNL     1      -4.140   1.168   0.527  0.00  0.00    +0.005 C 
ATOM     22  C   UNL     1      -3.448  -0.005  -1.469  0.00  0.00    +0.005 C 
ATOM     23  C   UNL     1      -5.259   1.656  -0.148  0.00  0.00    +0.000 C 
ATOM     24  C   UNL     1      -4.567   0.482  -2.143  0.00  0.00    +0.000 C 
ATOM     25  C   UNL     1      -5.473   1.313  -1.483  0.00  0.00    +0.000 C 
ENDBRANCH  18  20
ENDBRANCH   1  17
BRANCH   1  26
ATOM     26  C   UNL     1      -0.260  -3.451   0.003  0.00  0.00    +0.022 C 
ATOM     27  C   UNL     1       0.774  -4.417   0.604  0.00  0.00    +0.002 C 
ATOM     28  C   UNL     1       0.027  -3.304  -1.501  0.00  0.00    +0.002 C 
ENDBRANCH   1  26
TORSDOF 8
