REMARK  Name = 446106
REMARK  5 active torsions:
REMARK  status: ('A' for Active; 'I' for Inactive)
REMARK    1  A    between atoms: C_1  and  C_4
REMARK    2  A    between atoms: C_1  and  C_12
REMARK    3  A    between atoms: C_1  and  N_15
REMARK    4  A    between atoms: N_15  and  C_17
REMARK    5  A    between atoms: C_18  and  C_25
REMARK                            x       y       z     vdW  Elec       q    Type
REMARK                         _______ _______ _______ _____ _____    ______ ____
ROOT
ATOM      1  C   UNL     1       0.801   0.730  -0.196  0.00  0.00    +0.170 C 
ENDROOT
BRANCH   1   4
ATOM      2 BR   UNL     1       2.219   2.232   2.198  0.00  0.00    -0.049 Br
ATOM      3 BR   UNL     1       1.738  -1.700  -1.987  0.00  0.00    -0.049 Br
ATOM      4  C   UNL     1       2.171   0.191   0.154  0.00  0.00    +0.017 C 
ATOM      5  C   UNL     1       2.889   0.771   1.190  0.00  0.00    +0.033 C 
ATOM      6  C   UNL     1       2.688  -0.877  -0.566  0.00  0.00    +0.033 C 
ATOM      7  C   UNL     1       4.151   0.272   1.513  0.00  0.00    +0.006 C 
ATOM      8  C   UNL     1       3.950  -1.376  -0.242  0.00  0.00    +0.006 C 
ATOM      9  C   UNL     1       4.682  -0.801   0.797  0.00  0.00    +0.001 C 
ENDBRANCH   1   4
BRANCH   1  12
ATOM     10  O   UNL     1      -0.010   0.746  -2.481  0.00  0.00    -0.273 OA
ATOM     11  N   UNL     1       1.627   2.245  -1.891  0.00  0.00    -0.327 N 
ATOM     12  C   UNL     1       0.742   1.220  -1.633  0.00  0.00    +0.242 C 
ATOM     13  H   UNL     1       1.674   2.641  -2.791  0.00  0.00    +0.145 HD
ATOM     14  H   UNL     1       2.212   2.582  -1.174  0.00  0.00    +0.145 HD
ENDBRANCH   1  12
BRANCH   1  15
ATOM     15  N   UNL     1      -0.197  -0.274  -0.005  0.00  0.00    -0.324 N 
ATOM     16  H   UNL     1       0.082  -1.218   0.016  0.00  0.00    +0.147 HD
BRANCH  15  17
ATOM     17  C   UNL     1      -1.568   0.029   0.153  0.00  0.00    +0.048 C 
ATOM     18  C   UNL     1      -2.509  -0.984   0.337  0.00  0.00    +0.048 C 
ATOM     19  C   UNL     1      -1.976   1.363   0.125  0.00  0.00    +0.010 C 
ATOM     20  C   UNL     1      -3.325   1.683   0.279  0.00  0.00    -0.021 C 
ATOM     21  C   UNL     1      -3.858  -0.664   0.491  0.00  0.00    +0.004 C 
ATOM     22  C   UNL     1      -4.266   0.670   0.462  0.00  0.00    -0.004 C 
ATOM     23  C   UNL     1      -3.761   3.109   0.249  0.00  0.00    +0.031 C 
BRANCH  18  25
ATOM     24  O   UNL     1      -0.993  -2.735   0.785  0.00  0.00    -0.291 OA
ATOM     25  C   UNL     1      -2.115  -2.387   0.371  0.00  0.00    +0.175 C 
ATOM     26  C   UNL     1      -3.081  -3.465  -0.104  0.00  0.00    +0.077 C 
ENDBRANCH  18  25
ENDBRANCH  15  17
ENDBRANCH   1  15
TORSDOF 5
