REMARK  Name = 25011731
REMARK  3 active torsions:
REMARK  status: ('A' for Active; 'I' for Inactive)
REMARK    1  A    between atoms: N_1  and  C_24
REMARK    2  A    between atoms: N_2  and  C_15
REMARK    3  A    between atoms: C_21  and  N_28
REMARK                            x       y       z     vdW  Elec       q    Type
REMARK                         _______ _______ _______ _____ _____    ______ ____
ROOT
ATOM      1  N   UNL     1       0.349   3.357   0.176  0.00  0.00    -0.247 N 
ATOM      2  N   UNL     1       2.794  -0.610   0.954  0.00  0.00    -0.284 N 
ATOM      3  N   UNL     1       1.543   1.377   0.557  0.00  0.00    -0.322 NA
ATOM      4  N   UNL     1       2.591   3.529   0.836  0.00  0.00    -0.170 NA
ATOM      5  C   UNL     1       1.553   2.723   0.541  0.00  0.00    +0.150 C 
ATOM      6  C   UNL     1       2.712   0.803   0.910  0.00  0.00    +0.198 C 
ATOM      7  C   UNL     1       3.849   1.515   1.236  0.00  0.00    +0.070 C 
ATOM      8  C   UNL     1       3.728   2.889   1.181  0.00  0.00    +0.116 C 
ATOM      9  H   UNL     1       0.404   4.340   0.178  0.00  0.00    +0.165 HD
ATOM     10  H   UNL     1       3.436  -0.950   1.619  0.00  0.00    +0.155 HD
ENDROOT
BRANCH   2  15
ATOM     11 CL   UNL     1       2.368  -3.263   2.400  0.00  0.00    -0.081 Cl
ATOM     12  O   UNL     1       1.877  -0.236  -1.761  0.00  0.00    -0.433 OA
ATOM     13  O   UNL     1       0.748  -1.934  -3.045  0.00  0.00    -0.435 OA
ATOM     14  C   UNL     1       1.719  -1.393  -1.062  0.00  0.00    +0.191 C 
ATOM     15  C   UNL     1       2.137  -1.621   0.233  0.00  0.00    +0.098 C 
ATOM     16  C   UNL     1       1.074  -2.363  -1.795  0.00  0.00    +0.178 C 
ATOM     17  C   UNL     1       1.883  -2.879   0.785  0.00  0.00    +0.074 C 
ATOM     18  C   UNL     1       0.811  -3.613  -1.274  0.00  0.00    +0.041 C 
ATOM     19  C   UNL     1       1.261  -0.587  -3.017  0.00  0.00    +0.429 C 
ATOM     20  C   UNL     1       1.224  -3.869   0.036  0.00  0.00    +0.016 C 
ENDBRANCH   2  15
BRANCH   1  24
ATOM     21  C   UNL     1      -2.620   1.151  -0.043  0.00  0.00    +0.049 C 
ATOM     22  C   UNL     1      -1.366   1.643   0.322  0.00  0.00    +0.030 C 
ATOM     23  C   UNL     1      -3.425   1.877  -0.920  0.00  0.00    +0.015 C 
ATOM     24  C   UNL     1      -0.918   2.859  -0.192  0.00  0.00    +0.059 C 
ATOM     25  C   UNL     1      -2.977   3.094  -1.434  0.00  0.00    +0.003 C 
ATOM     26  C   UNL     1      -1.724   3.585  -1.070  0.00  0.00    +0.015 C 
BRANCH  21  28
ATOM     27  O   UNL     1      -4.014  -2.602   1.242  0.00  0.00    -0.350 OA
ATOM     28  N   UNL     1      -3.070  -0.069   0.472  0.00  0.00    -0.303 N 
ATOM     29  C   UNL     1      -4.506  -0.297   0.666  0.00  0.00    +0.123 C 
ATOM     30  C   UNL     1      -2.277  -1.274   0.191  0.00  0.00    +0.123 C 
ATOM     31  C   UNL     1      -4.718  -1.433   1.661  0.00  0.00    +0.164 C 
ATOM     32  C   UNL     1      -2.608  -2.357   1.212  0.00  0.00    +0.164 C 
ENDBRANCH  21  28
ENDBRANCH   1  24
TORSDOF 3
