REMARK  Name = 9543487
REMARK  10 active torsions:
REMARK  status: ('A' for Active; 'I' for Inactive)
REMARK    1  A    between atoms: N_1  and  S_3
REMARK    2  A    between atoms: N_1  and  C_17
REMARK    3  A    between atoms: S_3  and  C_6
REMARK    4  A    between atoms: C_10  and  O_15
REMARK    5  A    between atoms: C_17  and  C_18
REMARK    6  A    between atoms: C_18  and  O_19
REMARK    7  A    between atoms: C_18  and  C_21
REMARK    8  A    between atoms: C_21  and  N_22
REMARK    9  A    between atoms: C_21  and  C_26
REMARK   10  A    between atoms: C_26  and  C_27
REMARK                            x       y       z     vdW  Elec       q    Type
REMARK                         _______ _______ _______ _____ _____    ______ ____
ROOT
ATOM      1  N   UNL     1       0.044  -0.362  -1.749  0.00  0.00    -0.177 NA
ATOM      2  H   UNL     1      -0.590   0.181  -2.335  0.00  0.00    +0.149 HD
ENDROOT
BRANCH   1   3
ATOM      3  S   UNL     1      -0.814  -1.734  -1.236  0.00  0.00    +0.060 S 
ATOM      4  O   UNL     1       0.003  -2.497  -0.312  0.00  0.00    -0.153 OA
ATOM      5  O   UNL     1      -1.400  -2.379  -2.395  0.00  0.00    -0.153 OA
BRANCH   3   6
ATOM      6  C   UNL     1      -2.143  -1.012  -0.321  0.00  0.00    +0.114 C 
ATOM      7  C   UNL     1      -3.024  -0.146  -0.955  0.00  0.00    -0.005 C 
ATOM      8  C   UNL     1      -2.292  -1.322   1.024  0.00  0.00    -0.001 C 
ATOM      9  C   UNL     1      -4.072   0.421  -0.231  0.00  0.00    +0.009 C 
ATOM     10  C   UNL     1      -4.231   0.117   1.121  0.00  0.00    +0.134 C 
ATOM     11  C   UNL     1      -3.341  -0.755   1.749  0.00  0.00    +0.034 C 
ATOM     12  C   UNL     1      -2.864   0.190  -2.405  0.00  0.00    +0.032 C 
ATOM     13  C   UNL     1      -1.359  -2.252   1.730  0.00  0.00    +0.033 C 
ATOM     14  C   UNL     1      -5.031   1.359  -0.894  0.00  0.00    +0.034 C 
BRANCH  10  15
ATOM     15  O   UNL     1      -5.247   0.663   1.846  0.00  0.00    -0.472 OA
ATOM     16  C   UNL     1      -4.985   1.903   2.499  0.00  0.00    +0.252 C 
ENDBRANCH  10  15
ENDBRANCH   3   6
ENDBRANCH   1   3
BRANCH   1  17
ATOM     17  C   UNL     1       0.608   0.573  -0.746  0.00  0.00    +0.118 C 
BRANCH  17  18
ATOM     18  C   UNL     1       1.888   1.205  -1.303  0.00  0.00    +0.108 C 
BRANCH  18  19
ATOM     19  O   UNL     1       1.593   1.850  -2.542  0.00  0.00    -0.385 OA
ATOM     20  H   UNL     1       2.401   2.252  -2.898  0.00  0.00    +0.210 HD
ENDBRANCH  18  19
BRANCH  18  21
ATOM     21  C   UNL     1       2.527   2.223  -0.329  0.00  0.00    -0.032 C 
BRANCH  21  22
ATOM     22  N   UNL     1       1.590   3.320  -0.056  0.00  0.00    +0.384 N 
ATOM     23  H   UNL     1       1.297   3.744  -0.936  0.00  0.00    -0.089 HD
ATOM     24  H   UNL     1       2.048   4.022   0.524  0.00  0.00    -0.089 HD
ATOM     25  H   UNL     1       0.773   2.955   0.434  0.00  0.00    -0.089 HD
ENDBRANCH  21  22
BRANCH  21  26
ATOM     26  C   UNL     1       2.956   1.597   1.017  0.00  0.00    +0.007 C 
BRANCH  26  27
ATOM     27  C   UNL     1       3.988   0.505   0.876  0.00  0.00    -0.024 C 
ATOM     28  C   UNL     1       3.572  -0.807   0.713  0.00  0.00    -0.004 C 
ATOM     29  C   UNL     1       5.334   0.834   0.914  0.00  0.00    -0.004 C 
ATOM     30  C   UNL     1       4.526  -1.816   0.583  0.00  0.00    -0.000 C 
ATOM     31  C   UNL     1       6.288  -0.175   0.784  0.00  0.00    -0.000 C 
ATOM     32  C   UNL     1       5.885  -1.500   0.619  0.00  0.00    -0.000 C 
ENDBRANCH  26  27
ENDBRANCH  21  26
ENDBRANCH  18  21
ENDBRANCH  17  18
ENDBRANCH   1  17
TORSDOF 10
