REMARK  Name = 448903
REMARK  11 active torsions:
REMARK  status: ('A' for Active; 'I' for Inactive)
REMARK    1  A    between atoms: N_1  and  C_22
REMARK    2  A    between atoms: C_8  and  N_11
REMARK    3  A    between atoms: C_12  and  C_14
REMARK    4  A    between atoms: C_14  and  C_15
REMARK    5  A    between atoms: C_15  and  C_16
REMARK    6  A    between atoms: C_22  and  C_23
REMARK    7  A    between atoms: C_23  and  C_24
REMARK    8  A    between atoms: C_24  and  N_25
REMARK    9  A    between atoms: C_24  and  C_35
REMARK   10  A    between atoms: C_29  and  C_32
REMARK   11  A    between atoms: C_35  and  O_36
REMARK                            x       y       z     vdW  Elec       q    Type
REMARK                         _______ _______ _______ _____ _____    ______ ____
ROOT
ATOM      1  N   UNL     1       3.334  -1.146  -0.870  0.00  0.00    -0.286 N 
ATOM      2  C   UNL     1       2.473  -2.087  -0.351  0.00  0.00    +0.053 C 
ATOM      3  C   UNL     1       3.127  -3.320  -0.415  0.00  0.00    +0.015 C 
ATOM      4  C   UNL     1       4.505  -1.739  -1.257  0.00  0.00    +0.065 C 
ATOM      5  C   UNL     1       4.408  -3.084  -0.988  0.00  0.00    +0.017 C 
ATOM      6  C   UNL     1       1.180  -1.943   0.164  0.00  0.00    +0.029 C 
ATOM      7  C   UNL     1       2.458  -4.467   0.058  0.00  0.00    +0.003 C 
ATOM      8  C   UNL     1       0.537  -3.095   0.628  0.00  0.00    +0.052 C 
ATOM      9  C   UNL     1       1.165  -4.338   0.577  0.00  0.00    +0.015 C 
ENDROOT
BRANCH   8  11
ATOM     10  O   UNL     1      -1.239  -0.697   0.995  0.00  0.00    -0.275 OA
ATOM     11  N   UNL     1      -0.753  -2.995   1.151  0.00  0.00    -0.284 N 
ATOM     12  C   UNL     1      -1.546  -1.849   1.288  0.00  0.00    +0.226 C 
ATOM     13  H   UNL     1      -1.157  -3.837   1.464  0.00  0.00    +0.155 HD
BRANCH  12  14
ATOM     14  C   UNL     1      -2.902  -2.149   1.907  0.00  0.00    +0.090 C 
BRANCH  14  15
ATOM     15  C   UNL     1      -3.948  -2.481   0.842  0.00  0.00    +0.036 C 
BRANCH  15  16
ATOM     16  C   UNL     1      -4.200  -1.348  -0.123  0.00  0.00    -0.022 C 
ATOM     17  C   UNL     1      -5.186  -0.402   0.154  0.00  0.00    -0.004 C 
ATOM     18  C   UNL     1      -3.445  -1.247  -1.292  0.00  0.00    -0.004 C 
ATOM     19  C   UNL     1      -5.419   0.645  -0.738  0.00  0.00    -0.000 C 
ATOM     20  C   UNL     1      -3.678  -0.200  -2.184  0.00  0.00    -0.000 C 
ATOM     21  C   UNL     1      -4.665   0.746  -1.907  0.00  0.00    -0.000 C 
ENDBRANCH  15  16
ENDBRANCH  14  15
ENDBRANCH  12  14
ENDBRANCH   8  11
BRANCH   1  22
ATOM     22  C   UNL     1       3.056   0.269  -0.995  0.00  0.00    +0.097 C 
BRANCH  22  23
ATOM     23  C   UNL     1       3.467   1.104   0.225  0.00  0.00    +0.040 C 
BRANCH  23  24
ATOM     24  C   UNL     1       3.198   2.621   0.103  0.00  0.00    +0.091 C 
BRANCH  24  25
ATOM     25  N   UNL     1       1.785   2.950  -0.148  0.00  0.00    -0.246 NA
ATOM     26  N   UNL     1      -0.098   3.694  -1.061  0.00  0.00    -0.251 NA
ATOM     27  C   UNL     1       0.719   2.662   0.667  0.00  0.00    +0.125 C 
ATOM     28  C   UNL     1       1.259   3.571  -1.180  0.00  0.00    +0.201 C 
ATOM     29  C   UNL     1      -0.460   3.114   0.122  0.00  0.00    +0.124 C 
BRANCH  29  32
ATOM     30  O   UNL     1      -2.080   2.501   1.731  0.00  0.00    -0.269 OA
ATOM     31  N   UNL     1      -2.823   3.575  -0.137  0.00  0.00    -0.324 N 
ATOM     32  C   UNL     1      -1.788   3.025   0.629  0.00  0.00    +0.257 C 
ATOM     33  H   UNL     1      -3.752   3.530   0.186  0.00  0.00    +0.145 HD
ATOM     34  H   UNL     1      -2.622   4.007  -0.999  0.00  0.00    +0.145 HD
ENDBRANCH  29  32
ENDBRANCH  24  25
BRANCH  24  35
ATOM     35  C   UNL     1       3.709   3.363   1.349  0.00  0.00    +0.153 C 
BRANCH  35  36
ATOM     36  O   UNL     1       3.849   4.749   1.058  0.00  0.00    -0.381 OA
ATOM     37  H   UNL     1       4.171   5.214   1.846  0.00  0.00    +0.210 HD
ENDBRANCH  35  36
ENDBRANCH  24  35
ENDBRANCH  23  24
ENDBRANCH  22  23
ENDBRANCH   1  22
TORSDOF 11
