REMARK  Name = 46937105
REMARK  5 active torsions:
REMARK  status: ('A' for Active; 'I' for Inactive)
REMARK    1  A    between atoms: C_1  and  C_2
REMARK    2  A    between atoms: C_1  and  C_10
REMARK    3  A    between atoms: C_2  and  N_3
REMARK    4  A    between atoms: C_2  and  C_8
REMARK    5  A    between atoms: C_10  and  C_11
REMARK                            x       y       z     vdW  Elec       q    Type
REMARK                         _______ _______ _______ _____ _____    ______ ____
ROOT
ATOM      1  C   UNL     1      -0.918  -0.372   0.838  0.00  0.00    -0.010 C 
ENDROOT
BRANCH   1   2
ATOM      2  C   UNL     1      -2.424  -0.630   0.694  0.00  0.00    -0.006 C 
BRANCH   2   3
ATOM      3  N   UNL     1      -2.689  -1.891   0.004  0.00  0.00    +0.386 N 
ATOM      4  H   UNL     1      -2.222  -2.653   0.497  0.00  0.00    -0.089 HD
ATOM      5  H   UNL     1      -2.336  -1.837  -0.951  0.00  0.00    -0.089 HD
ATOM      6  H   UNL     1      -3.694  -2.064  -0.014  0.00  0.00    -0.089 HD
ENDBRANCH   2   3
BRANCH   2   8
ATOM      7  O   UNL     1      -3.761   0.306  -1.103  0.00  0.00    -0.298 OA
ATOM      8  C   UNL     1      -3.132   0.492  -0.060  0.00  0.00    +0.131 C 
ATOM      9  C   UNL     1      -3.051   1.873   0.544  0.00  0.00    +0.070 C 
ENDBRANCH   2   8
ENDBRANCH   1   2
BRANCH   1  10
ATOM     10  C   UNL     1      -0.157  -0.299  -0.493  0.00  0.00    +0.025 C 
BRANCH  10  11
ATOM     11  C   UNL     1       1.321  -0.098  -0.274  0.00  0.00    -0.022 C 
ATOM     12  C   UNL     1       1.847   1.192  -0.197  0.00  0.00    -0.004 C 
ATOM     13  C   UNL     1       2.164  -1.203  -0.147  0.00  0.00    -0.004 C 
ATOM     14  C   UNL     1       3.214   1.377   0.006  0.00  0.00    -0.000 C 
ATOM     15  C   UNL     1       3.531  -1.018   0.056  0.00  0.00    -0.000 C 
ATOM     16  C   UNL     1       4.056   0.272   0.132  0.00  0.00    -0.000 C 
ENDBRANCH  10  11
ENDBRANCH   1  10
TORSDOF 5
