REMARK  Name = 448793
REMARK  3 active torsions:
REMARK  status: ('A' for Active; 'I' for Inactive)
REMARK    1  A    between atoms: C_1  and  C_17
REMARK    2  A    between atoms: C_2  and  N_7
REMARK    3  A    between atoms: C_17  and  N_20
REMARK                            x       y       z     vdW  Elec       q    Type
REMARK                         _______ _______ _______ _____ _____    ______ ____
ROOT
ATOM      1  C   UNL     1      -1.050   1.586  -0.188  0.00  0.00    +0.001 C 
ATOM      2  C   UNL     1       1.637   0.886  -0.246  0.00  0.00    +0.058 C 
ATOM      3  C   UNL     1      -0.540   0.917  -1.293  0.00  0.00    -0.001 C 
ATOM      4  C   UNL     1      -0.235   1.910   0.888  0.00  0.00    -0.001 C 
ATOM      5  C   UNL     1       0.810   0.565  -1.322  0.00  0.00    +0.015 C 
ATOM      6  C   UNL     1       1.115   1.558   0.860  0.00  0.00    +0.015 C 
ENDROOT
BRANCH   2   7
ATOM      7  N   UNL     1       2.975   0.537  -0.275  0.00  0.00    -0.243 N 
ATOM      8  N   UNL     1       5.173   0.692  -0.653  0.00  0.00    -0.392 NA
ATOM      9  N   UNL     1       5.218  -2.682   0.875  0.00  0.00    -0.261 NA
ATOM     10  C   UNL     1       3.526  -0.641   0.184  0.00  0.00    +0.086 C 
ATOM     11  C   UNL     1       4.011   1.296  -0.766  0.00  0.00    +0.168 C 
ATOM     12  C   UNL     1       4.889  -0.517  -0.063  0.00  0.00    +0.149 C 
ATOM     13  C   UNL     1       2.961  -1.763   0.774  0.00  0.00    +0.038 C 
ATOM     14  C   UNL     1       3.796   2.639  -1.348  0.00  0.00    +0.084 C 
ATOM     15  C   UNL     1       5.733  -1.569   0.296  0.00  0.00    +0.185 C 
ATOM     16  C   UNL     1       3.882  -2.751   1.094  0.00  0.00    +0.095 C 
ENDBRANCH   2   7
BRANCH   1  17
ATOM     17  C   UNL     1      -2.505   1.964  -0.157  0.00  0.00    +0.136 C 
BRANCH  17  20
ATOM     18  S   UNL     1      -4.553  -0.615   2.127  0.00  0.00    -0.026 S 
ATOM     19  O   UNL     1      -3.203   1.584   2.690  0.00  0.00    -0.259 OA
ATOM     20  N   UNL     1      -3.293   0.904   0.436  0.00  0.00    -0.286 N 
ATOM     21  C   UNL     1      -3.849  -0.135  -0.345  0.00  0.00    +0.069 A 
ATOM     22  C   UNL     1      -4.572  -1.056   0.412  0.00  0.00    +0.050 A 
ATOM     23  C   UNL     1      -3.560   0.825   1.801  0.00  0.00    +0.293 A 
ATOM     24  C   UNL     1      -3.734  -0.291  -1.722  0.00  0.00    +0.018 C 
ATOM     25  C   UNL     1      -5.193  -2.147  -0.176  0.00  0.00    +0.008 C 
ATOM     26  C   UNL     1      -4.356  -1.387  -2.325  0.00  0.00    +0.002 C 
ATOM     27  C   UNL     1      -5.080  -2.309  -1.558  0.00  0.00    +0.001 C 
ENDBRANCH  17  20
ENDBRANCH   1  17
TORSDOF 3
