REMARK  Name = 23653531
REMARK  10 active torsions:
REMARK  status: ('A' for Active; 'I' for Inactive)
REMARK    1  A    between atoms: N_2  and  C_20
REMARK    2  A    between atoms: C_3  and  C_8
REMARK    3  A    between atoms: C_5  and  O_13
REMARK    4  A    between atoms: O_13  and  C_14
REMARK    5  A    between atoms: C_14  and  C_15
REMARK    6  A    between atoms: C_15  and  N_16
REMARK    7  A    between atoms: C_21  and  O_26
REMARK    8  A    between atoms: C_23  and  O_29
REMARK    9  A    between atoms: O_26  and  C_27
REMARK   10  A    between atoms: O_29  and  C_30
REMARK                            x       y       z     vdW  Elec       q    Type
REMARK                         _______ _______ _______ _____ _____    ______ ____
ROOT
ATOM      1  O   UNL     1      -0.943  -1.978   0.530  0.00  0.00    -0.270 OA
ATOM      2  N   UNL     1      -1.131   0.293  -0.026  0.00  0.00    -0.278 N 
ATOM      3  C   UNL     1      -0.425  -0.876   0.286  0.00  0.00    +0.250 C 
ATOM      4  H   UNL     1      -0.582   1.093  -0.195  0.00  0.00    +0.155 HD
ENDROOT
BRANCH   3   8
ATOM      5  C   UNL     1       3.799  -0.502   0.461  0.00  0.00    +0.130 C 
ATOM      6  C   UNL     1       3.220  -1.730   0.144  0.00  0.00    +0.012 C 
ATOM      7  C   UNL     1       2.990   0.604   0.721  0.00  0.00    +0.012 C 
ATOM      8  C   UNL     1       1.022  -0.747   0.346  0.00  0.00    +0.053 C 
ATOM      9  C   UNL     1       1.832  -1.853   0.086  0.00  0.00    +0.003 C 
ATOM     10  C   UNL     1       1.601   0.481   0.663  0.00  0.00    +0.003 C 
ATOM     11  C   UNL     1       4.070  -2.926  -0.137  0.00  0.00    +0.034 C 
ATOM     12  C   UNL     1       3.591   1.928   1.062  0.00  0.00    +0.034 C 
BRANCH   5  13
ATOM     13  O   UNL     1       5.157  -0.382   0.517  0.00  0.00    -0.478 OA
BRANCH  13  14
ATOM     14  C   UNL     1       5.824  -0.018  -0.688  0.00  0.00    +0.182 C 
BRANCH  14  15
ATOM     15  C   UNL     1       7.315   0.085  -0.410  0.00  0.00    -0.038 C 
BRANCH  15  16
ATOM     16  N   UNL     1       8.041   0.438  -1.621  0.00  0.00    +0.383 N 
ATOM     17  H   UNL     1       9.038   0.502  -1.413  0.00  0.00    -0.089 HD
ATOM     18  H   UNL     1       7.707   1.338  -1.966  0.00  0.00    -0.089 HD
ATOM     19  H   UNL     1       7.886  -0.277  -2.331  0.00  0.00    -0.089 HD
ENDBRANCH  15  16
ENDBRANCH  14  15
ENDBRANCH  13  14
ENDBRANCH   5  13
ENDBRANCH   3   8
BRANCH   2  20
ATOM     20  C   UNL     1      -2.532   0.476  -0.131  0.00  0.00    +0.088 C 
ATOM     21  C   UNL     1      -3.045   1.722  -0.454  0.00  0.00    +0.152 C 
ATOM     22  C   UNL     1      -3.362  -0.610   0.096  0.00  0.00    +0.055 C 
ATOM     23  C   UNL     1      -4.744  -0.445  -0.004  0.00  0.00    +0.140 C 
ATOM     24  C   UNL     1      -4.426   1.886  -0.554  0.00  0.00    +0.041 C 
ATOM     25  C   UNL     1      -5.276   0.803  -0.329  0.00  0.00    +0.040 C 
BRANCH  21  26
ATOM     26  O   UNL     1      -2.232   2.793  -0.677  0.00  0.00    -0.474 OA
BRANCH  26  27
ATOM     27  C   UNL     1      -2.401   3.923   0.175  0.00  0.00    +0.206 C 
ATOM     28  C   UNL     1      -1.070   4.627   0.332  0.00  0.00    +0.051 C 
ENDBRANCH  26  27
ENDBRANCH  21  26
BRANCH  23  29
ATOM     29  O   UNL     1      -5.573  -1.501   0.215  0.00  0.00    -0.475 OA
BRANCH  29  30
ATOM     30  C   UNL     1      -5.071  -2.798  -0.104  0.00  0.00    +0.206 C 
ATOM     31  C   UNL     1      -6.228  -3.692  -0.499  0.00  0.00    +0.051 C 
ENDBRANCH  29  30
ENDBRANCH  23  29
ENDBRANCH   2  20
TORSDOF 10
