REMARK  Name = 11120251
REMARK  3 active torsions:
REMARK  status: ('A' for Active; 'I' for Inactive)
REMARK    1  A    between atoms: C_2  and  N_17
REMARK    2  A    between atoms: C_3  and  C_11
REMARK    3  A    between atoms: C_18  and  C_20
REMARK                            x       y       z     vdW  Elec       q    Type
REMARK                         _______ _______ _______ _____ _____    ______ ____
ROOT
ATOM      1  N   UNL     1       0.740  -2.616  -0.211  0.00  0.00    -0.238 NA
ATOM      2  C   UNL     1      -1.193  -1.206  -0.032  0.00  0.00    +0.073 C 
ATOM      3  C   UNL     1       0.160  -1.396  -0.188  0.00  0.00    +0.148 C 
ATOM      4  C   UNL     1      -2.019  -2.303   0.110  0.00  0.00    +0.018 C 
ATOM      5  C   UNL     1      -1.458  -3.575   0.090  0.00  0.00    +0.022 C 
ATOM      6  C   UNL     1      -0.086  -3.677  -0.071  0.00  0.00    +0.099 C 
ENDROOT
BRANCH   3  11
ATOM      7  S   UNL     1       4.901  -0.193   0.793  0.00  0.00    -0.051 S 
ATOM      8  O   UNL     1       0.688   0.751  -0.901  0.00  0.00    -0.268 OA
ATOM      9  N   UNL     1       2.379  -0.500   0.148  0.00  0.00    -0.259 N 
ATOM     10  N   UNL     1       3.455   1.584  -0.405  0.00  0.00    -0.222 NA
ATOM     11  C   UNL     1       1.085  -0.282  -0.341  0.00  0.00    +0.270 C 
ATOM     12  C   UNL     1       3.457   0.390   0.101  0.00  0.00    +0.166 C 
ATOM     13  C   UNL     1       5.639   1.301   0.386  0.00  0.00    +0.059 C 
ATOM     14  C   UNL     1       4.719   2.115  -0.242  0.00  0.00    +0.108 C 
ATOM     15  H   UNL     1       2.548  -1.374   0.570  0.00  0.00    +0.157 HD
ENDBRANCH   3  11
BRANCH   2  17
ATOM     16  O   UNL     1      -4.032  -0.348   0.282  0.00  0.00    -0.275 OA
ATOM     17  N   UNL     1      -1.757   0.093  -0.013  0.00  0.00    -0.283 N 
ATOM     18  C   UNL     1      -3.097   0.438   0.137  0.00  0.00    +0.225 C 
ATOM     19  H   UNL     1      -1.125   0.841  -0.118  0.00  0.00    +0.155 HD
BRANCH  18  20
ATOM     20  C   UNL     1      -3.339   1.967   0.108  0.00  0.00    +0.069 C 
ATOM     21  C   UNL     1      -2.858   2.536  -1.240  0.00  0.00    +0.009 C 
ATOM     22  C   UNL     1      -2.546   2.651   1.233  0.00  0.00    +0.009 C 
ATOM     23  C   UNL     1      -4.838   2.270   0.256  0.00  0.00    +0.009 C 
ENDBRANCH  18  20
ENDBRANCH   2  17
TORSDOF 3
