REMARK  Name = 444706
REMARK  6 active torsions:
REMARK  status: ('A' for Active; 'I' for Inactive)
REMARK    1  A    between atoms: N_3  and  C_20
REMARK    2  A    between atoms: C_5  and  S_13
REMARK    3  A    between atoms: C_6  and  C_10
REMARK    4  A    between atoms: S_13  and  C_14
REMARK    5  A    between atoms: C_20  and  O_21
REMARK    6  A    between atoms: O_21  and  C_22
REMARK                            x       y       z     vdW  Elec       q    Type
REMARK                         _______ _______ _______ _____ _____    ______ ____
ROOT
ATOM      1  O   UNL     1       3.477  -1.493   0.999  0.00  0.00    -0.267 OA
ATOM      2  O   UNL     1       2.514   2.956   0.665  0.00  0.00    -0.246 OA
ATOM      3  N   UNL     1       1.102   1.451  -0.438  0.00  0.00    -0.250 N 
ATOM      4  N   UNL     1       2.964   0.730   0.818  0.00  0.00    -0.275 N 
ATOM      5  C   UNL     1       0.797   0.112  -0.739  0.00  0.00    +0.092 A 
ATOM      6  C   UNL     1       1.543  -0.913  -0.269  0.00  0.00    +0.055 A 
ATOM      7  C   UNL     1       2.746  -0.606   0.564  0.00  0.00    +0.259 A 
ATOM      8  C   UNL     1       2.204   1.800   0.364  0.00  0.00    +0.333 A 
ATOM      9  H   UNL     1       3.741   0.950   1.382  0.00  0.00    +0.173 HD
ENDROOT
BRANCH   6  10
ATOM     10  C   UNL     1       1.351  -2.388  -0.526  0.00  0.00    +0.029 C 
ATOM     11  C   UNL     1       2.573  -2.955  -1.234  0.00  0.00    +0.005 C 
ATOM     12  C   UNL     1       1.077  -3.123   0.779  0.00  0.00    +0.005 C 
ENDBRANCH   6  10
BRANCH   5  13
ATOM     13  S   UNL     1      -0.624  -0.203  -1.724  0.00  0.00    -0.098 S 
BRANCH  13  14
ATOM     14  C   UNL     1      -1.583  -1.191  -0.527  0.00  0.00    +0.053 C 
ATOM     15  C   UNL     1      -1.827  -0.379   0.749  0.00  0.00    +0.011 C 
ATOM     16  C   UNL     1      -2.901  -1.648  -1.159  0.00  0.00    +0.011 C 
ATOM     17  C   UNL     1      -2.680  -1.162   1.746  0.00  0.00    +0.001 C 
ATOM     18  C   UNL     1      -3.752  -2.428  -0.157  0.00  0.00    +0.001 C 
ATOM     19  C   UNL     1      -3.991  -1.630   1.121  0.00  0.00    +0.000 C 
ENDBRANCH  13  14
ENDBRANCH   5  13
BRANCH   3  20
ATOM     20  C   UNL     1       0.247   2.514  -0.975  0.00  0.00    +0.260 C 
BRANCH  20  21
ATOM     21  O   UNL     1      -0.794   2.774  -0.045  0.00  0.00    -0.332 OA
BRANCH  21  22
ATOM     22  C   UNL     1      -1.681   3.776  -0.522  0.00  0.00    +0.145 C 
ATOM     23  C   UNL     1      -2.765   4.007   0.509  0.00  0.00    +0.035 C 
ENDBRANCH  21  22
ENDBRANCH  20  21
ENDBRANCH   3  20
TORSDOF 6
