REMARK  Name = 3332
REMARK  4 active torsions:
REMARK  status: ('A' for Active; 'I' for Inactive)
REMARK    1  A    between atoms: C_1  and  C_7
REMARK    2  A    between atoms: C_2  and  C_13
REMARK    3  A    between atoms: C_13  and  C_15
REMARK    4  A    between atoms: C_15  and  O_16
REMARK                            x       y       z     vdW  Elec       q    Type
REMARK                         _______ _______ _______ _____ _____    ______ ____
ROOT
ATOM      1  C   UNL     1      -0.725   0.223   0.002  0.00  0.00    -0.000 C 
ATOM      2  C   UNL     1       2.036   0.620   0.009  0.00  0.00    -0.011 C 
ATOM      3  C   UNL     1      -0.034   0.337  -1.204  0.00  0.00    -0.000 C 
ATOM      4  C   UNL     1      -0.036   0.308   1.212  0.00  0.00    -0.000 C 
ATOM      5  C   UNL     1       1.347   0.535  -1.200  0.00  0.00    -0.004 C 
ATOM      6  C   UNL     1       1.345   0.506   1.216  0.00  0.00    -0.004 C 
ENDROOT
BRANCH   1   7
ATOM      7  C   UNL     1      -2.157   0.016  -0.001  0.00  0.00    -0.000 C 
ATOM      8  C   UNL     1      -3.020   1.112   0.011  0.00  0.00    -0.000 C 
ATOM      9  C   UNL     1      -2.675  -1.279  -0.016  0.00  0.00    -0.000 C 
ATOM     10  C   UNL     1      -4.401   0.913   0.008  0.00  0.00    +0.000 C 
ATOM     11  C   UNL     1      -4.056  -1.478  -0.020  0.00  0.00    +0.000 C 
ATOM     12  C   UNL     1      -4.919  -0.382  -0.008  0.00  0.00    +0.000 C 
ENDBRANCH   1   7
BRANCH   2  13
ATOM     13  C   UNL     1       3.512   0.833   0.013  0.00  0.00    +0.136 C 
BRANCH  13  15
ATOM     14  O   UNL     1       3.829  -1.582   0.026  0.00  0.00    -0.250 OA
ATOM     15  C   UNL     1       4.309  -0.457  -0.001  0.00  0.00    +0.318 C 
BRANCH  15  16
ATOM     16  O   UNL     1       5.647  -0.225  -0.048  0.00  0.00    -0.480 OA
ATOM     17  H   UNL     1       5.970   0.655  -0.067  0.00  0.00    +0.295 HD
ENDBRANCH  15  16
ENDBRANCH  13  15
ENDBRANCH   2  13
TORSDOF 4
