REMARK  Name = 446641
REMARK  6 active torsions:
REMARK  status: ('A' for Active; 'I' for Inactive)
REMARK    1  A    between atoms: N_2  and  CA_5
REMARK    2  A    between atoms: C_3  and  C_13
REMARK    3  A    between atoms: CA_5  and  CB_6
REMARK    4  A    between atoms: CA_5  and  C_10
REMARK    5  A    between atoms: C_10  and  O_11
REMARK    6  A    between atoms: C_13  and  C_15
REMARK                            x       y       z     vdW  Elec       q    Type
REMARK                         _______ _______ _______ _____ _____    ______ ____
ROOT
ATOM      1  O   UNL     1       0.382  -0.325  -1.309  0.00  0.00    -0.275 OA
ATOM      2  N   UNL     1       1.931  -0.436   0.417  0.00  0.00    -0.297 N 
ATOM      3  C   ACE A   0       0.662  -0.547  -0.134  0.00  0.00    +0.227 C 
ATOM      4  H   UNL     1       2.048  -0.638   1.374  0.00  0.00    +0.150 HD
ENDROOT
BRANCH   2   5
ATOM      5  CA  UNL     1       3.089  -0.036  -0.350  0.00  0.00    +0.171 C 
BRANCH   5   6
ATOM      6  CB  UNL     1       3.227   1.502  -0.345  0.00  0.00    +0.029 C 
ATOM      7  CG1 UNL     1       4.301   1.990  -1.321  0.00  0.00    +0.002 C 
ATOM      8  CG2 UNL     1       3.477   2.081   1.051  0.00  0.00    +0.002 C 
ENDBRANCH   5   6
BRANCH   5  10
ATOM      9  OXT UNL     1       5.421  -0.710  -0.446  0.00  0.00    -0.248 OA
ATOM     10  C   UNL     1       4.335  -0.781   0.119  0.00  0.00    +0.332 C 
BRANCH  10  11
ATOM     11  O   UNL     1       4.141  -1.584   1.195  0.00  0.00    -0.479 OA
ATOM     12  H   UNL     1       3.300  -1.619   1.607  0.00  0.00    +0.295 HD
ENDBRANCH  10  11
ENDBRANCH   5  10
ENDBRANCH   2   5
BRANCH   3  13
ATOM     13  C   UNL     1      -0.361  -0.967   0.907  0.00  0.00    +0.113 C 
BRANCH  13  15
ATOM     14  N   UNL     1      -3.574  -1.824  -0.600  0.00  0.00    -0.312 N 
ATOM     15  C   UNL     1      -1.746  -1.045   0.348  0.00  0.00    +0.003 C 
ATOM     16  C   UNL     1      -2.685   0.009   0.310  0.00  0.00    +0.011 C 
ATOM     17  C   UNL     1      -3.834  -0.507  -0.294  0.00  0.00    +0.048 C 
ATOM     18  C   UNL     1      -2.304  -2.158  -0.212  0.00  0.00    +0.058 C 
ATOM     19  C   UNL     1      -2.684   1.355   0.726  0.00  0.00    +0.001 C 
ATOM     20  C   UNL     1      -4.986   0.259  -0.503  0.00  0.00    +0.015 C 
ATOM     21  C   UNL     1      -3.830   2.133   0.523  0.00  0.00    +0.000 C 
ATOM     22  C   UNL     1      -4.962   1.591  -0.082  0.00  0.00    +0.001 C 
ATOM     23  H   UNL     1      -4.209  -2.437  -1.035  0.00  0.00    +0.152 HD
ENDBRANCH  13  15
ENDBRANCH   3  13
TORSDOF 6
