REMARK  Name = 3492020
REMARK  9 active torsions:
REMARK  status: ('A' for Active; 'I' for Inactive)
REMARK    1  A    between atoms: C_1  and  C_2
REMARK    2  A    between atoms: C_1  and  C_8
REMARK    3  A    between atoms: C_2  and  C_3
REMARK    4  A    between atoms: C_3  and  P_4
REMARK    5  A    between atoms: C_8  and  C_9
REMARK    6  A    between atoms: C_9  and  C_10
REMARK    7  A    between atoms: C_10  and  C_11
REMARK    8  A    between atoms: C_11  and  C_12
REMARK    9  A    between atoms: C_12  and  C_13
REMARK                            x       y       z     vdW  Elec       q    Type
REMARK                         _______ _______ _______ _____ _____    ______ ____
ROOT
ATOM      1  C   UNL     1       0.992   0.660  -0.001  0.00  0.00    +0.000 C 
ENDROOT
BRANCH   1   2
ATOM      2  C   UNL     1       2.291  -0.145  -0.092  0.00  0.00    +0.008 C 
BRANCH   2   3
ATOM      3  C   UNL     1       3.524   0.738   0.057  0.00  0.00    +0.060 C 
BRANCH   3   4
ATOM      4  P   UNL     1       5.084  -0.166  -0.057  0.00  0.00    +0.115 P 
ATOM      5  O   UNL     1       5.200  -0.925  -1.335  0.00  0.00    -0.319 OA
ATOM      6  C   UNL     1       6.343   1.064   0.165  0.00  0.00    +0.068 C 
ATOM      7  C   UNL     1       5.127  -1.190   1.392  0.00  0.00    +0.068 C 
ENDBRANCH   3   4
ENDBRANCH   2   3
ENDBRANCH   1   2
BRANCH   1   8
ATOM      8  C   UNL     1      -0.266  -0.195  -0.183  0.00  0.00    +0.000 C 
BRANCH   8   9
ATOM      9  C   UNL     1      -1.567   0.594  -0.021  0.00  0.00    +0.000 C 
BRANCH   9  10
ATOM     10  C   UNL     1      -2.789  -0.322  -0.139  0.00  0.00    +0.000 C 
BRANCH  10  11
ATOM     11  C   UNL     1      -4.089   0.460   0.062  0.00  0.00    +0.000 C 
BRANCH  11  12
ATOM     12  C   UNL     1      -5.346  -0.403  -0.077  0.00  0.00    +0.000 C 
BRANCH  12  13
ATOM     13  C   UNL     1      -6.642   0.362   0.196  0.00  0.00    +0.000 C 
ATOM     14  C   UNL     1      -7.860  -0.534   0.033  0.00  0.00    +0.000 C 
ENDBRANCH  12  13
ENDBRANCH  11  12
ENDBRANCH  10  11
ENDBRANCH   9  10
ENDBRANCH   8   9
ENDBRANCH   1   8
TORSDOF 9
