REMARK  Name = 256737
REMARK  3 active torsions:
REMARK  status: ('A' for Active; 'I' for Inactive)
REMARK    1  A    between atoms: C_5  and  O_19
REMARK    2  A    between atoms: C_8  and  O_21
REMARK    3  A    between atoms: C_18  and  O_23
REMARK                            x       y       z     vdW  Elec       q    Type
REMARK                         _______ _______ _______ _____ _____    ______ ____
ROOT
ATOM      1  C   UNL     1      -2.384   0.858  -0.446  0.00  0.00    +0.027 C 
ATOM      2  C   UNL     1      -1.824  -0.446   0.166  0.00  0.00    +0.005 C 
ATOM      3  C   UNL     1      -0.340  -0.643  -0.155  0.00  0.00    +0.005 C 
ATOM      4  C   UNL     1       0.469   0.539   0.460  0.00  0.00    +0.022 C 
ATOM      5  C   UNL     1      -3.877   0.709  -0.075  0.00  0.00    +0.137 C 
ATOM      6  C   UNL     1      -1.625   2.032   0.190  0.00  0.00    +0.003 C 
ATOM      7  C   UNL     1      -2.821  -1.523  -0.263  0.00  0.00    +0.032 C 
ATOM      8  C   UNL     1      -4.167  -0.779  -0.379  0.00  0.00    +0.137 C 
ATOM      9  C   UNL     1      -0.100   1.907   0.001  0.00  0.00    +0.004 C 
ATOM     10  C   UNL     1       0.211  -1.960   0.395  0.00  0.00    +0.005 C 
ATOM     11  C   UNL     1      -2.266   0.944  -1.990  0.00  0.00    +0.002 C 
ATOM     12  C   UNL     1       1.968   0.356   0.242  0.00  0.00    -0.026 C 
ATOM     13  C   UNL     1       1.645  -2.162  -0.084  0.00  0.00    +0.026 C 
ATOM     14  C   UNL     1       2.510  -0.931   0.030  0.00  0.00    -0.023 C 
ATOM     15  C   UNL     1       2.855   1.443   0.335  0.00  0.00    -0.001 C 
ATOM     16  C   UNL     1       3.898  -1.088  -0.135  0.00  0.00    +0.032 C 
ATOM     17  C   UNL     1       4.232   1.272   0.179  0.00  0.00    +0.036 C 
ATOM     18  C   UNL     1       4.754   0.007  -0.061  0.00  0.00    +0.133 C 
ENDROOT
BRANCH   5  19
ATOM     19  O   UNL     1      -4.100   0.963   1.309  0.00  0.00    -0.382 OA
ATOM     20  H   UNL     1      -3.918   1.896   1.500  0.00  0.00    +0.210 HD
ENDBRANCH   5  19
BRANCH   8  21
ATOM     21  O   UNL     1      -5.133  -1.333   0.496  0.00  0.00    -0.382 OA
ATOM     22  H   UNL     1      -5.968  -0.848   0.405  0.00  0.00    +0.210 HD
ENDBRANCH   8  21
BRANCH  18  23
ATOM     23  O   UNL     1       6.094  -0.162  -0.217  0.00  0.00    -0.506 OA
ATOM     24  H   UNL     1       6.443  -1.016  -0.379  0.00  0.00    +0.292 HD
ENDBRANCH  18  23
TORSDOF 3
