23653533
  -OEChem-10051721063D

 63 65  0     0  0  0  0  0  0999 V2000
    4.2082   -3.9240   -0.3029 Cl  0  0  0  0  0  0  0  0  0  0  0  0
    1.3177   -3.1711   -0.4349 O   0  0  0  0  0  0  0  0  0  0  0  0
   -5.9743    0.3448   -0.5048 O   0  0  0  0  0  0  0  0  0  0  0  0
    0.1241    1.7475   -0.0636 O   0  0  0  0  0  0  0  0  0  0  0  0
    4.7927    1.1500    0.2049 N   0  0  0  0  0  0  0  0  0  0  0  0
    0.2877   -0.5886   -0.2678 N   0  0  0  0  0  0  0  0  0  0  0  0
   -8.9832    1.0851    1.4855 N   0  0  0  0  0  0  0  0  0  0  0  0
    6.5497    3.4310    0.4023 C   0  0  0  0  0  0  0  0  0  0  0  0
    6.9940    2.1434   -0.2815 C   0  0  0  0  0  0  0  0  0  0  0  0
    5.5220    3.1238    1.4843 C   0  0  0  0  0  0  0  0  0  0  0  0
    5.8028    1.3684   -0.8404 C   0  0  0  0  0  0  0  0  0  0  0  0
    4.3334    2.3421    0.9268 C   0  0  0  0  0  0  0  0  0  0  0  0
    3.9226    0.0648    0.0441 C   0  0  0  0  0  0  0  0  0  0  0  0
    2.5300    0.2590   -0.0342 C   0  0  0  0  0  0  0  0  0  0  0  0
    4.4154   -1.2516   -0.0435 C   0  0  0  0  0  0  0  0  0  0  0  0
    1.6630   -0.8220   -0.1940 C   0  0  0  0  0  0  0  0  0  0  0  0
    3.5484   -2.3327   -0.2032 C   0  0  0  0  0  0  0  0  0  0  0  0
    2.1723   -2.1179   -0.2784 C   0  0  0  0  0  0  0  0  0  0  0  0
   -0.3820    0.6390   -0.2009 C   0  0  0  0  0  0  0  0  0  0  0  0
   -1.8642    0.5600   -0.2818 C   0  0  0  0  0  0  0  0  0  0  0  0
   -3.8851   -0.6633    0.0683 C   0  0  0  0  0  0  0  0  0  0  0  0
   -3.9520    1.5682   -0.8550 C   0  0  0  0  0  0  0  0  0  0  0  0
   -2.5610    1.6411   -0.7796 C   0  0  0  0  0  0  0  0  0  0  0  0
   -2.4941   -0.5905    0.1439 C   0  0  0  0  0  0  0  0  0  0  0  0
   -4.6140    0.4160   -0.4311 C   0  0  0  0  0  0  0  0  0  0  0  0
    0.8266   -3.7853    0.7533 C   0  0  0  0  0  0  0  0  0  0  0  0
   -4.5759   -1.9051    0.5271 C   0  0  0  0  0  0  0  0  0  0  0  0
   -4.7149    2.7342   -1.3918 C   0  0  0  0  0  0  0  0  0  0  0  0
   -0.1094   -4.9132    0.3747 C   0  0  0  0  0  0  0  0  0  0  0  0
   -6.7074    0.7934    0.6323 C   0  0  0  0  0  0  0  0  0  0  0  0
   -8.1932    0.6536    0.3419 C   0  0  0  0  0  0  0  0  0  0  0  0
    7.4158    3.9364    0.8436 H   0  0  0  0  0  0  0  0  0  0  0  0
    6.1171    4.1148   -0.3379 H   0  0  0  0  0  0  0  0  0  0  0  0
    7.5301    1.5160    0.4418 H   0  0  0  0  0  0  0  0  0  0  0  0
    7.6966    2.3752   -1.0896 H   0  0  0  0  0  0  0  0  0  0  0  0
    6.0007    2.5384    2.2797 H   0  0  0  0  0  0  0  0  0  0  0  0
    5.1704    4.0562    1.9398 H   0  0  0  0  0  0  0  0  0  0  0  0
    6.1749    0.4238   -1.2534 H   0  0  0  0  0  0  0  0  0  0  0  0
    5.3480    1.9244   -1.6700 H   0  0  0  0  0  0  0  0  0  0  0  0
    3.7537    2.9861    0.2537 H   0  0  0  0  0  0  0  0  0  0  0  0
    3.6888    2.0647    1.7702 H   0  0  0  0  0  0  0  0  0  0  0  0
    2.1839    1.2797    0.0122 H   0  0  0  0  0  0  0  0  0  0  0  0
    5.4872   -1.4282    0.0285 H   0  0  0  0  0  0  0  0  0  0  0  0
   -0.2585   -1.4286   -0.4354 H   0  0  0  0  0  0  0  0  0  0  0  0
   -2.0469    2.5380   -1.1139 H   0  0  0  0  0  0  0  0  0  0  0  0
   -1.9573   -1.4281    0.5779 H   0  0  0  0  0  0  0  0  0  0  0  0
    0.2867   -3.0496    1.3607 H   0  0  0  0  0  0  0  0  0  0  0  0
    1.6586   -4.1813    1.3461 H   0  0  0  0  0  0  0  0  0  0  0  0
   -5.4090   -2.1646   -0.1345 H   0  0  0  0  0  0  0  0  0  0  0  0
   -4.9540   -1.7742    1.5457 H   0  0  0  0  0  0  0  0  0  0  0  0
   -3.8958   -2.7642    0.5242 H   0  0  0  0  0  0  0  0  0  0  0  0
   -5.1206    3.3327   -0.5704 H   0  0  0  0  0  0  0  0  0  0  0  0
   -5.5364    2.4076   -2.0382 H   0  0  0  0  0  0  0  0  0  0  0  0
   -4.0761    3.3828   -2.0014 H   0  0  0  0  0  0  0  0  0  0  0  0
   -0.5057   -5.4084    1.2657 H   0  0  0  0  0  0  0  0  0  0  0  0
   -0.9468   -4.5346   -0.2208 H   0  0  0  0  0  0  0  0  0  0  0  0
    0.4100   -5.6550   -0.2408 H   0  0  0  0  0  0  0  0  0  0  0  0
   -6.4616    1.8406    0.8455 H   0  0  0  0  0  0  0  0  0  0  0  0
   -6.4348    0.1915    1.5075 H   0  0  0  0  0  0  0  0  0  0  0  0
   -8.4294   -0.3875    0.0937 H   0  0  0  0  0  0  0  0  0  0  0  0
   -8.4575    1.2505   -0.5382 H   0  0  0  0  0  0  0  0  0  0  0  0
   -9.9721    0.9356    1.2897 H   0  0  0  0  0  0  0  0  0  0  0  0
   -8.7618    0.5065    2.2948 H   0  0  0  0  0  0  0  0  0  0  0  0
  1 17  1  0  0  0  0
  2 18  1  0  0  0  0
  2 26  1  0  0  0  0
  3 25  1  0  0  0  0
  3 30  1  0  0  0  0
  4 19  2  0  0  0  0
  5 11  1  0  0  0  0
  5 12  1  0  0  0  0
  5 13  1  0  0  0  0
  6 16  1  0  0  0  0
  6 19  1  0  0  0  0
  6 44  1  0  0  0  0
  7 31  1  0  0  0  0
  7 62  1  0  0  0  0
  7 63  1  0  0  0  0
  8  9  1  0  0  0  0
  8 10  1  0  0  0  0
  8 32  1  0  0  0  0
  8 33  1  0  0  0  0
  9 11  1  0  0  0  0
  9 34  1  0  0  0  0
  9 35  1  0  0  0  0
 10 12  1  0  0  0  0
 10 36  1  0  0  0  0
 10 37  1  0  0  0  0
 11 38  1  0  0  0  0
 11 39  1  0  0  0  0
 12 40  1  0  0  0  0
 12 41  1  0  0  0  0
 13 14  2  0  0  0  0
 13 15  1  0  0  0  0
 14 16  1  0  0  0  0
 14 42  1  0  0  0  0
 15 17  2  0  0  0  0
 15 43  1  0  0  0  0
 16 18  2  0  0  0  0
 17 18  1  0  0  0  0
 19 20  1  0  0  0  0
 20 23  2  0  0  0  0
 20 24  1  0  0  0  0
 21 24  2  0  0  0  0
 21 25  1  0  0  0  0
 21 27  1  0  0  0  0
 22 23  1  0  0  0  0
 22 25  2  0  0  0  0
 22 28  1  0  0  0  0
 23 45  1  0  0  0  0
 24 46  1  0  0  0  0
 26 29  1  0  0  0  0
 26 47  1  0  0  0  0
 26 48  1  0  0  0  0
 27 49  1  0  0  0  0
 27 50  1  0  0  0  0
 27 51  1  0  0  0  0
 28 52  1  0  0  0  0
 28 53  1  0  0  0  0
 28 54  1  0  0  0  0
 29 55  1  0  0  0  0
 29 56  1  0  0  0  0
 29 57  1  0  0  0  0
 30 31  1  0  0  0  0
 30 58  1  0  0  0  0
 30 59  1  0  0  0  0
 31 60  1  0  0  0  0
 31 61  1  0  0  0  0
M  END
> <DATABASE_ID>
DB07626

> <DATABASE_NAME>
drugbank

> <ORIGINAL_SOURCE>
PUBCHEM

> <ORIGINAL_SOURCE_URL>
https://pubchem.ncbi.nlm.nih.gov/rest/pug/compound/inchikey/CKBBGCJYKCLKHE-UHFFFAOYSA-N/SDF?record_type=3d

> <SMILES>
CCOC1=C(NC(=O)C2=CC(C)=C(OCCN)C(C)=C2)C=C(C=C1Cl)N1CCCCC1

> <INCHI_IDENTIFIER>
InChI=1S/C24H32ClN3O3/c1-4-30-23-20(25)14-19(28-9-6-5-7-10-28)15-21(23)27-24(29)18-12-16(2)22(17(3)13-18)31-11-8-26/h12-15H,4-11,26H2,1-3H3,(H,27,29)

> <INCHI_KEY>
CKBBGCJYKCLKHE-UHFFFAOYSA-N

> <FORMULA>
C24H32ClN3O3

> <MOLECULAR_WEIGHT>
445.982

> <EXACT_MASS>
445.213219612

> <JCHEM_ACCEPTOR_COUNT>
5

> <JCHEM_AVERAGE_POLARIZABILITY>
50.70409361348733

> <JCHEM_BIOAVAILABILITY>
1

> <JCHEM_DONOR_COUNT>
2

> <JCHEM_FORMAL_CHARGE>
0

> <JCHEM_GHOSE_FILTER>
1

> <JCHEM_IUPAC>
4-(2-aminoethoxy)-N-[3-chloro-2-ethoxy-5-(piperidin-1-yl)phenyl]-3,5-dimethylbenzamide

> <ALOGPS_LOGP>
4.63

> <JCHEM_LOGP>
4.898909681666667

> <ALOGPS_LOGS>
-5.15

> <JCHEM_MDDR_LIKE_RULE>
1

> <JCHEM_NUMBER_OF_RINGS>
3

> <JCHEM_PHYSIOLOGICAL_CHARGE>
1

> <JCHEM_PKA_STRONGEST_ACIDIC>
11.551874319439898

> <JCHEM_PKA_STRONGEST_BASIC>
9.27738288519371

> <JCHEM_POLAR_SURFACE_AREA>
76.82000000000001

> <JCHEM_REFRACTIVITY>
128.67409999999998

> <JCHEM_ROTATABLE_BOND_COUNT>
8

> <JCHEM_RULE_OF_FIVE>
1

> <ALOGPS_SOLUBILITY>
3.14e-03 g/l

> <JCHEM_TRADITIONAL_IUPAC>
4-(2-aminoethoxy)-N-[3-chloro-2-ethoxy-5-(piperidin-1-yl)phenyl]-3,5-dimethylbenzamide

> <JCHEM_VEBER_RULE>
0

> <DRUGBANK_ID>
DB07626

> <DRUG_GROUPS>
experimental

> <GENERIC_NAME>
4-(2-aminoethoxy)-N-(3-chloro-2-ethoxy-5-piperidin-1-ylphenyl)-3,5-dimethylbenzamide

$$$$
