REMARK  Name = 23647763
REMARK  6 active torsions:
REMARK  status: ('A' for Active; 'I' for Inactive)
REMARK    1  A    between atoms: C_1  and  C_24
REMARK    2  A    between atoms: C_3  and  N_12
REMARK    3  A    between atoms: C_4  and  C_9
REMARK    4  A    between atoms: C_9  and  O_10
REMARK    5  A    between atoms: N_12  and  S_14
REMARK    6  A    between atoms: S_14  and  C_18
REMARK                            x       y       z     vdW  Elec       q    Type
REMARK                         _______ _______ _______ _____ _____    ______ ____
ROOT
ATOM      1  C   UNL     1      -2.880  -0.305   0.781  0.00  0.00    -0.026 C 
ATOM      2  C   UNL     1      -2.240  -0.604  -0.422  0.00  0.00    -0.018 C 
ATOM      3  C   UNL     1      -0.795   1.310  -0.128  0.00  0.00    +0.071 C 
ATOM      4  C   UNL     1      -1.197   0.203  -0.876  0.00  0.00    +0.086 C 
ATOM      5  C   UNL     1      -2.478   0.802   1.529  0.00  0.00    -0.003 C 
ATOM      6  C   UNL     1      -1.435   1.609   1.074  0.00  0.00    +0.016 C 
ATOM      7  C   UNL     1      -2.677  -1.792  -1.220  0.00  0.00    +0.031 C 
ENDROOT
BRANCH   4   9
ATOM      8  O   UNL     1       0.070  -1.159  -2.380  0.00  0.00    -0.245 OA
ATOM      9  C   UNL     1      -0.527  -0.110  -2.135  0.00  0.00    +0.339 C 
BRANCH   9  10
ATOM     10  O   UNL     1      -0.631   0.900  -3.039  0.00  0.00    -0.477 OA
ATOM     11  H   UNL     1      -1.094   1.683  -2.815  0.00  0.00    +0.295 HD
ENDBRANCH   9  10
ENDBRANCH   4   9
BRANCH   3  12
ATOM     12  N   UNL     1       0.272   2.154  -0.572  0.00  0.00    -0.215 N 
ATOM     13  H   UNL     1       0.173   2.704  -1.382  0.00  0.00    +0.174 HD
BRANCH  12  14
ATOM     14  S   UNL     1       1.732   2.188   0.339  0.00  0.00    +0.074 S 
ATOM     15  O   UNL     1       2.767   2.824  -0.455  0.00  0.00    -0.150 OA
ATOM     16  O   UNL     1       1.468   2.657   1.686  0.00  0.00    -0.150 OA
BRANCH  14  18
ATOM     17  F   UNL     1       3.103  -3.540   0.661  0.00  0.00    -0.204 F 
ATOM     18  C   UNL     1       2.143   0.469   0.436  0.00  0.00    +0.125 C 
ATOM     19  C   UNL     1       2.941  -0.113  -0.549  0.00  0.00    +0.022 C 
ATOM     20  C   UNL     1       1.670  -0.302   1.497  0.00  0.00    +0.022 C 
ATOM     21  C   UNL     1       3.265  -1.468  -0.473  0.00  0.00    +0.031 C 
ATOM     22  C   UNL     1       1.994  -1.657   1.573  0.00  0.00    +0.031 C 
ATOM     23  C   UNL     1       2.792  -2.240   0.588  0.00  0.00    +0.140 C 
ENDBRANCH  14  18
ENDBRANCH  12  14
ENDBRANCH   3  12
BRANCH   1  24
ATOM     24  C   UNL     1      -4.000  -1.152   1.290  0.00  0.00    +0.026 C 
ATOM     25  C   UNL     1      -5.360  -0.673   0.793  0.00  0.00    +0.005 C 
ENDBRANCH   1  24
TORSDOF 6
