24812717
  -OEChem-10051721043D

 53 57  0     0  0  0  0  0  0999 V2000
   -0.1094    0.5403    0.0171 O   0  0  0  0  0  0  0  0  0  0  0  0
   -4.4389    2.2781   -1.0521 N   0  0  0  0  0  0  0  0  0  0  0  0
   -1.3813   -1.4419    0.0645 N   0  0  0  0  0  0  0  0  0  0  0  0
    5.9144    1.4089   -0.8355 N   0  0  0  0  0  0  0  0  0  0  0  0
    6.2177    1.5174    1.5526 N   0  0  0  0  0  0  0  0  0  0  0  0
    7.7778    2.4866    0.0980 N   0  0  0  0  0  0  0  0  0  0  0  0
   -6.3484    1.3660    0.1416 C   0  0  0  0  0  0  0  0  0  0  0  0
   -5.7377    2.6503   -0.5027 C   0  0  0  0  0  0  0  0  0  0  0  0
   -5.1180    0.5021    0.2729 C   0  0  0  0  0  0  0  0  0  0  0  0
   -4.0610    1.0922   -0.4274 C   0  0  0  0  0  0  0  0  0  0  0  0
   -6.9944    1.6805    1.4927 C   0  0  0  0  0  0  0  0  0  0  0  0
   -7.3657    0.7104   -0.8007 C   0  0  0  0  0  0  0  0  0  0  0  0
   -4.9589   -0.7118    0.9241 C   0  0  0  0  0  0  0  0  0  0  0  0
   -2.8337    0.4582   -0.5224 C   0  0  0  0  0  0  0  0  0  0  0  0
   -2.6606   -0.7623    0.1348 C   0  0  0  0  0  0  0  0  0  0  0  0
   -3.7151   -1.3416    0.8562 C   0  0  0  0  0  0  0  0  0  0  0  0
   -0.1866   -0.6888   -0.0374 C   0  0  0  0  0  0  0  0  0  0  0  0
    1.1065   -1.4690   -0.1710 C   0  0  0  0  0  0  0  0  0  0  0  0
   -1.3181   -2.8294    0.1219 C   0  0  0  0  0  0  0  0  0  0  0  0
    1.0890   -2.8161   -0.1204 C   0  0  0  0  0  0  0  0  0  0  0  0
   -0.1694   -3.5048    0.0440 C   0  0  0  0  0  0  0  0  0  0  0  0
    2.3631   -0.7163   -0.3374 C   0  0  0  0  0  0  0  0  0  0  0  0
    2.2848   -3.7243   -0.2311 C   0  0  0  0  0  0  0  0  0  0  0  0
    3.0929   -0.3160    0.7776 C   0  0  0  0  0  0  0  0  0  0  0  0
    2.8271   -0.4024   -1.6099 C   0  0  0  0  0  0  0  0  0  0  0  0
    4.2908    0.4008    0.6132 C   0  0  0  0  0  0  0  0  0  0  0  0
    4.7699    0.7238   -0.6668 C   0  0  0  0  0  0  0  0  0  0  0  0
    4.0195    0.3108   -1.7651 C   0  0  0  0  0  0  0  0  0  0  0  0
    5.0676    0.8301    1.6855 C   0  0  0  0  0  0  0  0  0  0  0  0
    6.5761    1.7683    0.2832 C   0  0  0  0  0  0  0  0  0  0  0  0
   -6.3809    3.0698   -1.2839 H   0  0  0  0  0  0  0  0  0  0  0  0
   -5.5823    3.4333    0.2504 H   0  0  0  0  0  0  0  0  0  0  0  0
   -3.7595    2.9555   -1.3689 H   0  0  0  0  0  0  0  0  0  0  0  0
   -7.8157    2.3963    1.3760 H   0  0  0  0  0  0  0  0  0  0  0  0
   -6.2704    2.1121    2.1938 H   0  0  0  0  0  0  0  0  0  0  0  0
   -7.4024    0.7780    1.9617 H   0  0  0  0  0  0  0  0  0  0  0  0
   -8.2277    1.3669   -0.9641 H   0  0  0  0  0  0  0  0  0  0  0  0
   -7.7386   -0.2345   -0.3889 H   0  0  0  0  0  0  0  0  0  0  0  0
   -6.9259    0.4880   -1.7802 H   0  0  0  0  0  0  0  0  0  0  0  0
   -5.7759   -1.1680    1.4725 H   0  0  0  0  0  0  0  0  0  0  0  0
   -2.0693    0.9053   -1.1479 H   0  0  0  0  0  0  0  0  0  0  0  0
   -3.5988   -2.2725    1.4038 H   0  0  0  0  0  0  0  0  0  0  0  0
   -2.2461   -3.3844    0.1930 H   0  0  0  0  0  0  0  0  0  0  0  0
   -0.1753   -4.5896    0.0768 H   0  0  0  0  0  0  0  0  0  0  0  0
    2.1762   -4.3939   -1.0918 H   0  0  0  0  0  0  0  0  0  0  0  0
    2.3820   -4.3374    0.6720 H   0  0  0  0  0  0  0  0  0  0  0  0
    3.2293   -3.1885   -0.3583 H   0  0  0  0  0  0  0  0  0  0  0  0
    2.7382   -0.5565    1.7783 H   0  0  0  0  0  0  0  0  0  0  0  0
    2.2737   -0.7043   -2.4959 H   0  0  0  0  0  0  0  0  0  0  0  0
    4.3610    0.5440   -2.7718 H   0  0  0  0  0  0  0  0  0  0  0  0
    4.7780    0.6274    2.7126 H   0  0  0  0  0  0  0  0  0  0  0  0
    8.0897    2.7000   -0.8393 H   0  0  0  0  0  0  0  0  0  0  0  0
    8.3113    2.7792    0.9049 H   0  0  0  0  0  0  0  0  0  0  0  0
  1 17  2  0  0  0  0
  2  8  1  0  0  0  0
  2 10  1  0  0  0  0
  2 33  1  0  0  0  0
  3 15  1  0  0  0  0
  3 17  1  0  0  0  0
  3 19  1  0  0  0  0
  4 27  2  0  0  0  0
  4 30  1  0  0  0  0
  5 29  1  0  0  0  0
  5 30  2  0  0  0  0
  6 30  1  0  0  0  0
  6 52  1  0  0  0  0
  6 53  1  0  0  0  0
  7  8  1  0  0  0  0
  7  9  1  0  0  0  0
  7 11  1  0  0  0  0
  7 12  1  0  0  0  0
  8 31  1  0  0  0  0
  8 32  1  0  0  0  0
  9 10  2  0  0  0  0
  9 13  1  0  0  0  0
 10 14  1  0  0  0  0
 11 34  1  0  0  0  0
 11 35  1  0  0  0  0
 11 36  1  0  0  0  0
 12 37  1  0  0  0  0
 12 38  1  0  0  0  0
 12 39  1  0  0  0  0
 13 16  2  0  0  0  0
 13 40  1  0  0  0  0
 14 15  2  0  0  0  0
 14 41  1  0  0  0  0
 15 16  1  0  0  0  0
 16 42  1  0  0  0  0
 17 18  1  0  0  0  0
 18 20  2  0  0  0  0
 18 22  1  0  0  0  0
 19 21  2  0  0  0  0
 19 43  1  0  0  0  0
 20 21  1  0  0  0  0
 20 23  1  0  0  0  0
 21 44  1  0  0  0  0
 22 24  2  0  0  0  0
 22 25  1  0  0  0  0
 23 45  1  0  0  0  0
 23 46  1  0  0  0  0
 23 47  1  0  0  0  0
 24 26  1  0  0  0  0
 24 48  1  0  0  0  0
 25 28  2  0  0  0  0
 25 49  1  0  0  0  0
 26 27  1  0  0  0  0
 26 29  2  0  0  0  0
 27 28  1  0  0  0  0
 28 50  1  0  0  0  0
 29 51  1  0  0  0  0
M  END
> <DATABASE_ID>
DB07514

> <DATABASE_NAME>
drugbank

> <ORIGINAL_SOURCE>
PUBCHEM

> <ORIGINAL_SOURCE_URL>
https://pubchem.ncbi.nlm.nih.gov/rest/pug/compound/inchikey/LHLGUOHREUTYTO-UHFFFAOYSA-N/SDF?record_type=3d

> <SMILES>
CC1=C(C(=O)N(C=C1)C1=CC=C2C(NCC2(C)C)=C1)C1=CC2=CN=C(N)N=C2C=C1

> <INCHI_IDENTIFIER>
InChI=1S/C24H23N5O/c1-14-8-9-29(17-5-6-18-20(11-17)27-13-24(18,2)3)22(30)21(14)15-4-7-19-16(10-15)12-26-23(25)28-19/h4-12,27H,13H2,1-3H3,(H2,25,26,28)

> <INCHI_KEY>
LHLGUOHREUTYTO-UHFFFAOYSA-N

> <FORMULA>
C24H23N5O

> <MOLECULAR_WEIGHT>
397.4723

> <EXACT_MASS>
397.190260383

> <JCHEM_ACCEPTOR_COUNT>
5

> <JCHEM_AVERAGE_POLARIZABILITY>
44.872694328849306

> <JCHEM_BIOAVAILABILITY>
1

> <JCHEM_DONOR_COUNT>
2

> <JCHEM_FORMAL_CHARGE>
0

> <JCHEM_GHOSE_FILTER>
1

> <JCHEM_IUPAC>
3-(2-aminoquinazolin-6-yl)-1-(3,3-dimethyl-2,3-dihydro-1H-indol-6-yl)-4-methyl-1,2-dihydropyridin-2-one

> <ALOGPS_LOGP>
3.50

> <JCHEM_LOGP>
3.367262583000002

> <ALOGPS_LOGS>
-4.55

> <JCHEM_MDDR_LIKE_RULE>
0

> <JCHEM_NUMBER_OF_RINGS>
5

> <JCHEM_PHYSIOLOGICAL_CHARGE>
0

> <JCHEM_PKA_STRONGEST_ACIDIC>
16.463372087583313

> <JCHEM_PKA_STRONGEST_BASIC>
4.266036708413728

> <JCHEM_POLAR_SURFACE_AREA>
84.14

> <JCHEM_REFRACTIVITY>
121.21569999999998

> <JCHEM_ROTATABLE_BOND_COUNT>
2

> <JCHEM_RULE_OF_FIVE>
1

> <ALOGPS_SOLUBILITY>
1.12e-02 g/l

> <JCHEM_TRADITIONAL_IUPAC>
3-(2-aminoquinazolin-6-yl)-1-(3,3-dimethyl-1,2-dihydroindol-6-yl)-4-methylpyridin-2-one

> <JCHEM_VEBER_RULE>
0

> <DRUGBANK_ID>
DB07514

> <DRUG_GROUPS>
experimental

> <GENERIC_NAME>
3-(2-aminoquinazolin-6-yl)-1-(3,3-dimethylindolin-6-yl)-4-methylpyridin-2(1H)-one

$$$$
