REMARK  Name = 5288615
REMARK  7 active torsions:
REMARK  status: ('A' for Active; 'I' for Inactive)
REMARK    1  A    between atoms: S_1  and  N_5
REMARK    2  A    between atoms: S_1  and  C_18
REMARK    3  A    between atoms: C_7  and  C_14
REMARK    4  A    between atoms: N_13  and  O_16
REMARK    5  A    between atoms: C_23  and  O_24
REMARK    6  A    between atoms: O_24  and  C_25
REMARK    7  A    between atoms: C_25  and  C_26
REMARK                            x       y       z     vdW  Elec       q    Type
REMARK                         _______ _______ _______ _____ _____    ______ ____
ROOT
ATOM      1  S   UNL     1      -0.980   1.263   0.544  0.00  0.00    +0.064 S 
ATOM      2  O   UNL     1      -1.162   1.415   1.971  0.00  0.00    -0.153 OA
ATOM      3  O   UNL     1      -1.255   2.353  -0.365  0.00  0.00    -0.153 OA
ENDROOT
BRANCH   1   5
ATOM      4  S   UNL     1      -3.581  -2.459  -1.226  0.00  0.00    -0.139 S 
ATOM      5  N   UNL     1      -1.836  -0.127   0.018  0.00  0.00    -0.146 NA
ATOM      6  C   UNL     1      -3.726  -1.738   0.464  0.00  0.00    +0.063 C 
ATOM      7  C   UNL     1      -3.240  -0.270   0.514  0.00  0.00    +0.166 C 
ATOM      8  C   UNL     1      -1.618  -0.520  -1.404  0.00  0.00    +0.108 C 
ATOM      9  C   UNL     1      -1.865  -2.006  -1.601  0.00  0.00    +0.077 C 
ATOM     10  C   UNL     1      -2.911  -2.605   1.444  0.00  0.00    +0.013 C 
ATOM     11  C   UNL     1      -5.209  -1.838   0.868  0.00  0.00    +0.013 C 
BRANCH   7  14
ATOM     12  O   UNL     1      -4.293   0.610  -1.435  0.00  0.00    -0.271 OA
ATOM     13  N   UNL     1      -4.642   1.670   0.590  0.00  0.00    -0.196 N 
ATOM     14  C   UNL     1      -4.105   0.708  -0.225  0.00  0.00    +0.261 C 
ATOM     15  H   UNL     1      -4.457   1.701   1.556  0.00  0.00    +0.182 HD
BRANCH  13  16
ATOM     16  O   UNL     1      -5.471   2.608  -0.041  0.00  0.00    -0.295 OA
ATOM     17  H   UNL     1      -5.799   3.242   0.615  0.00  0.00    +0.241 HD
ENDBRANCH  13  16
ENDBRANCH   7  14
ENDBRANCH   1   5
BRANCH   1  18
ATOM     18  C   UNL     1       0.678   0.725   0.264  0.00  0.00    +0.122 C 
ATOM     19  C   UNL     1       1.484   1.438  -0.609  0.00  0.00    +0.023 C 
ATOM     20  C   UNL     1       1.146  -0.401   0.921  0.00  0.00    +0.023 C 
ATOM     21  C   UNL     1       2.794   1.013  -0.831  0.00  0.00    +0.038 C 
ATOM     22  C   UNL     1       2.456  -0.826   0.699  0.00  0.00    +0.038 C 
ATOM     23  C   UNL     1       3.280  -0.119  -0.177  0.00  0.00    +0.140 C 
BRANCH  23  24
ATOM     24  O   UNL     1       4.559  -0.533  -0.392  0.00  0.00    -0.461 OA
BRANCH  24  25
ATOM     25  C   UNL     1       5.521   0.470  -0.710  0.00  0.00    +0.281 C 
BRANCH  25  26
ATOM     26  C   UNL     1       6.835   0.072  -0.205  0.00  0.00    -0.044 C 
ATOM     27  C   UNL     1       7.914  -0.253   0.210  0.00  0.00    -0.086 C 
ATOM     28  C   UNL     1       9.227  -0.649   0.715  0.00  0.00    +0.090 C 
ENDBRANCH  25  26
ENDBRANCH  24  25
ENDBRANCH  23  24
ENDBRANCH   1  18
TORSDOF 7
