REMARK  Name = 5312804
REMARK  12 active torsions:
REMARK  status: ('A' for Active; 'I' for Inactive)
REMARK    1  A    between atoms: C_1  and  C_2
REMARK    2  A    between atoms: C_1  and  C_10
REMARK    3  A    between atoms: C_2  and  C_3
REMARK    4  A    between atoms: C_3  and  C_4
REMARK    5  A    between atoms: C_4  and  C_5
REMARK    6  A    between atoms: C_5  and  C_6
REMARK    7  A    between atoms: C_6  and  C_7
REMARK    8  A    between atoms: C_7  and  C_8
REMARK    9  A    between atoms: C_10  and  O_11
REMARK   10  A    between atoms: C_10  and  C_13
REMARK   11  A    between atoms: C_13  and  C_15
REMARK   12  A    between atoms: C_15  and  O_16
REMARK                            x       y       z     vdW  Elec       q    Type
REMARK                         _______ _______ _______ _____ _____    ______ ____
ROOT
ATOM      1  C   UNL     1       1.869  -0.600   0.077  0.00  0.00    +0.030 C 
ENDROOT
BRANCH   1   2
ATOM      2  C   UNL     1       0.633   0.285  -0.096  0.00  0.00    +0.002 C 
BRANCH   2   3
ATOM      3  C   UNL     1      -0.654  -0.523   0.087  0.00  0.00    +0.000 C 
BRANCH   3   4
ATOM      4  C   UNL     1      -1.928   0.310  -0.094  0.00  0.00    +0.000 C 
BRANCH   4   5
ATOM      5  C   UNL     1      -3.248  -0.464  -0.005  0.00  0.00    +0.000 C 
BRANCH   5   6
ATOM      6  C   UNL     1      -4.483   0.430  -0.137  0.00  0.00    +0.000 C 
BRANCH   6   7
ATOM      7  C   UNL     1      -5.802  -0.346  -0.056  0.00  0.00    +0.000 C 
BRANCH   7   8
ATOM      8  C   UNL     1      -7.074   0.505  -0.094  0.00  0.00    +0.000 C 
ATOM      9  C   UNL     1      -8.353  -0.305   0.054  0.00  0.00    +0.000 C 
ENDBRANCH   7   8
ENDBRANCH   6   7
ENDBRANCH   5   6
ENDBRANCH   4   5
ENDBRANCH   3   4
ENDBRANCH   2   3
ENDBRANCH   1   2
BRANCH   1  10
ATOM     10  C   UNL     1       3.194   0.167  -0.013  0.00  0.00    +0.122 C 
BRANCH  10  11
ATOM     11  O   UNL     1       3.143   1.192   0.985  0.00  0.00    -0.384 OA
ATOM     12  H   UNL     1       2.371   1.758   0.828  0.00  0.00    +0.210 HD
ENDBRANCH  10  11
BRANCH  10  13
ATOM     13  C   UNL     1       4.418  -0.717   0.250  0.00  0.00    +0.138 C 
BRANCH  13  15
ATOM     14  O   UNL     1       5.805   1.028  -0.738  0.00  0.00    -0.250 OA
ATOM     15  C   UNL     1       5.707  -0.075  -0.220  0.00  0.00    +0.316 C 
BRANCH  15  16
ATOM     16  O   UNL     1       6.774  -0.887   0.001  0.00  0.00    -0.480 OA
ATOM     17  H   UNL     1       6.650  -1.726   0.401  0.00  0.00    +0.295 HD
ENDBRANCH  15  16
ENDBRANCH  13  15
ENDBRANCH  10  13
ENDBRANCH   1  10
TORSDOF 12
