REMARK  Name = 128564
REMARK  11 active torsions:
REMARK  status: ('A' for Active; 'I' for Inactive)
REMARK    1  A    between atoms: N_2  and  C_17
REMARK    2  A    between atoms: C_3  and  C_5
REMARK    3  A    between atoms: C_5  and  C_6
REMARK    4  A    between atoms: C_5  and  C_10
REMARK    5  A    between atoms: C_6  and  C_7
REMARK    6  A    between atoms: C_10  and  C_13
REMARK    7  A    between atoms: N_12  and  O_15
REMARK    8  A    between atoms: C_17  and  C_20
REMARK    9  A    between atoms: C_17  and  C_23
REMARK   10  A    between atoms: C_23  and  C_24
REMARK   11  A    between atoms: C_29  and  O_30
REMARK                            x       y       z     vdW  Elec       q    Type
REMARK                         _______ _______ _______ _____ _____    ______ ____
ROOT
ATOM      1  O   UNL     1      -1.260   0.760   1.924  0.00  0.00    -0.275 OA
ATOM      2  N   UNL     1      -0.517   0.914  -0.267  0.00  0.00    -0.298 N 
ATOM      3  C   UNL     1      -1.291   0.385   0.752  0.00  0.00    +0.223 C 
ATOM      4  H   UNL     1      -0.614   0.545  -1.175  0.00  0.00    +0.150 HD
ENDROOT
BRANCH   3   5
ATOM      5  C   UNL     1      -2.227  -0.739   0.309  0.00  0.00    +0.086 C 
BRANCH   5   6
ATOM      6  C   UNL     1      -1.459  -1.954  -0.252  0.00  0.00    +0.010 C 
BRANCH   6   7
ATOM      7  C   UNL     1      -0.434  -2.583   0.716  0.00  0.00    +0.000 C 
ATOM      8  C   UNL     1       0.332  -3.745   0.083  0.00  0.00    +0.000 C 
ATOM      9  C   UNL     1      -1.150  -3.067   1.980  0.00  0.00    +0.000 C 
ENDBRANCH   6   7
ENDBRANCH   5   6
BRANCH   5  10
ATOM     10  C   UNL     1      -3.245  -0.206  -0.714  0.00  0.00    +0.096 C 
BRANCH  10  13
ATOM     11  O   UNL     1      -4.625  -2.006  -1.501  0.00  0.00    -0.273 OA
ATOM     12  N   UNL     1      -5.461  -0.608   0.141  0.00  0.00    -0.197 N 
ATOM     13  C   UNL     1      -4.506  -1.047  -0.741  0.00  0.00    +0.245 C 
ATOM     14  H   UNL     1      -5.312   0.168   0.728  0.00  0.00    +0.182 HD
BRANCH  12  15
ATOM     15  O   UNL     1      -6.660  -1.333   0.153  0.00  0.00    -0.295 OA
ATOM     16  H   UNL     1      -7.265  -0.946   0.805  0.00  0.00    +0.241 HD
ENDBRANCH  12  15
ENDBRANCH  10  13
ENDBRANCH   5  10
ENDBRANCH   3   5
BRANCH   2  17
ATOM     17  C   UNL     1       0.426   1.985  -0.050  0.00  0.00    +0.153 C 
BRANCH  17  20
ATOM     18  O   UNL     1      -1.266   3.450  -0.980  0.00  0.00    -0.273 OA
ATOM     19  N   UNL     1       0.099   4.251   0.720  0.00  0.00    -0.301 N 
ATOM     20  C   UNL     1      -0.341   3.296  -0.185  0.00  0.00    +0.241 C 
ATOM     21  C   UNL     1      -0.491   5.565   0.836  0.00  0.00    +0.111 C 
ATOM     22  H   UNL     1       0.851   4.022   1.313  0.00  0.00    +0.150 HD
ENDBRANCH  17  20
BRANCH  17  23
ATOM     23  C   UNL     1       1.590   1.943  -1.046  0.00  0.00    +0.055 C 
BRANCH  23  24
ATOM     24  C   UNL     1       2.637   0.920  -0.678  0.00  0.00    -0.020 C 
ATOM     25  C   UNL     1       3.707   1.280   0.142  0.00  0.00    -0.001 C 
ATOM     26  C   UNL     1       2.534  -0.386  -1.157  0.00  0.00    -0.001 C 
ATOM     27  C   UNL     1       4.674   0.334   0.482  0.00  0.00    +0.037 C 
ATOM     28  C   UNL     1       3.501  -1.332  -0.817  0.00  0.00    +0.037 C 
ATOM     29  C   UNL     1       4.571  -0.972   0.003  0.00  0.00    +0.139 C 
BRANCH  29  30
ATOM     30  O   UNL     1       5.514  -1.895   0.335  0.00  0.00    -0.471 OA
ATOM     31  C   UNL     1       5.348  -3.211  -0.189  0.00  0.00    +0.252 C 
ENDBRANCH  29  30
ENDBRANCH  23  24
ENDBRANCH  17  23
ENDBRANCH   2  17
TORSDOF 11
