REMARK  Name = 24180722
REMARK  3 active torsions:
REMARK  status: ('A' for Active; 'I' for Inactive)
REMARK    1  A    between atoms: C_3  and  C_11
REMARK    2  A    between atoms: C_11  and  C_12
REMARK    3  A    between atoms: C_15  and  O_18
REMARK                            x       y       z     vdW  Elec       q    Type
REMARK                         _______ _______ _______ _____ _____    ______ ____
ROOT
ATOM      1  N   UNL     1      -2.594   1.762   0.700  0.00  0.00    -0.297 N 
ATOM      2  N   UNL     1      -3.760  -0.328   0.971  0.00  0.00    -0.229 NA
ATOM      3  C   UNL     1      -0.957   1.150  -0.678  0.00  0.00    -0.000 C 
ATOM      4  C   UNL     1      -1.760   0.010  -0.407  0.00  0.00    +0.029 C 
ATOM      5  C   UNL     1      -2.771   0.426   0.455  0.00  0.00    +0.132 C 
ATOM      6  C   UNL     1      -1.494   2.212   0.017  0.00  0.00    +0.059 C 
ATOM      7  C   UNL     1      -1.754  -1.340  -0.792  0.00  0.00    +0.004 C 
ATOM      8  C   UNL     1      -2.756  -2.166  -0.286  0.00  0.00    +0.021 C 
ATOM      9  C   UNL     1      -3.705  -1.619   0.567  0.00  0.00    +0.100 C 
ATOM     10  H   UNL     1      -3.167   2.314   1.279  0.00  0.00    +0.154 HD
ENDROOT
BRANCH   3  11
ATOM     11  C   UNL     1       0.238   1.199  -1.544  0.00  0.00    +0.054 C 
BRANCH  11  12
ATOM     12  C   UNL     1       1.439   0.894  -0.673  0.00  0.00    -0.015 C 
ATOM     13  C   UNL     1       1.867  -0.423  -0.511  0.00  0.00    +0.033 C 
ATOM     14  C   UNL     1       2.117   1.932  -0.033  0.00  0.00    -0.004 C 
ATOM     15  C   UNL     1       2.973  -0.704   0.292  0.00  0.00    +0.138 C 
ATOM     16  C   UNL     1       3.223   1.651   0.770  0.00  0.00    +0.003 C 
ATOM     17  C   UNL     1       3.651   0.334   0.932  0.00  0.00    +0.037 C 
BRANCH  15  18
ATOM     18  O   UNL     1       3.390  -1.989   0.452  0.00  0.00    -0.471 OA
ATOM     19  C   UNL     1       2.652  -3.001  -0.232  0.00  0.00    +0.252 C 
ENDBRANCH  15  18
ENDBRANCH  11  12
ENDBRANCH   3  11
TORSDOF 3
