REMARK  Name = 447739
REMARK  7 active torsions:
REMARK  status: ('A' for Active; 'I' for Inactive)
REMARK    1  A    between atoms: C_4  and  C_14
REMARK    2  A    between atoms: C_5  and  C_11
REMARK    3  A    between atoms: C_7  and  C_19
REMARK    4  A    between atoms: C_11  and  C_12
REMARK    5  A    between atoms: C_14  and  C_16
REMARK    6  A    between atoms: C_16  and  O_17
REMARK    7  A    between atoms: C_19  and  C_22
REMARK                            x       y       z     vdW  Elec       q    Type
REMARK                         _______ _______ _______ _____ _____    ______ ____
ROOT
ATOM      1  N   UNL     1       1.568   0.239   0.780  0.00  0.00    -0.316 N 
ATOM      2  C   UNL     1       0.205   0.067   0.694  0.00  0.00    +0.045 C 
ATOM      3  C   UNL     1      -0.028  -1.299   0.523  0.00  0.00    +0.014 C 
ATOM      4  C   UNL     1      -0.830   1.008   0.754  0.00  0.00    +0.002 C 
ATOM      5  C   UNL     1      -2.402  -0.822   0.463  0.00  0.00    -0.022 C 
ATOM      6  C   UNL     1      -1.357  -1.751   0.405  0.00  0.00    -0.003 C 
ATOM      7  C   UNL     1       2.204  -0.969   0.670  0.00  0.00    +0.035 C 
ATOM      8  C   UNL     1      -2.140   0.536   0.635  0.00  0.00    -0.007 C 
ATOM      9  C   UNL     1       1.242  -1.940   0.510  0.00  0.00    +0.012 C 
ATOM     10  H   UNL     1       2.021   1.104   0.903  0.00  0.00    +0.152 HD
ENDROOT
BRANCH   5  11
ATOM     11  C   UNL     1      -3.813  -1.294   0.340  0.00  0.00    +0.026 C 
BRANCH  11  12
ATOM     12  C   UNL     1      -4.293  -1.312  -1.117  0.00  0.00    +0.005 C 
ATOM     13  C   UNL     1      -5.719  -1.825  -1.238  0.00  0.00    +0.000 C 
ENDBRANCH  11  12
ENDBRANCH   5  11
BRANCH   4  14
ATOM     14  C   UNL     1      -0.585   2.469   0.936  0.00  0.00    +0.137 C 
BRANCH  14  16
ATOM     15  O   UNL     1      -0.434   2.713  -1.482  0.00  0.00    -0.250 OA
ATOM     16  C   UNL     1      -0.419   3.221  -0.369  0.00  0.00    +0.318 C 
BRANCH  16  17
ATOM     17  O   UNL     1      -0.248   4.554  -0.167  0.00  0.00    -0.480 OA
ATOM     18  H   UNL     1      -0.244   4.898   0.705  0.00  0.00    +0.295 HD
ENDBRANCH  16  17
ENDBRANCH  14  16
ENDBRANCH   4  14
BRANCH   7  19
ATOM     19  C   UNL     1       3.674  -1.069   0.729  0.00  0.00    +0.126 C 
BRANCH  19  22
ATOM     20  O   UNL     1       4.017  -1.741  -1.565  0.00  0.00    -0.275 OA
ATOM     21  N   UNL     1       5.087   0.156  -0.831  0.00  0.00    -0.328 N 
ATOM     22  C   UNL     1       4.270  -0.940  -0.668  0.00  0.00    +0.225 C 
ATOM     23  H   UNL     1       5.518   0.323  -1.700  0.00  0.00    +0.145 HD
ATOM     24  H   UNL     1       5.239   0.772  -0.079  0.00  0.00    +0.145 HD
ENDBRANCH  19  22
ENDBRANCH   7  19
TORSDOF 7
