REMARK  Name = 1121782
REMARK  8 active torsions:
REMARK  status: ('A' for Active; 'I' for Inactive)
REMARK    1  A    between atoms: C_2  and  S_22
REMARK    2  A    between atoms: C_5  and  C_10
REMARK    3  A    between atoms: N_9  and  C_12
REMARK    4  A    between atoms: C_13  and  C_19
REMARK    5  A    between atoms: C_19  and  O_20
REMARK    6  A    between atoms: S_22  and  N_25
REMARK    7  A    between atoms: N_25  and  C_26
REMARK    8  A    between atoms: N_25  and  C_28
REMARK                            x       y       z     vdW  Elec       q    Type
REMARK                         _______ _______ _______ _____ _____    ______ ____
ROOT
ATOM      1 BR   UNL     1       4.861  -2.038   0.213  0.00  0.00    -0.048 Br
ATOM      2  C   UNL     1       2.276  -0.914  -0.440  0.00  0.00    +0.128 C 
ATOM      3  C   UNL     1       0.890  -0.889  -0.467  0.00  0.00    +0.025 C 
ATOM      4  C   UNL     1       2.966  -1.960   0.151  0.00  0.00    +0.053 C 
ATOM      5  C   UNL     1       0.176  -1.938   0.112  0.00  0.00    +0.055 C 
ATOM      6  C   UNL     1       2.252  -3.009   0.729  0.00  0.00    +0.008 C 
ATOM      7  C   UNL     1       0.857  -2.999   0.710  0.00  0.00    +0.005 C 
ENDROOT
BRANCH   5  10
ATOM      8  O   UNL     1      -1.890  -3.006   0.146  0.00  0.00    -0.270 OA
ATOM      9  N   UNL     1      -1.879  -0.662   0.037  0.00  0.00    -0.280 N 
ATOM     10  C   UNL     1      -1.278  -1.927   0.092  0.00  0.00    +0.250 C 
ATOM     11  H   UNL     1      -1.261   0.104  -0.002  0.00  0.00    +0.155 HD
BRANCH   9  12
ATOM     12  C   UNL     1      -3.259  -0.340   0.030  0.00  0.00    +0.057 C 
ATOM     13  C   UNL     1      -3.669   0.981  -0.029  0.00  0.00    +0.089 C 
ATOM     14  C   UNL     1      -4.176  -1.378   0.084  0.00  0.00    +0.015 C 
ATOM     15  C   UNL     1      -5.033   1.274  -0.034  0.00  0.00    +0.008 C 
ATOM     16  C   UNL     1      -5.540  -1.086   0.079  0.00  0.00    +0.001 C 
ATOM     17  C   UNL     1      -5.968   0.240   0.020  0.00  0.00    +0.000 C 
BRANCH  13  19
ATOM     18  O   UNL     1      -1.596   2.034  -0.592  0.00  0.00    -0.245 OA
ATOM     19  C   UNL     1      -2.719   2.085  -0.084  0.00  0.00    +0.339 C 
BRANCH  19  20
ATOM     20  O   UNL     1      -3.204   3.215   0.496  0.00  0.00    -0.477 OA
ATOM     21  H   UNL     1      -4.062   3.217   0.872  0.00  0.00    +0.295 HD
ENDBRANCH  19  20
ENDBRANCH  13  19
ENDBRANCH   9  12
ENDBRANCH   5  10
BRANCH   2  22
ATOM     22  S   UNL     1       3.119   0.449  -1.194  0.00  0.00    +0.064 S 
ATOM     23  O   UNL     1       4.431  -0.025  -1.595  0.00  0.00    -0.153 OA
ATOM     24  O   UNL     1       2.227   1.008  -2.192  0.00  0.00    -0.153 OA
BRANCH  22  25
ATOM     25  N   UNL     1       3.286   1.559   0.115  0.00  0.00    -0.156 NA
BRANCH  25  26
ATOM     26  C   UNL     1       2.046   2.051   0.769  0.00  0.00    +0.096 C 
ATOM     27  C   UNL     1       1.583   3.326   0.092  0.00  0.00    +0.021 C 
ENDBRANCH  25  26
BRANCH  25  28
ATOM     28  C   UNL     1       4.372   1.314   1.098  0.00  0.00    +0.096 C 
ATOM     29  C   UNL     1       4.867   2.634   1.653  0.00  0.00    +0.021 C 
ENDBRANCH  25  28
ENDBRANCH  22  25
ENDBRANCH   2  22
TORSDOF 8
