REMARK  Name = 45273683
REMARK  3 active torsions:
REMARK  status: ('A' for Active; 'I' for Inactive)
REMARK    1  A    between atoms: C_5  and  C_20
REMARK    2  A    between atoms: C_14  and  O_18
REMARK    3  A    between atoms: C_20  and  N_21
REMARK                            x       y       z     vdW  Elec       q    Type
REMARK                         _______ _______ _______ _____ _____    ______ ____
ROOT
ATOM      1  S   UNL     1       0.061  -2.360   0.382  0.00  0.00    -0.081 S 
ATOM      2  O   UNL     1       2.944  -2.671  -0.083  0.00  0.00    -0.270 OA
ATOM      3  N   UNL     1       1.011   1.212  -0.831  0.00  0.00    -0.331 N 
ATOM      4  N   UNL     1       3.536  -0.508  -0.195  0.00  0.00    -0.302 N 
ATOM      5  C   UNL     1       3.388   0.941  -0.205  0.00  0.00    +0.070 C 
ATOM      6  C   UNL     1       2.381   1.395  -1.252  0.00  0.00    +0.105 C 
ATOM      7  C   UNL     1       0.474   0.042  -0.395  0.00  0.00    +0.056 A 
ATOM      8  C   UNL     1       1.157  -1.125  -0.103  0.00  0.00    +0.096 A 
ATOM      9  C   UNL     1      -0.955  -0.067  -0.176  0.00  0.00    +0.023 A 
ATOM     10  C   UNL     1       2.568  -1.495  -0.129  0.00  0.00    +0.253 C 
ATOM     11  C   UNL     1      -1.311  -1.345   0.253  0.00  0.00    +0.031 A 
ATOM     12  C   UNL     1      -2.001   0.884  -0.333  0.00  0.00    +0.039 C 
ATOM     13  C   UNL     1      -2.648  -1.696   0.527  0.00  0.00    +0.010 C 
ATOM     14  C   UNL     1      -3.329   0.543  -0.062  0.00  0.00    +0.139 C 
ATOM     15  C   UNL     1      -3.648  -0.736   0.365  0.00  0.00    +0.037 C 
ATOM     16  H   UNL     1       0.419   1.997  -0.863  0.00  0.00    +0.147 HD
ATOM     17  H   UNL     1       4.464  -0.834  -0.242  0.00  0.00    +0.150 HD
ENDROOT
BRANCH  14  18
ATOM     18  O   UNL     1      -4.311   1.473  -0.220  0.00  0.00    -0.471 OA
ATOM     19  C   UNL     1      -5.646   1.062   0.072  0.00  0.00    +0.252 C 
ENDBRANCH  14  18
BRANCH   5  20
ATOM     20  C   UNL     1       3.149   1.499   1.196  0.00  0.00    -0.064 C 
BRANCH  20  21
ATOM     21  N   UNL     1       3.180   2.953   1.188  0.00  0.00    +0.382 N 
ATOM     22  H   UNL     1       3.018   3.303   2.132  0.00  0.00    -0.089 HD
ATOM     23  H   UNL     1       2.452   3.305   0.566  0.00  0.00    -0.089 HD
ATOM     24  H   UNL     1       4.092   3.272   0.859  0.00  0.00    -0.089 HD
ENDBRANCH  20  21
ENDBRANCH   5  20
TORSDOF 3
