REMARK  Name = 11674979
REMARK  4 active torsions:
REMARK  status: ('A' for Active; 'I' for Inactive)
REMARK    1  A    between atoms: C_4  and  C_20
REMARK    2  A    between atoms: C_5  and  C_13
REMARK    3  A    between atoms: C_20  and  C_21
REMARK    4  A    between atoms: C_24  and  O_27
REMARK                            x       y       z     vdW  Elec       q    Type
REMARK                         _______ _______ _______ _____ _____    ______ ____
ROOT
ATOM      1  N   UNL     1      -2.266  -3.141  -0.791  0.00  0.00    -0.297 N 
ATOM      2  N   UNL     1      -3.717  -2.281   0.929  0.00  0.00    -0.229 NA
ATOM      3  C   UNL     1      -1.873  -1.049  -0.116  0.00  0.00    +0.036 C 
ATOM      4  C   UNL     1      -0.933  -1.391  -1.125  0.00  0.00    +0.056 C 
ATOM      5  C   UNL     1      -2.133   0.082   0.674  0.00  0.00    +0.005 C 
ATOM      6  C   UNL     1      -2.689  -2.161   0.068  0.00  0.00    +0.132 C 
ATOM      7  C   UNL     1      -1.200  -2.684  -1.521  0.00  0.00    +0.066 C 
ATOM      8  C   UNL     1      -3.187   0.012   1.583  0.00  0.00    +0.021 C 
ATOM      9  C   UNL     1      -3.922  -1.163   1.664  0.00  0.00    +0.100 C 
ATOM     10  H   UNL     1      -2.667  -4.037  -0.872  0.00  0.00    +0.154 HD
ENDROOT
BRANCH   5  13
ATOM     11  F   UNL     1      -1.270   4.369  -1.376  0.00  0.00    -0.204 F 
ATOM     12  F   UNL     1       1.697   2.739   1.936  0.00  0.00    -0.204 F 
ATOM     13  C   UNL     1      -1.329   1.271   0.539  0.00  0.00    +0.005 C 
ATOM     14  C   UNL     1      -0.181   1.435   1.318  0.00  0.00    +0.030 C 
ATOM     15  C   UNL     1      -1.695   2.267  -0.371  0.00  0.00    +0.030 C 
ATOM     16  C   UNL     1      -0.917   3.417  -0.502  0.00  0.00    +0.142 C 
ATOM     17  C   UNL     1       0.597   2.586   1.188  0.00  0.00    +0.142 C 
ATOM     18  C   UNL     1       0.229   3.577   0.278  0.00  0.00    +0.059 C 
ENDBRANCH   5  13
BRANCH   4  20
ATOM     19  O   UNL     1      -0.077   0.133  -2.679  0.00  0.00    -0.287 OA
ATOM     20  C   UNL     1       0.122  -0.593  -1.681  0.00  0.00    +0.197 C 
BRANCH  20  21
ATOM     21  C   UNL     1       1.517  -0.570  -1.117  0.00  0.00    +0.042 C 
ATOM     22  C   UNL     1       1.786  -1.351  -0.023  0.00  0.00    +0.040 C 
ATOM     23  C   UNL     1       2.449   0.229  -1.727  0.00  0.00    +0.003 C 
ATOM     24  C   UNL     1       3.079  -1.331   0.499  0.00  0.00    +0.139 C 
ATOM     25  C   UNL     1       3.742   0.249  -1.204  0.00  0.00    +0.003 C 
ATOM     26  C   UNL     1       4.057  -0.531  -0.091  0.00  0.00    +0.037 C 
BRANCH  24  27
ATOM     27  O   UNL     1       3.386  -2.092   1.584  0.00  0.00    -0.471 OA
ATOM     28  C   UNL     1       4.728  -2.025   2.066  0.00  0.00    +0.252 C 
ENDBRANCH  24  27
ENDBRANCH  20  21
ENDBRANCH   4  20
TORSDOF 4
