REMARK  Name = 448285
REMARK  10 active torsions:
REMARK  status: ('A' for Active; 'I' for Inactive)
REMARK    1  A    between atoms: N_2  and  N_6
REMARK    2  A    between atoms: C_3  and  C_16
REMARK    3  A    between atoms: C_7  and  C_10
REMARK    4  A    between atoms: C_16  and  O_17
REMARK    5  A    between atoms: C_16  and  C_19
REMARK    6  A    between atoms: C_19  and  N_20
REMARK    7  A    between atoms: C_19  and  C_24
REMARK    8  A    between atoms: C_24  and  C_25
REMARK    9  A    between atoms: C_25  and  S_26
REMARK   10  A    between atoms: S_26  and  C_27
REMARK                            x       y       z     vdW  Elec       q    Type
REMARK                         _______ _______ _______ _____ _____    ______ ____
ROOT
ATOM      1  O   UNL     1      -1.002  -2.159   1.421  0.00  0.00    -0.271 OA
ATOM      2  N   UNL     1      -0.542  -1.837  -0.830  0.00  0.00    -0.232 N 
ATOM      3  C   UNL     1      -1.373  -2.060   0.253  0.00  0.00    +0.263 C 
ATOM      4  H   UNL     1      -0.913  -1.770  -1.739  0.00  0.00    +0.173 HD
ENDROOT
BRANCH   2   6
ATOM      5  O   UNL     1       0.671   0.583  -0.324  0.00  0.00    -0.269 OA
ATOM      6  N   UNL     1       0.808  -1.711  -0.617  0.00  0.00    -0.230 N 
ATOM      7  C   UNL     1       1.328  -0.455  -0.370  0.00  0.00    +0.261 C 
ATOM      8  H   UNL     1       1.396  -2.501  -0.639  0.00  0.00    +0.173 HD
BRANCH   7  10
ATOM      9 CL   UNL     1       5.763   2.245  -0.562  0.00  0.00    -0.082 Cl
ATOM     10  C   UNL     1       2.793  -0.400  -0.130  0.00  0.00    +0.056 C 
ATOM     11  C   UNL     1       3.506   0.762  -0.424  0.00  0.00    +0.016 C 
ATOM     12  C   UNL     1       3.455  -1.512   0.390  0.00  0.00    +0.005 C 
ATOM     13  C   UNL     1       4.882   0.812  -0.199  0.00  0.00    +0.058 C 
ATOM     14  C   UNL     1       4.831  -1.462   0.615  0.00  0.00    +0.001 C 
ATOM     15  C   UNL     1       5.544  -0.300   0.321  0.00  0.00    +0.011 C 
ENDBRANCH   7  10
ENDBRANCH   2   6
BRANCH   3  16
ATOM     16  C   UNL     1      -2.836  -2.203  -0.157  0.00  0.00    +0.168 C 
BRANCH  16  17
ATOM     17  O   UNL     1      -3.456  -3.147   0.704  0.00  0.00    -0.377 OA
ATOM     18  H   UNL     1      -4.388  -3.248   0.456  0.00  0.00    +0.211 HD
ENDBRANCH  16  17
BRANCH  16  19
ATOM     19  C   UNL     1      -3.583  -0.852  -0.100  0.00  0.00    -0.028 C 
BRANCH  19  20
ATOM     20  N   UNL     1      -4.995  -1.106  -0.413  0.00  0.00    +0.384 N 
ATOM     21  H   UNL     1      -5.513  -0.228  -0.382  0.00  0.00    -0.089 HD
ATOM     22  H   UNL     1      -5.383  -1.755   0.272  0.00  0.00    -0.089 HD
ATOM     23  H   UNL     1      -5.068  -1.512  -1.345  0.00  0.00    -0.089 HD
ENDBRANCH  19  20
BRANCH  19  24
ATOM     24  C   UNL     1      -2.983   0.197  -1.066  0.00  0.00    -0.007 C 
BRANCH  24  25
ATOM     25  C   UNL     1      -3.676   1.564  -1.091  0.00  0.00    +0.055 C 
BRANCH  25  26
ATOM     26  S   UNL     1      -3.680   2.392   0.526  0.00  0.00    -0.141 S 
BRANCH  26  27
ATOM     27  C   UNL     1      -1.994   3.041   0.491  0.00  0.00    +0.048 C 
ATOM     28  C   UNL     1      -1.514   3.301   1.914  0.00  0.00    +0.012 C 
ATOM     29  C   UNL     1      -1.949   4.310  -0.352  0.00  0.00    +0.012 C 
ENDBRANCH  26  27
ENDBRANCH  25  26
ENDBRANCH  24  25
ENDBRANCH  19  24
ENDBRANCH  16  19
ENDBRANCH   3  16
TORSDOF 10
