4447
  -OEChem-10051721093D

 49 51  0     0  0  0  0  0  0999 V2000
   -1.7601   -5.7263   -1.2740 O   0  0  0  0  0  0  0  0  0  0  0  0
   -2.9762   -3.8498   -1.6958 O   0  0  0  0  0  0  0  0  0  0  0  0
   -0.3376   -0.0739   -0.0111 N   0  0  0  0  0  0  0  0  0  0  0  0
    1.0171   -1.9197    0.4297 N   0  0  0  0  0  0  0  0  0  0  0  0
   -1.0678   -2.2618   -0.6218 N   0  0  0  0  0  0  0  0  0  0  0  0
    7.1148    1.0677    0.5290 N   0  0  0  0  0  0  0  0  0  0  0  0
   -1.4786    0.7135   -0.4218 C   0  0  0  0  0  0  0  0  0  0  0  0
   -1.0571    2.0823   -0.9265 C   0  0  0  0  0  0  0  0  0  0  0  0
   -2.5231    0.7961    0.6773 C   0  0  0  0  0  0  0  0  0  0  0  0
   -0.7735    2.2439   -2.2689 C   0  0  0  0  0  0  0  0  0  0  0  0
   -2.1149    0.7404    1.9960 C   0  0  0  0  0  0  0  0  0  0  0  0
   -0.9682    3.1293   -0.0294 C   0  0  0  0  0  0  0  0  0  0  0  0
   -3.8540    0.9243    0.3290 C   0  0  0  0  0  0  0  0  0  0  0  0
   -0.1814   -1.4571   -0.1064 C   0  0  0  0  0  0  0  0  0  0  0  0
   -0.3861    3.5013   -2.7322 C   0  0  0  0  0  0  0  0  0  0  0  0
   -3.0746    0.8160    3.0054 C   0  0  0  0  0  0  0  0  0  0  0  0
   -0.5809    4.3866   -0.4927 C   0  0  0  0  0  0  0  0  0  0  0  0
   -4.8136    1.0000    1.3385 C   0  0  0  0  0  0  0  0  0  0  0  0
   -0.2898    4.5726   -1.8440 C   0  0  0  0  0  0  0  0  0  0  0  0
   -4.4240    0.9458    2.6765 C   0  0  0  0  0  0  0  0  0  0  0  0
    2.2856   -1.2981    0.4504 C   0  0  0  0  0  0  0  0  0  0  0  0
    3.1909   -1.5998    1.4662 C   0  0  0  0  0  0  0  0  0  0  0  0
    2.6284   -0.3851   -0.5452 C   0  0  0  0  0  0  0  0  0  0  0  0
   -0.7912   -3.6906   -0.6352 C   0  0  0  0  0  0  0  0  0  0  0  0
    4.4434   -0.9861    1.4866 C   0  0  0  0  0  0  0  0  0  0  0  0
    3.8810    0.2285   -0.5247 C   0  0  0  0  0  0  0  0  0  0  0  0
    4.7884   -0.0721    0.4911 C   0  0  0  0  0  0  0  0  0  0  0  0
   -1.9684   -4.3845   -1.2581 C   0  0  0  0  0  0  0  0  0  0  0  0
    6.0715    0.5565    0.5120 C   0  0  0  0  0  0  0  0  0  0  0  0
   -1.9531    0.1903   -1.2647 H   0  0  0  0  0  0  0  0  0  0  0  0
    0.3702    0.4382    0.5098 H   0  0  0  0  0  0  0  0  0  0  0  0
   -0.8425    1.4152   -2.9673 H   0  0  0  0  0  0  0  0  0  0  0  0
   -1.0729    0.6540    2.2875 H   0  0  0  0  0  0  0  0  0  0  0  0
   -1.1614    3.0275    1.0316 H   0  0  0  0  0  0  0  0  0  0  0  0
   -4.1669    0.9687   -0.7100 H   0  0  0  0  0  0  0  0  0  0  0  0
   -0.1581    3.6460   -3.7842 H   0  0  0  0  0  0  0  0  0  0  0  0
   -2.7715    0.7772    4.0476 H   0  0  0  0  0  0  0  0  0  0  0  0
   -0.5004    5.2199    0.1993 H   0  0  0  0  0  0  0  0  0  0  0  0
   -5.8642    1.1017    1.0825 H   0  0  0  0  0  0  0  0  0  0  0  0
    1.0617   -2.8847    0.7441 H   0  0  0  0  0  0  0  0  0  0  0  0
    0.0134    5.5512   -2.2044 H   0  0  0  0  0  0  0  0  0  0  0  0
   -5.1711    1.0056    3.4625 H   0  0  0  0  0  0  0  0  0  0  0  0
    2.9323   -2.3098    2.2476 H   0  0  0  0  0  0  0  0  0  0  0  0
    1.9543   -0.1512   -1.3645 H   0  0  0  0  0  0  0  0  0  0  0  0
    0.0955   -3.9121   -1.2387 H   0  0  0  0  0  0  0  0  0  0  0  0
   -0.6840   -4.0778    0.3839 H   0  0  0  0  0  0  0  0  0  0  0  0
    5.1398   -1.2304    2.2852 H   0  0  0  0  0  0  0  0  0  0  0  0
    4.1378    0.9347   -1.3108 H   0  0  0  0  0  0  0  0  0  0  0  0
   -2.5135   -6.2085   -1.6768 H   0  0  0  0  0  0  0  0  0  0  0  0
  1 28  1  0  0  0  0
  1 49  1  0  0  0  0
  2 28  2  0  0  0  0
  3  7  1  0  0  0  0
  3 14  1  0  0  0  0
  3 31  1  0  0  0  0
  4 14  1  0  0  0  0
  4 21  1  0  0  0  0
  4 40  1  0  0  0  0
  5 14  2  0  0  0  0
  5 24  1  0  0  0  0
  6 29  3  0  0  0  0
  7  8  1  0  0  0  0
  7  9  1  0  0  0  0
  7 30  1  0  0  0  0
  8 10  2  0  0  0  0
  8 12  1  0  0  0  0
  9 11  2  0  0  0  0
  9 13  1  0  0  0  0
 10 15  1  0  0  0  0
 10 32  1  0  0  0  0
 11 16  1  0  0  0  0
 11 33  1  0  0  0  0
 12 17  2  0  0  0  0
 12 34  1  0  0  0  0
 13 18  2  0  0  0  0
 13 35  1  0  0  0  0
 15 19  2  0  0  0  0
 15 36  1  0  0  0  0
 16 20  2  0  0  0  0
 16 37  1  0  0  0  0
 17 19  1  0  0  0  0
 17 38  1  0  0  0  0
 18 20  1  0  0  0  0
 18 39  1  0  0  0  0
 19 41  1  0  0  0  0
 20 42  1  0  0  0  0
 21 22  2  0  0  0  0
 21 23  1  0  0  0  0
 22 25  1  0  0  0  0
 22 43  1  0  0  0  0
 23 26  2  0  0  0  0
 23 44  1  0  0  0  0
 24 28  1  0  0  0  0
 24 45  1  0  0  0  0
 24 46  1  0  0  0  0
 25 27  2  0  0  0  0
 25 47  1  0  0  0  0
 26 27  1  0  0  0  0
 26 48  1  0  0  0  0
 27 29  1  0  0  0  0
M  END
> <DATABASE_ID>
DB07816

> <DATABASE_NAME>
drugbank

> <ORIGINAL_SOURCE>
PUBCHEM

> <ORIGINAL_SOURCE_URL>
https://pubchem.ncbi.nlm.nih.gov/rest/pug/compound/inchikey/KGHMYJFHUHFOGL-UHFFFAOYSA-N/SDF?record_type=3d

> <SMILES>
OC(=O)C\N=C(\NC(C1=CC=CC=C1)C1=CC=CC=C1)NC1=CC=C(C=C1)C#N

> <INCHI_IDENTIFIER>
InChI=1S/C23H20N4O2/c24-15-17-11-13-20(14-12-17)26-23(25-16-21(28)29)27-22(18-7-3-1-4-8-18)19-9-5-2-6-10-19/h1-14,22H,16H2,(H,28,29)(H2,25,26,27)

> <INCHI_KEY>
KGHMYJFHUHFOGL-UHFFFAOYSA-N

> <FORMULA>
C23H20N4O2

> <MOLECULAR_WEIGHT>
384.4305

> <EXACT_MASS>
384.158625904

> <JCHEM_ACCEPTOR_COUNT>
6

> <JCHEM_AVERAGE_POLARIZABILITY>
41.159787946797266

> <JCHEM_BIOAVAILABILITY>
1

> <JCHEM_DONOR_COUNT>
3

> <JCHEM_FORMAL_CHARGE>
0

> <JCHEM_GHOSE_FILTER>
1

> <JCHEM_IUPAC>
2-[(Z)-{[(4-cyanophenyl)amino][(diphenylmethyl)amino]methylidene}amino]acetic acid

> <ALOGPS_LOGP>
3.85

> <JCHEM_LOGP>
2.645861701990553

> <ALOGPS_LOGS>
-4.72

> <JCHEM_MDDR_LIKE_RULE>
1

> <JCHEM_NUMBER_OF_RINGS>
3

> <JCHEM_PHYSIOLOGICAL_CHARGE>
0

> <JCHEM_PKA_STRONGEST_ACIDIC>
2.974435863323182

> <JCHEM_PKA_STRONGEST_BASIC>
9.48846936041192

> <JCHEM_POLAR_SURFACE_AREA>
97.50999999999999

> <JCHEM_REFRACTIVITY>
112.1498

> <JCHEM_ROTATABLE_BOND_COUNT>
6

> <JCHEM_RULE_OF_FIVE>
1

> <ALOGPS_SOLUBILITY>
7.28e-03 g/l

> <JCHEM_TRADITIONAL_IUPAC>
CP-Dpm-GA

> <JCHEM_VEBER_RULE>
0

> <DRUGBANK_ID>
DB07816

> <DRUG_GROUPS>
experimental

> <GENERIC_NAME>
N-(P-CYANOPHENYL)-N'-DIPHENYLMETHYL-GUANIDINE-ACETIC ACID

$$$$
