REMARK  Name = 5288193
REMARK  3 active torsions:
REMARK  status: ('A' for Active; 'I' for Inactive)
REMARK    1  A    between atoms: C_1  and  C_9
REMARK    2  A    between atoms: C_4  and  C_16
REMARK    3  A    between atoms: C_16  and  O_17
REMARK                            x       y       z     vdW  Elec       q    Type
REMARK                         _______ _______ _______ _____ _____    ______ ____
ROOT
ATOM      1  C   UNL     1       0.184   0.015   0.006  0.00  0.00    +0.000 C 
ATOM      2  C   UNL     1       0.873   1.150   0.432  0.00  0.00    +0.000 C 
ATOM      3  C   UNL     1       0.890  -1.112  -0.417  0.00  0.00    +0.000 C 
ATOM      4  C   UNL     1       2.974   0.033   0.012  0.00  0.00    +0.075 C 
ATOM      5  C   UNL     1       2.268   1.160   0.434  0.00  0.00    +0.006 C 
ATOM      6  C   UNL     1       2.285  -1.102  -0.414  0.00  0.00    +0.006 C 
ENDROOT
BRANCH   1   9
ATOM      7  F   UNL     1      -4.011  -2.348   0.386  0.00  0.00    -0.204 F 
ATOM      8  F   UNL     1      -4.039   2.323  -0.393  0.00  0.00    -0.204 F 
ATOM      9  C   UNL     1      -1.263   0.005   0.002  0.00  0.00    +0.004 C 
ATOM     10  C   UNL     1      -1.967   1.192  -0.198  0.00  0.00    +0.030 C 
ATOM     11  C   UNL     1      -1.953  -1.191   0.200  0.00  0.00    +0.030 C 
ATOM     12  C   UNL     1      -3.348  -1.200   0.197  0.00  0.00    +0.142 C 
ATOM     13  C   UNL     1      -3.362   1.183  -0.201  0.00  0.00    +0.142 C 
ATOM     14  C   UNL     1      -4.052  -0.012  -0.003  0.00  0.00    +0.059 C 
ENDBRANCH   1   9
BRANCH   4  16
ATOM     15  O   UNL     1       5.137   0.991   0.369  0.00  0.00    -0.245 OA
ATOM     16  C   UNL     1       4.428   0.043   0.014  0.00  0.00    +0.338 C 
BRANCH  16  17
ATOM     17  O   UNL     1       4.957  -1.131  -0.425  0.00  0.00    -0.477 OA
ATOM     18  H   UNL     1       4.392  -1.831  -0.687  0.00  0.00    +0.295 HD
ENDBRANCH  16  17
ENDBRANCH   4  16
TORSDOF 3
