REMARK  Name = 448297
REMARK  13 active torsions:
REMARK  status: ('A' for Active; 'I' for Inactive)
REMARK    1  A    between atoms: C_2  and  N_7
REMARK    2  A    between atoms: C_3  and  O_11
REMARK    3  A    between atoms: C_4  and  O_13
REMARK    4  A    between atoms: C_5  and  C_24
REMARK    5  A    between atoms: C_6  and  O_15
REMARK    6  A    between atoms: O_15  and  C_16
REMARK    7  A    between atoms: C_16  and  C_17
REMARK    8  A    between atoms: C_17  and  C_18
REMARK    9  A    between atoms: C_18  and  C_19
REMARK   10  A    between atoms: C_19  and  C_20
REMARK   11  A    between atoms: C_20  and  C_21
REMARK   12  A    between atoms: C_21  and  C_22
REMARK   13  A    between atoms: C_24  and  O_25
REMARK                            x       y       z     vdW  Elec       q    Type
REMARK                         _______ _______ _______ _____ _____    ______ ____
ROOT
ATOM      1  O   UNL     1       2.237   0.822  -0.222  0.00  0.00    -0.326 OA
ATOM      2  C   UNL     1       4.313  -1.066   0.419  0.00  0.00    -0.003 C 
ATOM      3  C   UNL     1       4.617   0.365  -0.049  0.00  0.00    +0.123 C 
ATOM      4  C   UNL     1       2.929  -1.524  -0.064  0.00  0.00    +0.149 C 
ATOM      5  C   UNL     1       3.464   1.301   0.340  0.00  0.00    +0.172 C 
ATOM      6  C   UNL     1       1.868  -0.467   0.268  0.00  0.00    +0.261 C 
ENDROOT
BRANCH   2   7
ATOM      7  N   UNL     1       5.355  -1.988  -0.039  0.00  0.00    +0.385 N 
ATOM      8  H   UNL     1       6.264  -1.666   0.293  0.00  0.00    -0.089 HD
ATOM      9  H   UNL     1       5.356  -2.020  -1.058  0.00  0.00    -0.089 HD
ATOM     10  H   UNL     1       5.169  -2.921   0.331  0.00  0.00    -0.089 HD
ENDBRANCH   2   7
BRANCH   3  11
ATOM     11  O   UNL     1       4.804   0.396  -1.466  0.00  0.00    -0.384 OA
ATOM     12  H   UNL     1       5.533  -0.196  -1.709  0.00  0.00    +0.210 HD
ENDBRANCH   3  11
BRANCH   4  13
ATOM     13  O   UNL     1       2.558  -2.735   0.594  0.00  0.00    -0.381 OA
ATOM     14  H   UNL     1       3.214  -3.422   0.400  0.00  0.00    +0.210 HD
ENDBRANCH   4  13
BRANCH   6  15
ATOM     15  O   UNL     1       0.608  -0.850  -0.286  0.00  0.00    -0.329 OA
BRANCH  15  16
ATOM     16  C   UNL     1      -0.469  -0.179   0.354  0.00  0.00    +0.145 C 
BRANCH  16  17
ATOM     17  C   UNL     1      -1.778  -0.646  -0.268  0.00  0.00    +0.032 C 
BRANCH  17  18
ATOM     18  C   UNL     1      -2.982   0.051   0.364  0.00  0.00    +0.003 C 
BRANCH  18  19
ATOM     19  C   UNL     1      -4.294  -0.456  -0.239  0.00  0.00    +0.000 C 
BRANCH  19  20
ATOM     20  C   UNL     1      -5.535   0.226   0.344  0.00  0.00    +0.000 C 
BRANCH  20  21
ATOM     21  C   UNL     1      -6.842  -0.227  -0.311  0.00  0.00    +0.000 C 
BRANCH  21  22
ATOM     22  C   UNL     1      -8.039   0.537   0.258  0.00  0.00    +0.000 C 
ATOM     23  C   UNL     1      -9.337   0.119  -0.415  0.00  0.00    +0.000 C 
ENDBRANCH  21  22
ENDBRANCH  20  21
ENDBRANCH  19  20
ENDBRANCH  18  19
ENDBRANCH  17  18
ENDBRANCH  16  17
ENDBRANCH  15  16
ENDBRANCH   6  15
BRANCH   5  24
ATOM     24  C   UNL     1       3.674   2.723  -0.167  0.00  0.00    +0.169 C 
BRANCH  24  25
ATOM     25  O   UNL     1       2.849   3.596   0.584  0.00  0.00    -0.379 OA
ATOM     26  H   UNL     1       2.973   4.506   0.271  0.00  0.00    +0.211 HD
ENDBRANCH  24  25
ENDBRANCH   5  24
TORSDOF 13
