16122633
  -OEChem-10051721103D

 48 52  0     0  0  0  0  0  0999 V2000
    5.9843   -3.7820    0.5190 Cl  0  0  0  0  0  0  0  0  0  0  0  0
    2.3734    4.0747   -0.3369 N   0  0  0  0  0  0  0  0  0  0  0  0
   -3.3287   -2.0294   -0.7777 N   0  0  0  0  0  0  0  0  0  0  0  0
   -4.3047    1.1641    0.7630 N   0  0  0  0  0  0  0  0  0  0  0  0
   -5.7265   -1.8000   -0.3915 N   0  0  0  0  0  0  0  0  0  0  0  0
   -6.3608    0.3143    0.6269 N   0  0  0  0  0  0  0  0  0  0  0  0
    2.3904    1.0668   -0.0695 C   0  0  0  0  0  0  0  0  0  0  0  0
    2.5657    2.0914    1.1062 C   0  0  0  0  0  0  0  0  0  0  0  0
    2.8588    1.8581   -1.3420 C   0  0  0  0  0  0  0  0  0  0  0  0
    1.8550    3.4246    0.8615 C   0  0  0  0  0  0  0  0  0  0  0  0
    2.1952    3.2309   -1.5128 C   0  0  0  0  0  0  0  0  0  0  0  0
    0.9237    0.5650   -0.1206 C   0  0  0  0  0  0  0  0  0  0  0  0
    3.3101   -0.1760    0.0820 C   0  0  0  0  0  0  0  0  0  0  0  0
    0.1906    0.4316    1.0586 C   0  0  0  0  0  0  0  0  0  0  0  0
    0.3378    0.2472   -1.3459 C   0  0  0  0  0  0  0  0  0  0  0  0
    3.7962   -0.8259   -1.0525 C   0  0  0  0  0  0  0  0  0  0  0  0
    3.6505   -0.6416    1.3521 C   0  0  0  0  0  0  0  0  0  0  0  0
   -1.1285   -0.0193    1.0125 C   0  0  0  0  0  0  0  0  0  0  0  0
   -0.9814   -0.2039   -1.3921 C   0  0  0  0  0  0  0  0  0  0  0  0
   -1.7146   -0.3371   -0.2128 C   0  0  0  0  0  0  0  0  0  0  0  0
    4.6225   -1.9413   -0.9171 C   0  0  0  0  0  0  0  0  0  0  0  0
    4.4769   -1.7572    1.4877 C   0  0  0  0  0  0  0  0  0  0  0  0
    4.9627   -2.4071    0.3530 C   0  0  0  0  0  0  0  0  0  0  0  0
   -3.0826   -0.8049   -0.2603 C   0  0  0  0  0  0  0  0  0  0  0  0
   -4.1591   -0.0695    0.1951 C   0  0  0  0  0  0  0  0  0  0  0  0
   -5.4493   -0.5770    0.1212 C   0  0  0  0  0  0  0  0  0  0  0  0
   -4.6170   -2.4456   -0.8109 C   0  0  0  0  0  0  0  0  0  0  0  0
   -5.6406    1.3492    1.0036 C   0  0  0  0  0  0  0  0  0  0  0  0
    3.6405    2.3034    1.2220 H   0  0  0  0  0  0  0  0  0  0  0  0
    2.2652    1.7118    2.0860 H   0  0  0  0  0  0  0  0  0  0  0  0
    2.6987    1.3165   -2.2785 H   0  0  0  0  0  0  0  0  0  0  0  0
    3.9452    2.0248   -1.2796 H   0  0  0  0  0  0  0  0  0  0  0  0
    0.7691    3.2963    0.7921 H   0  0  0  0  0  0  0  0  0  0  0  0
    2.0397    4.0835    1.7174 H   0  0  0  0  0  0  0  0  0  0  0  0
    2.6435    3.7356   -2.3760 H   0  0  0  0  0  0  0  0  0  0  0  0
    1.1278    3.1168   -1.7354 H   0  0  0  0  0  0  0  0  0  0  0  0
    1.8904    4.9612   -0.4789 H   0  0  0  0  0  0  0  0  0  0  0  0
    0.6035    0.6269    2.0405 H   0  0  0  0  0  0  0  0  0  0  0  0
    0.8753    0.3183   -2.2845 H   0  0  0  0  0  0  0  0  0  0  0  0
    3.5386   -0.5266   -2.0615 H   0  0  0  0  0  0  0  0  0  0  0  0
    3.2806   -0.1752    2.2586 H   0  0  0  0  0  0  0  0  0  0  0  0
   -1.6782   -0.1304    1.9443 H   0  0  0  0  0  0  0  0  0  0  0  0
   -1.4220   -0.4483   -2.3558 H   0  0  0  0  0  0  0  0  0  0  0  0
    4.9890   -2.4421   -1.8096 H   0  0  0  0  0  0  0  0  0  0  0  0
    4.7315   -2.1114    2.4834 H   0  0  0  0  0  0  0  0  0  0  0  0
   -3.5662    1.8239    0.9685 H   0  0  0  0  0  0  0  0  0  0  0  0
   -4.7786   -3.4321   -1.2321 H   0  0  0  0  0  0  0  0  0  0  0  0
   -6.0190    2.2564    1.4530 H   0  0  0  0  0  0  0  0  0  0  0  0
  1 23  1  0  0  0  0
  2 10  1  0  0  0  0
  2 11  1  0  0  0  0
  2 37  1  0  0  0  0
  3 24  1  0  0  0  0
  3 27  2  0  0  0  0
  4 25  1  0  0  0  0
  4 28  1  0  0  0  0
  4 46  1  0  0  0  0
  5 26  2  0  0  0  0
  5 27  1  0  0  0  0
  6 26  1  0  0  0  0
  6 28  2  0  0  0  0
  7  8  1  0  0  0  0
  7  9  1  0  0  0  0
  7 12  1  0  0  0  0
  7 13  1  0  0  0  0
  8 10  1  0  0  0  0
  8 29  1  0  0  0  0
  8 30  1  0  0  0  0
  9 11  1  0  0  0  0
  9 31  1  0  0  0  0
  9 32  1  0  0  0  0
 10 33  1  0  0  0  0
 10 34  1  0  0  0  0
 11 35  1  0  0  0  0
 11 36  1  0  0  0  0
 12 14  2  0  0  0  0
 12 15  1  0  0  0  0
 13 16  2  0  0  0  0
 13 17  1  0  0  0  0
 14 18  1  0  0  0  0
 14 38  1  0  0  0  0
 15 19  2  0  0  0  0
 15 39  1  0  0  0  0
 16 21  1  0  0  0  0
 16 40  1  0  0  0  0
 17 22  2  0  0  0  0
 17 41  1  0  0  0  0
 18 20  2  0  0  0  0
 18 42  1  0  0  0  0
 19 20  1  0  0  0  0
 19 43  1  0  0  0  0
 20 24  1  0  0  0  0
 21 23  2  0  0  0  0
 21 44  1  0  0  0  0
 22 23  1  0  0  0  0
 22 45  1  0  0  0  0
 24 25  2  0  0  0  0
 25 26  1  0  0  0  0
 27 47  1  0  0  0  0
 28 48  1  0  0  0  0
M  END
> <DATABASE_ID>
DB07856

> <DATABASE_NAME>
drugbank

> <ORIGINAL_SOURCE>
PUBCHEM

> <ORIGINAL_SOURCE_URL>
https://pubchem.ncbi.nlm.nih.gov/rest/pug/compound/inchikey/HPWBHQIUIBFTQC-UHFFFAOYSA-N/SDF?record_type=3d

> <SMILES>
ClC1=CC=C(C=C1)C1(CCNCC1)C1=CC=C(C=C1)C1=C2N=CNC2=NC=N1

> <INCHI_IDENTIFIER>
InChI=1S/C22H20ClN5/c23-18-7-5-17(6-8-18)22(9-11-24-12-10-22)16-3-1-15(2-4-16)19-20-21(27-13-25-19)28-14-26-20/h1-8,13-14,24H,9-12H2,(H,25,26,27,28)

> <INCHI_KEY>
HPWBHQIUIBFTQC-UHFFFAOYSA-N

> <FORMULA>
C22H20ClN5

> <MOLECULAR_WEIGHT>
389.881

> <EXACT_MASS>
389.140723372

> <JCHEM_ACCEPTOR_COUNT>
4

> <JCHEM_AVERAGE_POLARIZABILITY>
41.73169104487734

> <JCHEM_BIOAVAILABILITY>
1

> <JCHEM_DONOR_COUNT>
2

> <JCHEM_FORMAL_CHARGE>
0

> <JCHEM_GHOSE_FILTER>
1

> <JCHEM_IUPAC>
6-{4-[4-(4-chlorophenyl)piperidin-4-yl]phenyl}-9H-purine

> <ALOGPS_LOGP>
3.74

> <JCHEM_LOGP>
3.39595236146394

> <ALOGPS_LOGS>
-5.21

> <JCHEM_MDDR_LIKE_RULE>
0

> <JCHEM_NUMBER_OF_RINGS>
5

> <JCHEM_PHYSIOLOGICAL_CHARGE>
1

> <JCHEM_PKA_STRONGEST_ACIDIC>
10.429561367545578

> <JCHEM_PKA_STRONGEST_BASIC>
9.800277236893672

> <JCHEM_POLAR_SURFACE_AREA>
66.49000000000001

> <JCHEM_REFRACTIVITY>
121.63990000000001

> <JCHEM_ROTATABLE_BOND_COUNT>
3

> <JCHEM_RULE_OF_FIVE>
1

> <ALOGPS_SOLUBILITY>
2.43e-03 g/l

> <JCHEM_TRADITIONAL_IUPAC>
6-{4-[4-(4-chlorophenyl)piperidin-4-yl]phenyl}-9H-purine

> <JCHEM_VEBER_RULE>
0

> <DRUGBANK_ID>
DB07856

> <DRUG_GROUPS>
experimental

> <GENERIC_NAME>
6-{4-[4-(4-CHLOROPHENYL)PIPERIDIN-4-YL]PHENYL}-9H-PURINE

$$$$
