REMARK  Name = 9925908
REMARK  4 active torsions:
REMARK  status: ('A' for Active; 'I' for Inactive)
REMARK    1  A    between atoms: C_3  and  C_13
REMARK    2  A    between atoms: C_6  and  C_24
REMARK    3  A    between atoms: N_12  and  C_19
REMARK    4  A    between atoms: C_19  and  C_20
REMARK                            x       y       z     vdW  Elec       q    Type
REMARK                         _______ _______ _______ _____ _____    ______ ____
ROOT
ATOM      1  N   UNL     1       1.132  -1.931   0.086  0.00  0.00    -0.318 N 
ATOM      2  N   UNL     1       1.023   0.283  -0.078  0.00  0.00    -0.318 N 
ATOM      3  C   UNL     1       0.337  -0.832  -0.040  0.00  0.00    +0.143 C 
ATOM      4  C   UNL     1       2.432  -1.496   0.133  0.00  0.00    +0.059 C 
ATOM      5  C   UNL     1       2.337  -0.111   0.029  0.00  0.00    +0.063 C 
ATOM      6  C   UNL     1       3.512   0.659   0.045  0.00  0.00    +0.067 C 
ATOM      7  C   UNL     1       3.645  -2.174   0.254  0.00  0.00    +0.016 C 
ATOM      8  C   UNL     1       4.742  -0.001   0.166  0.00  0.00    +0.006 C 
ATOM      9  C   UNL     1       4.805  -1.392   0.269  0.00  0.00    +0.001 C 
ATOM     10  H   UNL     1       0.829  -2.867   0.134  0.00  0.00    +0.148 HD
ATOM     11  H   UNL     1       0.675   1.200  -0.164  0.00  0.00    +0.148 HD
ENDROOT
BRANCH   3  13
ATOM     12  N   UNL     1      -3.871   0.157  -0.360  0.00  0.00    +0.387 N 
ATOM     13  C   UNL     1      -1.175  -0.964  -0.121  0.00  0.00    +0.033 C 
ATOM     14  C   UNL     1      -1.734  -0.447  -1.454  0.00  0.00    -0.020 C 
ATOM     15  C   UNL     1      -1.883  -0.270   1.052  0.00  0.00    -0.020 C 
ATOM     16  C   UNL     1      -3.260  -0.555  -1.491  0.00  0.00    -0.077 C 
ATOM     17  C   UNL     1      -3.404  -0.385   0.924  0.00  0.00    -0.077 C 
ATOM     18  H   UNL     1      -3.583   1.134  -0.412  0.00  0.00    -0.080 HD
BRANCH  12  19
ATOM     19  C   UNL     1      -5.330   0.091  -0.442  0.00  0.00    -0.077 C 
BRANCH  19  20
ATOM     20  C   UNL     1      -5.971   0.881   0.694  0.00  0.00    -0.023 C 
ATOM     21  C   UNL     1      -7.492   0.882   0.628  0.00  0.00    -0.002 C 
ENDBRANCH  19  20
ENDBRANCH  12  19
ENDBRANCH   3  13
BRANCH   6  24
ATOM     22  O   UNL     1       4.493   2.798  -0.060  0.00  0.00    -0.270 OA
ATOM     23  N   UNL     1       2.204   2.702  -0.176  0.00  0.00    -0.325 N 
ATOM     24  C   UNL     1       3.458   2.106  -0.059  0.00  0.00    +0.244 C 
ATOM     25  H   UNL     1       2.130   3.681  -0.249  0.00  0.00    +0.145 HD
ATOM     26  H   UNL     1       1.393   2.145  -0.187  0.00  0.00    +0.145 HD
ENDBRANCH   6  24
TORSDOF 4
