REMARK  Name = 6419789
REMARK  3 active torsions:
REMARK  status: ('A' for Active; 'I' for Inactive)
REMARK    1  A    between atoms: N_4  and  C_13
REMARK    2  A    between atoms: C_5  and  C_19
REMARK    3  A    between atoms: C_22  and  N_25
REMARK                            x       y       z     vdW  Elec       q    Type
REMARK                         _______ _______ _______ _____ _____    ______ ____
ROOT
ATOM      1  N   UNL     1      -1.924  -2.599   0.318  0.00  0.00    -0.164 N 
ATOM      2  N   UNL     1      -0.109  -1.151  -0.306  0.00  0.00    -0.374 NA
ATOM      3  N   UNL     1      -3.249  -2.548   0.613  0.00  0.00    -0.174 NA
ATOM      4  N   UNL     1       2.006  -2.053  -0.661  0.00  0.00    -0.288 N 
ATOM      5  C   UNL     1      -2.473  -0.461   0.134  0.00  0.00    +0.134 C 
ATOM      6  C   UNL     1      -1.418  -1.338   0.020  0.00  0.00    +0.194 C 
ATOM      7  C   UNL     1      -3.565  -1.258   0.498  0.00  0.00    +0.104 C 
ATOM      8  C   UNL     1       0.677  -2.204  -0.333  0.00  0.00    +0.186 C 
ATOM      9  C   UNL     1      -1.102  -3.717   0.293  0.00  0.00    +0.096 C 
ATOM     10  C   UNL     1       0.191  -3.594  -0.020  0.00  0.00    +0.066 C 
ATOM     11  H   UNL     1       2.442  -2.816  -1.105  0.00  0.00    +0.155 HD
ENDROOT
BRANCH   4  13
ATOM     12 CL   UNL     1       3.021   2.043   2.258  0.00  0.00    -0.082 Cl
ATOM     13  C   UNL     1       2.796  -0.932  -0.428  0.00  0.00    +0.051 C 
ATOM     14  C   UNL     1       2.547  -0.094   0.672  0.00  0.00    +0.026 C 
ATOM     15  C   UNL     1       3.860  -0.615  -1.288  0.00  0.00    +0.015 C 
ATOM     16  C   UNL     1       3.341   1.029   0.905  0.00  0.00    +0.059 C 
ATOM     17  C   UNL     1       4.653   0.509  -1.055  0.00  0.00    +0.002 C 
ATOM     18  C   UNL     1       4.394   1.331   0.041  0.00  0.00    +0.011 C 
ENDBRANCH   4  13
BRANCH   5  19
ATOM     19  C   UNL     1      -2.381   0.950  -0.091  0.00  0.00    -0.008 C 
ATOM     20  C   UNL     1      -1.186   1.626   0.164  0.00  0.00    +0.011 C 
ATOM     21  C   UNL     1      -3.488   1.657  -0.567  0.00  0.00    -0.003 C 
ATOM     22  C   UNL     1      -1.097   3.001  -0.055  0.00  0.00    +0.041 C 
ATOM     23  C   UNL     1      -3.400   3.032  -0.786  0.00  0.00    +0.001 C 
ATOM     24  C   UNL     1      -2.205   3.704  -0.530  0.00  0.00    +0.014 C 
BRANCH  22  25
ATOM     25  N   UNL     1       0.111   3.681   0.204  0.00  0.00    -0.357 N 
ATOM     26  H   UNL     1       0.892   3.185   0.540  0.00  0.00    +0.142 HD
ATOM     27  H   UNL     1       0.172   4.651   0.050  0.00  0.00    +0.142 HD
ENDBRANCH  22  25
ENDBRANCH   5  19
TORSDOF 3
