REMARK  Name = 44073
REMARK  6 active torsions:
REMARK  status: ('A' for Active; 'I' for Inactive)
REMARK    1  A    between atoms: C_1  and  O_14
REMARK    2  A    between atoms: C_2  and  C_11
REMARK    3  A    between atoms: C_4  and  N_9
REMARK    4  A    between atoms: C_11  and  O_12
REMARK    5  A    between atoms: O_14  and  C_16
REMARK    6  A    between atoms: C_17  and  C_25
REMARK                            x       y       z     vdW  Elec       q    Type
REMARK                         _______ _______ _______ _____ _____    ______ ____
ROOT
ATOM      1  C   UNL     1      -1.041   1.503  -0.002  0.00  0.00    +0.146 C 
ATOM      2  C   UNL     1      -2.513  -0.380  -0.356  0.00  0.00    +0.101 C 
ATOM      3  C   UNL     1      -1.285   0.249  -0.562  0.00  0.00    +0.046 C 
ATOM      4  C   UNL     1      -3.497   0.246   0.410  0.00  0.00    +0.149 C 
ATOM      5  C   UNL     1      -2.025   2.129   0.764  0.00  0.00    +0.039 C 
ATOM      6  C   UNL     1      -3.253   1.500   0.970  0.00  0.00    +0.027 C 
ENDROOT
BRANCH   4   9
ATOM      7  O   UNL     1      -5.611   0.226   1.330  0.00  0.00    -0.126 OA
ATOM      8  O   UNL     1      -4.976  -1.501   0.132  0.00  0.00    -0.126 OA
ATOM      9  N   UNL     1      -4.757  -0.374   0.635  0.00  0.00    +0.058 N 
ENDBRANCH   4   9
BRANCH   2  11
ATOM     10  O   UNL     1      -3.203  -1.890  -2.078  0.00  0.00    -0.245 OA
ATOM     11  C   UNL     1      -2.731  -1.690  -0.956  0.00  0.00    +0.340 C 
BRANCH  11  12
ATOM     12  O   UNL     1      -2.352  -2.705  -0.134  0.00  0.00    -0.477 OA
ATOM     13  H   UNL     1      -1.997  -2.515   0.712  0.00  0.00    +0.295 HD
ENDBRANCH  11  12
ENDBRANCH   2  11
BRANCH   1  14
ATOM     14  O   UNL     1       0.157   2.118  -0.205  0.00  0.00    -0.453 OA
BRANCH  14  16
ATOM     15 CL   UNL     1       1.882   1.927  -2.658  0.00  0.00    -0.079 Cl
ATOM     16  C   UNL     1       1.304   1.355  -0.062  0.00  0.00    +0.156 C 
ATOM     17  C   UNL     1       3.582  -0.179   0.280  0.00  0.00    +0.072 C 
ATOM     18  C   UNL     1       2.177   1.195  -1.124  0.00  0.00    +0.092 C 
ATOM     19  C   UNL     1       1.543   0.765   1.167  0.00  0.00    +0.038 C 
ATOM     20  C   UNL     1       3.325   0.422  -0.952  0.00  0.00    +0.018 C 
ATOM     21  C   UNL     1       2.692  -0.008   1.340  0.00  0.00    +0.007 C 
BRANCH  17  25
ATOM     22  F   UNL     1       4.933  -1.530   1.721  0.00  0.00    -0.166 F 
ATOM     23  F   UNL     1       4.881  -2.078  -0.377  0.00  0.00    -0.166 F 
ATOM     24  F   UNL     1       5.957  -0.296   0.252  0.00  0.00    -0.166 F 
ATOM     25  C   UNL     1       4.810  -1.005   0.466  0.00  0.00    +0.419 C 
ENDBRANCH  17  25
ENDBRANCH  14  16
ENDBRANCH   1  14
TORSDOF 6
