REMARK  Name = 6102684
REMARK  5 active torsions:
REMARK  status: ('A' for Active; 'I' for Inactive)
REMARK    1  A    between atoms: N_1  and  C_3
REMARK    2  A    between atoms: N_1  and  S_14
REMARK    3  A    between atoms: C_4  and  C_11
REMARK    4  A    between atoms: C_11  and  O_12
REMARK    5  A    between atoms: S_14  and  C_17
REMARK                            x       y       z     vdW  Elec       q    Type
REMARK                         _______ _______ _______ _____ _____    ______ ____
ROOT
ATOM      1  N   UNL     1       0.159   1.636  -1.067  0.00  0.00    -0.215 N 
ATOM      2  H   UNL     1       0.110   1.939  -2.002  0.00  0.00    +0.174 HD
ENDROOT
BRANCH   1   3
ATOM      3  C   UNL     1      -0.968   1.013  -0.443  0.00  0.00    +0.071 C 
ATOM      4  C   UNL     1      -1.424  -0.236  -0.866  0.00  0.00    +0.090 C 
ATOM      5  C   UNL     1      -3.169  -0.164   0.803  0.00  0.00    -0.022 C 
ATOM      6  C   UNL     1      -1.613   1.673   0.603  0.00  0.00    +0.016 C 
ATOM      7  C   UNL     1      -2.524  -0.824  -0.243  0.00  0.00    +0.003 C 
ATOM      8  C   UNL     1      -2.714   1.085   1.226  0.00  0.00    -0.003 C 
ATOM      9  C   UNL     1      -4.346  -0.793   1.470  0.00  0.00    +0.031 C 
BRANCH   4  11
ATOM     10  O   UNL     1      -0.187  -0.422  -2.905  0.00  0.00    -0.245 OA
ATOM     11  C   UNL     1      -0.770  -0.950  -1.955  0.00  0.00    +0.339 C 
BRANCH  11  12
ATOM     12  O   UNL     1      -0.865  -2.300  -1.819  0.00  0.00    -0.477 OA
ATOM     13  H   UNL     1      -1.316  -2.666  -1.084  0.00  0.00    +0.295 HD
ENDBRANCH  11  12
ENDBRANCH   4  11
ENDBRANCH   1   3
BRANCH   1  14
ATOM     14  S   UNL     1       1.601   1.846  -0.150  0.00  0.00    +0.074 S 
ATOM     15  O   UNL     1       2.689   2.172  -1.053  0.00  0.00    -0.150 OA
ATOM     16  O   UNL     1       1.341   2.690   1.000  0.00  0.00    -0.150 OA
BRANCH  14  17
ATOM     17  C   UNL     1       1.900   0.204   0.441  0.00  0.00    +0.125 C 
ATOM     18  C   UNL     1       2.673  -0.654  -0.319  0.00  0.00    +0.020 C 
ATOM     19  C   UNL     1       1.354  -0.186   1.650  0.00  0.00    +0.020 C 
ATOM     20  C   UNL     1       2.909  -1.948   0.147  0.00  0.00    +0.001 C 
ATOM     21  C   UNL     1       1.589  -1.480   2.116  0.00  0.00    +0.001 C 
ATOM     22  C   UNL     1       2.367  -2.361   1.364  0.00  0.00    +0.000 C 
ENDBRANCH  14  17
ENDBRANCH   1  14
TORSDOF 5
