REMARK  Name = 448725
REMARK  4 active torsions:
REMARK  status: ('A' for Active; 'I' for Inactive)
REMARK    1  A    between atoms: C_4  and  C_14
REMARK    2  A    between atoms: C_5  and  O_17
REMARK    3  A    between atoms: O_17  and  C_19
REMARK    4  A    between atoms: C_18  and  C_20
REMARK                            x       y       z     vdW  Elec       q    Type
REMARK                         _______ _______ _______ _____ _____    ______ ____
ROOT
ATOM      1  F   UNL     1       2.020   4.037   0.910  0.00  0.00    -0.204 F 
ATOM      2  O   UNL     1       1.428  -3.262  -1.160  0.00  0.00    -0.267 OA
ATOM      3  N   UNL     1       2.183  -1.104  -1.093  0.00  0.00    -0.321 N 
ATOM      4  C   UNL     1       0.253  -1.762   0.263  0.00  0.00    +0.069 A 
ATOM      5  C   UNL     1       0.158  -0.508   0.742  0.00  0.00    +0.160 A 
ATOM      6  C   UNL     1       1.117   0.541   0.340  0.00  0.00    +0.053 A 
ATOM      7  C   UNL     1       2.110   0.205  -0.592  0.00  0.00    +0.062 A 
ATOM      8  C   UNL     1       1.330  -2.118  -0.718  0.00  0.00    +0.257 A 
ATOM      9  C   UNL     1       1.110   1.849   0.847  0.00  0.00    +0.034 C 
ATOM     10  C   UNL     1       3.049   1.145  -1.028  0.00  0.00    +0.019 C 
ATOM     11  C   UNL     1       2.049   2.792   0.415  0.00  0.00    +0.140 C 
ATOM     12  C   UNL     1       3.015   2.442  -0.524  0.00  0.00    +0.031 C 
ATOM     13  H   UNL     1       2.885  -1.309  -1.752  0.00  0.00    +0.169 HD
ENDROOT
BRANCH   4  14
ATOM     14  C   UNL     1      -0.684  -2.877   0.632  0.00  0.00    +0.030 C 
ATOM     15  C   UNL     1      -1.414  -3.382  -0.607  0.00  0.00    +0.005 C 
ATOM     16  C   UNL     1       0.070  -4.008   1.323  0.00  0.00    +0.005 C 
ENDBRANCH   4  14
BRANCH   5  17
ATOM     17  O   UNL     1      -0.858  -0.173   1.618  0.00  0.00    -0.405 OA
BRANCH  17  19
ATOM     18  C   UNL     1      -2.876   0.605   0.323  0.00  0.00    -0.050 C 
ATOM     19  C   UNL     1      -1.914   0.234   0.939  0.00  0.00    +0.118 C 
BRANCH  18  20
ATOM     20  C   UNL     1      -4.029   1.051  -0.416  0.00  0.00    +0.067 C 
ATOM     21  C   UNL     1      -4.302   2.520  -0.503  0.00  0.00    +0.014 C 
ATOM     22  C   UNL     1      -3.817   1.773  -1.710  0.00  0.00    +0.014 C 
ENDBRANCH  18  20
ENDBRANCH  17  19
ENDBRANCH   5  17
TORSDOF 4
