REMARK  Name = 16741227
REMARK  8 active torsions:
REMARK  status: ('A' for Active; 'I' for Inactive)
REMARK    1  A    between atoms: C_3  and  C_22
REMARK    2  A    between atoms: C_10  and  C_14
REMARK    3  A    between atoms: C_11  and  O_20
REMARK    4  A    between atoms: C_22  and  C_25
REMARK    5  A    between atoms: N_24  and  CA_27
REMARK    6  A    between atoms: CA_27  and  C_28
REMARK    7  A    between atoms: CA_27  and  C_30
REMARK    8  A    between atoms: C_30  and  O_31
REMARK                            x       y       z     vdW  Elec       q    Type
REMARK                         _______ _______ _______ _____ _____    ______ ____
ROOT
ATOM      1  O   UNL     1       1.818  -2.488   1.824  0.00  0.00    -0.267 OA
ATOM      2  N   UNL     1       0.938  -0.603   0.932  0.00  0.00    -0.279 N 
ATOM      3  C   UNL     1      -1.129   0.283   0.975  0.00  0.00    +0.001 A 
ATOM      4  C   UNL     1      -0.223   1.314   0.633  0.00  0.00    +0.017 A 
ATOM      5  C   UNL     1      -0.401  -0.866   1.157  0.00  0.00    +0.041 A 
ATOM      6  C   UNL     1       1.062   0.754   0.613  0.00  0.00    +0.066 A 
ATOM      7  C   UNL     1      -0.389   2.684   0.340  0.00  0.00    +0.038 C 
ATOM      8  C   UNL     1       2.184   1.542   0.294  0.00  0.00    +0.021 C 
ATOM      9  C   UNL     1      -0.926  -2.200   1.531  0.00  0.00    +0.050 C 
ATOM     10  C   UNL     1       1.978  -1.550   1.050  0.00  0.00    +0.264 C 
ATOM     11  C   UNL     1       0.727   3.464   0.029  0.00  0.00    +0.139 C 
ATOM     12  C   UNL     1       1.995   2.898   0.006  0.00  0.00    +0.038 C 
ENDROOT
BRANCH  10  14
ATOM     13 CL   UNL     1       7.120  -1.359  -2.009  0.00  0.00    -0.082 Cl
ATOM     14  C   UNL     1       3.246  -1.504   0.296  0.00  0.00    +0.057 C 
ATOM     15  C   UNL     1       3.230  -1.545  -1.098  0.00  0.00    +0.006 C 
ATOM     16  C   UNL     1       4.460  -1.417   0.977  0.00  0.00    +0.006 C 
ATOM     17  C   UNL     1       4.428  -1.501  -1.811  0.00  0.00    +0.012 C 
ATOM     18  C   UNL     1       5.658  -1.373   0.265  0.00  0.00    +0.012 C 
ATOM     19  C   UNL     1       5.642  -1.414  -1.130  0.00  0.00    +0.058 C 
ENDBRANCH  10  14
BRANCH  11  20
ATOM     20  O   UNL     1       0.568   4.787  -0.254  0.00  0.00    -0.471 OA
ATOM     21  C   UNL     1       1.746   5.529  -0.566  0.00  0.00    +0.252 C 
ENDBRANCH  11  20
BRANCH   3  22
ATOM     22  C   UNL     1      -2.594   0.418   1.115  0.00  0.00    +0.112 C 
BRANCH  22  25
ATOM     23  O   UNL     1      -2.881   0.439  -1.291  0.00  0.00    -0.275 OA
ATOM     24  N   UNL     1      -4.586  -0.422   0.031  0.00  0.00    -0.303 N 
ATOM     25  C   UNL     1      -3.346   0.163  -0.188  0.00  0.00    +0.227 C 
ATOM     26  H   UNL     1      -4.864  -0.602   0.958  0.00  0.00    +0.149 HD
BRANCH  24  27
ATOM     27  CA  UNL     1      -5.488  -0.777  -1.041  0.00  0.00    +0.101 C 
BRANCH  27  28
ATOM     28  C   UNL     1      -6.949  -0.669  -0.586  0.00  0.00    +0.022 C 
ATOM     29  C   UNL     1      -7.309   0.724  -0.086  0.00  0.00    +0.002 C 
ENDBRANCH  27  28
BRANCH  27  30
ATOM     30  C   UNL     1      -5.177  -2.191  -1.532  0.00  0.00    +0.157 C 
BRANCH  30  31
ATOM     31  O   UNL     1      -5.400  -3.119  -0.476  0.00  0.00    -0.380 OA
ATOM     32  H   UNL     1      -5.203  -4.016  -0.786  0.00  0.00    +0.211 HD
ENDBRANCH  30  31
ENDBRANCH  27  30
ENDBRANCH  24  27
ENDBRANCH  22  25
ENDBRANCH   3  22
TORSDOF 8
