REMARK  Name = 3542
REMARK  2 active torsions:
REMARK  status: ('A' for Active; 'I' for Inactive)
REMARK    1  A    between atoms: S_1  and  C_5
REMARK    2  A    between atoms: S_1  and  N_14
REMARK                            x       y       z     vdW  Elec       q    Type
REMARK                         _______ _______ _______ _____ _____    ______ ____
ROOT
ATOM      1  S   UNL     1       0.595  -0.960  -0.219  0.00  0.00    +0.063 S 
ATOM      2  O   UNL     1       0.329  -1.772   0.952  0.00  0.00    -0.153 OA
ATOM      3  O   UNL     1       0.587  -1.521  -1.555  0.00  0.00    -0.153 OA
ENDROOT
BRANCH   1   5
ATOM      4  N   UNL     1      -4.755  -0.776   0.420  0.00  0.00    -0.242 NA
ATOM      5  C   UNL     1      -0.733   0.240  -0.251  0.00  0.00    +0.122 C 
ATOM      6  C   UNL     1      -2.050  -0.131  -0.025  0.00  0.00    +0.022 C 
ATOM      7  C   UNL     1      -0.353   1.541  -0.515  0.00  0.00    +0.020 C 
ATOM      8  C   UNL     1      -3.037   0.875  -0.069  0.00  0.00    +0.020 C 
ATOM      9  C   UNL     1      -1.331   2.532  -0.557  0.00  0.00    +0.001 C 
ATOM     10  C   UNL     1      -2.438  -1.449   0.242  0.00  0.00    +0.022 C 
ATOM     11  C   UNL     1      -2.668   2.204  -0.336  0.00  0.00    +0.002 C 
ATOM     12  C   UNL     1      -4.360   0.491   0.160  0.00  0.00    +0.099 C 
ATOM     13  C   UNL     1      -3.783  -1.712   0.454  0.00  0.00    +0.099 C 
ENDBRANCH   1   5
BRANCH   1  14
ATOM     14  N   UNL     1       2.055  -0.108   0.026  0.00  0.00    -0.161 NA
ATOM     15  N   UNL     1       4.700   0.817   0.657  0.00  0.00    +0.386 N 
ATOM     16  C   UNL     1       3.192  -0.399  -0.906  0.00  0.00    +0.058 C 
ATOM     17  C   UNL     1       2.472   0.094   1.442  0.00  0.00    +0.072 C 
ATOM     18  C   UNL     1       4.264   0.687  -0.734  0.00  0.00    -0.064 C 
ATOM     19  C   UNL     1       3.565   1.155   1.517  0.00  0.00    -0.062 C 
ATOM     20  C   UNL     1       3.749  -1.807  -0.701  0.00  0.00    +0.017 C 
ATOM     21  H   UNL     1       5.402   1.554   0.722  0.00  0.00    -0.084 HD
ATOM     22  H   UNL     1       5.096  -0.071   0.965  0.00  0.00    -0.084 HD
ENDBRANCH   1  14
TORSDOF 2
