REMARK  Name = 5327109
REMARK  10 active torsions:
REMARK  status: ('A' for Active; 'I' for Inactive)
REMARK    1  A    between atoms: C_1  and  N_2
REMARK    2  A    between atoms: C_1  and  C_17
REMARK    3  A    between atoms: N_2  and  S_4
REMARK    4  A    between atoms: S_4  and  C_8
REMARK    5  A    between atoms: C_17  and  N_18
REMARK    6  A    between atoms: N_18  and  C_21
REMARK    7  A    between atoms: C_21  and  C_22
REMARK    8  A    between atoms: C_22  and  O_23
REMARK    9  A    between atoms: O_23  and  C_24
REMARK   10  A    between atoms: C_24  and  C_26
REMARK                            x       y       z     vdW  Elec       q    Type
REMARK                         _______ _______ _______ _____ _____    ______ ____
ROOT
ATOM      1  C   UNL     1      -1.663  -0.796  -0.161  0.00  0.00    +0.068 C 
ENDROOT
BRANCH   1   2
ATOM      2  N   UNL     1      -2.608  -1.117  -1.240  0.00  0.00    -0.182 NA
ATOM      3  H   UNL     1      -2.871  -0.233  -1.674  0.00  0.00    +0.149 HD
BRANCH   2   4
ATOM      4  S   UNL     1      -4.059  -1.944  -0.888  0.00  0.00    +0.060 S 
ATOM      5  O   UNL     1      -3.741  -3.174  -0.180  0.00  0.00    -0.153 OA
ATOM      6  O   UNL     1      -4.876  -1.994  -2.090  0.00  0.00    -0.153 OA
BRANCH   4   8
ATOM      7  N   UNL     1      -6.437   2.894  -0.901  0.00  0.00    -0.242 NA
ATOM      8  C   UNL     1      -4.845  -0.846   0.235  0.00  0.00    +0.122 C 
ATOM      9  C   UNL     1      -5.370   0.396  -0.161  0.00  0.00    +0.022 C 
ATOM     10  C   UNL     1      -5.985   1.220   0.804  0.00  0.00    +0.020 C 
ATOM     11  C   UNL     1      -4.931  -1.262   1.565  0.00  0.00    +0.020 C 
ATOM     12  C   UNL     1      -6.066   0.791   2.140  0.00  0.00    +0.002 C 
ATOM     13  C   UNL     1      -5.300   0.841  -1.486  0.00  0.00    +0.022 C 
ATOM     14  C   UNL     1      -5.540  -0.445   2.515  0.00  0.00    +0.001 C 
ATOM     15  C   UNL     1      -6.494   2.446   0.374  0.00  0.00    +0.099 C 
ATOM     16  C   UNL     1      -5.841   2.079  -1.797  0.00  0.00    +0.099 C 
ENDBRANCH   4   8
ENDBRANCH   2   4
ENDBRANCH   1   2
BRANCH   1  17
ATOM     17  C   UNL     1      -0.252  -0.738  -0.728  0.00  0.00    -0.062 C 
BRANCH  17  18
ATOM     18  N   UNL     1       0.704  -0.425   0.327  0.00  0.00    +0.386 N 
ATOM     19  H   UNL     1       0.662  -1.151   1.042  0.00  0.00    -0.084 HD
ATOM     20  H   UNL     1       0.463   0.483   0.726  0.00  0.00    -0.084 HD
BRANCH  18  21
ATOM     21  C   UNL     1       2.058  -0.355  -0.203  0.00  0.00    -0.049 C 
BRANCH  21  22
ATOM     22  C   UNL     1       3.056  -0.071   0.909  0.00  0.00    +0.119 C 
BRANCH  22  23
ATOM     23  O   UNL     1       4.362  -0.029   0.351  0.00  0.00    -0.351 OA
BRANCH  23  24
ATOM     24  C   UNL     1       5.343   0.255   1.339  0.00  0.00    +0.168 C 
BRANCH  24  26
ATOM     25 CL   UNL     1      10.763   0.380  -1.257  0.00  0.00    -0.082 Cl
ATOM     26  C   UNL     1       6.696   0.287   0.692  0.00  0.00    +0.007 C 
ATOM     27  C   UNL     1       7.453  -0.881   0.601  0.00  0.00    -0.001 C 
ATOM     28  C   UNL     1       7.197   1.484   0.179  0.00  0.00    -0.001 C 
ATOM     29  C   UNL     1       8.711  -0.853  -0.002  0.00  0.00    +0.011 C 
ATOM     30  C   UNL     1       8.454   1.512  -0.424  0.00  0.00    +0.011 C 
ATOM     31  C   UNL     1       9.211   0.345  -0.514  0.00  0.00    +0.058 C 
ENDBRANCH  24  26
ENDBRANCH  23  24
ENDBRANCH  22  23
ENDBRANCH  21  22
ENDBRANCH  18  21
ENDBRANCH  17  18
ENDBRANCH   1  17
TORSDOF 10
