REMARK  Name = 79541
REMARK  10 active torsions:
REMARK  status: ('A' for Active; 'I' for Inactive)
REMARK    1  A    between atoms: C_1  and  C_2
REMARK    2  A    between atoms: C_1  and  C_8
REMARK    3  A    between atoms: C_2  and  C_3
REMARK    4  A    between atoms: C_3  and  C_4
REMARK    5  A    between atoms: C_4  and  C_5
REMARK    6  A    between atoms: C_5  and  C_6
REMARK    7  A    between atoms: C_8  and  C_9
REMARK    8  A    between atoms: C_9  and  C_10
REMARK    9  A    between atoms: C_10  and  O_11
REMARK   10  A    between atoms: O_11  and  C_13
REMARK                            x       y       z     vdW  Elec       q    Type
REMARK                         _______ _______ _______ _____ _____    ______ ____
ROOT
ATOM      1  C   UNL     1      -0.107   0.543   0.054  0.00  0.00    +0.000 C 
ENDROOT
BRANCH   1   2
ATOM      2  C   UNL     1       1.123  -0.366   0.093  0.00  0.00    +0.000 C 
BRANCH   2   3
ATOM      3  C   UNL     1       2.448   0.402   0.105  0.00  0.00    +0.000 C 
BRANCH   3   4
ATOM      4  C   UNL     1       3.679  -0.506   0.069  0.00  0.00    +0.000 C 
BRANCH   4   5
ATOM      5  C   UNL     1       4.970   0.313   0.009  0.00  0.00    +0.000 C 
BRANCH   5   6
ATOM      6  C   UNL     1       6.200  -0.591  -0.066  0.00  0.00    +0.000 C 
ATOM      7  C   UNL     1       7.483   0.220  -0.160  0.00  0.00    +0.000 C 
ENDBRANCH   5   6
ENDBRANCH   4   5
ENDBRANCH   3   4
ENDBRANCH   2   3
ENDBRANCH   1   2
BRANCH   1   8
ATOM      8  C   UNL     1      -1.401  -0.276   0.075  0.00  0.00    +0.004 C 
BRANCH   8   9
ATOM      9  C   UNL     1      -2.633   0.631   0.006  0.00  0.00    +0.047 C 
BRANCH   9  10
ATOM     10  C   UNL     1      -3.933  -0.163  -0.008  0.00  0.00    +0.209 C 
BRANCH  10  11
ATOM     11  O   UNL     1      -5.042   0.723  -0.054  0.00  0.00    -0.441 OA
BRANCH  11  13
ATOM     12  O   UNL     1      -6.516  -1.063  -0.051  0.00  0.00    -0.238 OA
ATOM     13  C   UNL     1      -6.270   0.133  -0.070  0.00  0.00    +0.418 C 
ENDBRANCH  11  13
ENDBRANCH  10  11
ENDBRANCH   9  10
ENDBRANCH   8   9
ENDBRANCH   1   8
TORSDOF 10
