REMARK  Name = 16058637
REMARK  4 active torsions:
REMARK  status: ('A' for Active; 'I' for Inactive)
REMARK    1  A    between atoms: N_1  and  C_11
REMARK    2  A    between atoms: N_2  and  C_22
REMARK    3  A    between atoms: C_12  and  C_19
REMARK    4  A    between atoms: C_25  and  O_28
REMARK                            x       y       z     vdW  Elec       q    Type
REMARK                         _______ _______ _______ _____ _____    ______ ____
ROOT
ATOM      1  N   UNL     1      -1.836   1.294  -0.279  0.00  0.00    -0.287 N 
ATOM      2  N   UNL     1       2.861   1.483   0.223  0.00  0.00    -0.247 N 
ATOM      3  N   UNL     1       0.530   1.367  -0.024  0.00  0.00    -0.322 NA
ATOM      4  N   UNL     1       1.675   3.488  -0.055  0.00  0.00    -0.170 NA
ATOM      5  C   UNL     1      -0.672   2.007  -0.203  0.00  0.00    +0.198 C 
ATOM      6  C   UNL     1       1.628   2.146   0.039  0.00  0.00    +0.150 C 
ATOM      7  C   UNL     1      -0.718   3.406  -0.312  0.00  0.00    +0.070 C 
ATOM      8  C   UNL     1       0.479   4.088  -0.231  0.00  0.00    +0.116 C 
ATOM      9  H   UNL     1      -2.650   1.800  -0.053  0.00  0.00    +0.155 HD
ATOM     10  H   UNL     1       3.641   2.064   0.374  0.00  0.00    +0.165 HD
ENDROOT
BRANCH   1  11
ATOM     11  C   UNL     1      -2.051  -0.057  -0.630  0.00  0.00    +0.054 C 
ATOM     12  C   UNL     1      -3.033  -0.816   0.006  0.00  0.00    +0.067 C 
ATOM     13  C   UNL     1      -1.265  -0.631  -1.630  0.00  0.00    +0.015 C 
ATOM     14  C   UNL     1      -3.229  -2.148  -0.356  0.00  0.00    +0.006 C 
ATOM     15  C   UNL     1      -1.461  -1.963  -1.993  0.00  0.00    +0.001 C 
ATOM     16  C   UNL     1      -2.443  -2.722  -1.356  0.00  0.00    +0.000 C 
BRANCH  12  19
ATOM     17  O   UNL     1      -4.956   0.295   0.790  0.00  0.00    -0.270 OA
ATOM     18  N   UNL     1      -3.418  -0.345   2.366  0.00  0.00    -0.325 N 
ATOM     19  C   UNL     1      -3.870  -0.246   1.055  0.00  0.00    +0.244 C 
ATOM     20  H   UNL     1      -3.956   0.027   3.101  0.00  0.00    +0.145 HD
ATOM     21  H   UNL     1      -2.561  -0.789   2.558  0.00  0.00    +0.145 HD
ENDBRANCH  12  19
ENDBRANCH   1  11
BRANCH   2  22
ATOM     22  C   UNL     1       3.114   0.120   0.219  0.00  0.00    +0.061 C 
ATOM     23  C   UNL     1       2.190  -0.787   0.769  0.00  0.00    +0.052 C 
ATOM     24  C   UNL     1       4.302  -0.391  -0.336  0.00  0.00    +0.015 C 
ATOM     25  C   UNL     1       2.446  -2.159   0.765  0.00  0.00    +0.135 C 
ATOM     26  C   UNL     1       4.557  -1.763  -0.340  0.00  0.00    +0.004 C 
ATOM     27  C   UNL     1       3.629  -2.646   0.210  0.00  0.00    +0.037 C 
BRANCH  25  28
ATOM     28  O   UNL     1       1.541  -3.021   1.304  0.00  0.00    -0.505 OA
ATOM     29  H   UNL     1       0.746  -2.694   1.677  0.00  0.00    +0.292 HD
ENDBRANCH  25  28
ENDBRANCH   2  22
TORSDOF 4
