REMARK  Name = 17758920
REMARK  10 active torsions:
REMARK  status: ('A' for Active; 'I' for Inactive)
REMARK    1  A    between atoms: C_3  and  C_7
REMARK    2  A    between atoms: C_5  and  O_26
REMARK    3  A    between atoms: C_6  and  C_23
REMARK    4  A    between atoms: C_8  and  N_13
REMARK    5  A    between atoms: N_13  and  C_15
REMARK    6  A    between atoms: C_15  and  C_16
REMARK    7  A    between atoms: C_23  and  O_24
REMARK    8  A    between atoms: O_26  and  C_27
REMARK    9  A    between atoms: C_27  and  C_29
REMARK   10  A    between atoms: C_29  and  O_30
REMARK                            x       y       z     vdW  Elec       q    Type
REMARK                         _______ _______ _______ _____ _____    ______ ____
ROOT
ATOM      1 BR   UNL     1      -1.763  -0.206   2.459  0.00  0.00    -0.045 Br
ATOM      2  S   UNL     1      -1.679   1.045  -1.775  0.00  0.00    -0.077 S 
ATOM      3  C   UNL     1      -1.135   0.922  -0.156  0.00  0.00    +0.039 A 
ATOM      4  C   UNL     1      -1.991   0.174   0.622  0.00  0.00    +0.075 A 
ATOM      5  C   UNL     1      -3.109  -0.304  -0.121  0.00  0.00    +0.158 A 
ATOM      6  C   UNL     1      -3.065   0.096  -1.438  0.00  0.00    +0.139 A 
ENDROOT
BRANCH   3   7
ATOM      7  C   UNL     1       0.099   1.581   0.197  0.00  0.00    +0.008 C 
ATOM      8  C   UNL     1       2.504   1.540   0.423  0.00  0.00    +0.045 C 
ATOM      9  C   UNL     1       1.311   0.901   0.083  0.00  0.00    +0.015 C 
ATOM     10  C   UNL     1       0.079   2.900   0.650  0.00  0.00    +0.001 C 
ATOM     11  C   UNL     1       2.484   2.858   0.876  0.00  0.00    +0.014 C 
ATOM     12  C   UNL     1       1.272   3.539   0.990  0.00  0.00    +0.001 C 
BRANCH   8  13
ATOM     13  N   UNL     1       3.730   0.852   0.308  0.00  0.00    -0.329 N 
ATOM     14  H   UNL     1       4.558   1.323   0.553  0.00  0.00    +0.147 HD
BRANCH  13  15
ATOM     15  C   UNL     1       3.822  -0.500  -0.150  0.00  0.00    +0.114 C 
BRANCH  15  16
ATOM     16  C   UNL     1       5.251  -0.967  -0.130  0.00  0.00    -0.003 C 
ATOM     17  C   UNL     1       6.059  -0.790  -1.254  0.00  0.00    -0.003 C 
ATOM     18  C   UNL     1       5.770  -1.577   1.012  0.00  0.00    -0.003 C 
ATOM     19  C   UNL     1       7.384  -1.223  -1.235  0.00  0.00    -0.000 C 
ATOM     20  C   UNL     1       7.096  -2.010   1.031  0.00  0.00    -0.000 C 
ATOM     21  C   UNL     1       7.903  -1.833  -0.093  0.00  0.00    -0.000 C 
ENDBRANCH  15  16
ENDBRANCH  13  15
ENDBRANCH   8  13
ENDBRANCH   3   7
BRANCH   6  23
ATOM     22  O   UNL     1      -3.911   0.209  -3.677  0.00  0.00    -0.244 OA
ATOM     23  C   UNL     1      -3.987  -0.172  -2.495  0.00  0.00    +0.347 C 
BRANCH  23  24
ATOM     24  O   UNL     1      -5.051  -0.941  -2.095  0.00  0.00    -0.477 OA
ATOM     25  H   UNL     1      -5.112  -1.231  -1.206  0.00  0.00    +0.295 HD
ENDBRANCH  23  24
ENDBRANCH   6  23
BRANCH   5  26
ATOM     26  O   UNL     1      -4.112  -1.061   0.364  0.00  0.00    -0.463 OA
BRANCH  26  27
ATOM     27  C   UNL     1      -5.245  -0.371   0.898  0.00  0.00    +0.314 C 
BRANCH  27  29
ATOM     28  O   UNL     1      -6.146  -2.581   1.355  0.00  0.00    -0.246 OA
ATOM     29  C   UNL     1      -6.252  -1.365   1.407  0.00  0.00    +0.359 C 
BRANCH  29  30
ATOM     30  O   UNL     1      -7.318  -0.718   1.943  0.00  0.00    -0.478 OA
ATOM     31  H   UNL     1      -7.341   0.218   1.953  0.00  0.00    +0.295 HD
ENDBRANCH  29  30
ENDBRANCH  27  29
ENDBRANCH  26  27
ENDBRANCH   5  26
TORSDOF 10
