REMARK  Name = 4369384
REMARK  6 active torsions:
REMARK  status: ('A' for Active; 'I' for Inactive)
REMARK    1  A    between atoms: N_1  and  S_3
REMARK    2  A    between atoms: N_1  and  C_14
REMARK    3  A    between atoms: S_3  and  C_7
REMARK    4  A    between atoms: C_14  and  C_16
REMARK    5  A    between atoms: C_14  and  C_23
REMARK    6  A    between atoms: N_22  and  O_25
REMARK                            x       y       z     vdW  Elec       q    Type
REMARK                         _______ _______ _______ _____ _____    ______ ____
ROOT
ATOM      1  N   UNL     1      -0.761  -0.982   1.407  0.00  0.00    -0.172 NA
ATOM      2  H   UNL     1      -0.579  -0.175   2.005  0.00  0.00    +0.149 HD
ENDROOT
BRANCH   1   3
ATOM      3  S   UNL     1       0.674  -1.894   1.362  0.00  0.00    +0.061 S 
ATOM      4  O   UNL     1       0.510  -3.001   0.440  0.00  0.00    -0.153 OA
ATOM      5  O   UNL     1       1.124  -2.135   2.720  0.00  0.00    -0.153 OA
BRANCH   3   7
ATOM      6  F   UNL     1       4.450   1.921  -1.030  0.00  0.00    -0.205 F 
ATOM      7  C   UNL     1       1.809  -0.747   0.640  0.00  0.00    +0.122 C 
ATOM      8  C   UNL     1       1.951  -0.713  -0.737  0.00  0.00    +0.018 C 
ATOM      9  C   UNL     1       2.534   0.096   1.464  0.00  0.00    +0.022 C 
ATOM     10  C   UNL     1       2.847   0.192  -1.306  0.00  0.00    +0.007 C 
ATOM     11  C   UNL     1       3.430   1.000   0.894  0.00  0.00    +0.031 C 
ATOM     12  C   UNL     1       3.587   1.048  -0.491  0.00  0.00    +0.136 C 
ATOM     13  C   UNL     1       3.013   0.240  -2.788  0.00  0.00    +0.033 C 
ENDBRANCH   3   7
ENDBRANCH   1   3
BRANCH   1  14
ATOM     14  C   UNL     1      -1.346  -0.461   0.157  0.00  0.00    +0.153 C 
BRANCH  14  16
ATOM     15  O   UNL     1      -2.422   3.664  -0.029  0.00  0.00    -0.354 OA
ATOM     16  C   UNL     1      -2.091   0.839   0.449  0.00  0.00    +0.030 C 
ATOM     17  C   UNL     1      -2.758   1.391  -0.816  0.00  0.00    +0.034 C 
ATOM     18  C   UNL     1      -1.150   1.894   1.043  0.00  0.00    +0.034 C 
ATOM     19  C   UNL     1      -3.390   2.750  -0.541  0.00  0.00    +0.142 C 
ATOM     20  C   UNL     1      -1.872   3.225   1.213  0.00  0.00    +0.142 C 
ENDBRANCH  14  16
BRANCH  14  23
ATOM     21  O   UNL     1      -3.278  -1.909   0.204  0.00  0.00    -0.272 OA
ATOM     22  N   UNL     1      -1.885  -1.960  -1.635  0.00  0.00    -0.196 N 
ATOM     23  C   UNL     1      -2.284  -1.510  -0.399  0.00  0.00    +0.260 C 
ATOM     24  H   UNL     1      -1.080  -1.612  -2.083  0.00  0.00    +0.182 HD
BRANCH  22  25
ATOM     25  O   UNL     1      -2.693  -2.945  -2.219  0.00  0.00    -0.295 OA
ATOM     26  H   UNL     1      -2.328  -3.193  -3.083  0.00  0.00    +0.241 HD
ENDBRANCH  22  25
ENDBRANCH  14  23
ENDBRANCH   1  14
TORSDOF 6
