REMARK  Name = 2776332
REMARK  3 active torsions:
REMARK  status: ('A' for Active; 'I' for Inactive)
REMARK    1  A    between atoms: C_1  and  C_8
REMARK    2  A    between atoms: C_2  and  C_12
REMARK    3  A    between atoms: C_12  and  N_13
REMARK                            x       y       z     vdW  Elec       q    Type
REMARK                         _______ _______ _______ _____ _____    ______ ____
ROOT
ATOM      1  C   UNL     1      -0.308   0.000  -0.128  0.00  0.00    +0.006 C 
ATOM      2  C   UNL     1       2.478   0.001  -0.271  0.00  0.00    -0.044 C 
ATOM      3  C   UNL     1       0.388   1.209  -0.160  0.00  0.00    +0.000 C 
ATOM      4  C   UNL     1       0.388  -1.207  -0.168  0.00  0.00    +0.000 C 
ATOM      5  C   UNL     1       1.781   1.209  -0.232  0.00  0.00    -0.006 C 
ATOM      6  C   UNL     1       1.781  -1.207  -0.240  0.00  0.00    -0.006 C 
ENDROOT
BRANCH   1   8
ATOM      7  S   UNL     1      -2.500  -0.005   1.485  0.00  0.00    -0.086 S 
ATOM      8  C   UNL     1      -1.749   0.000  -0.054  0.00  0.00    +0.029 C 
ATOM      9  C   UNL     1      -2.672   0.004  -1.078  0.00  0.00    +0.007 C 
ATOM     10  C   UNL     1      -4.011   0.002  -0.592  0.00  0.00    +0.007 C 
ATOM     11  C   UNL     1      -4.063  -0.003   0.784  0.00  0.00    +0.035 C 
ENDBRANCH   1   8
BRANCH   2  12
ATOM     12  C   UNL     1       3.967   0.001  -0.349  0.00  0.00    -0.059 C 
BRANCH  12  13
ATOM     13  N   UNL     1       4.522  -0.004   1.002  0.00  0.00    +0.383 N 
ATOM     14  H   UNL     1       5.540  -0.004   0.951  0.00  0.00    -0.089 HD
ATOM     15  H   UNL     1       4.206  -0.838   1.497  0.00  0.00    -0.089 HD
ATOM     16  H   UNL     1       4.206   0.828   1.502  0.00  0.00    -0.089 HD
ENDBRANCH  12  13
ENDBRANCH   2  12
TORSDOF 3
