REMARK  Name = 24178119
REMARK  2 active torsions:
REMARK  status: ('A' for Active; 'I' for Inactive)
REMARK    1  A    between atoms: N_2  and  C_16
REMARK    2  A    between atoms: C_4  and  O_22
REMARK                            x       y       z     vdW  Elec       q    Type
REMARK                         _______ _______ _______ _____ _____    ______ ____
ROOT
ATOM      1  O   UNL     1      -2.646   2.167  -0.752  0.00  0.00    -0.292 OA
ATOM      2  N   UNL     1       1.669   0.815  -0.045  0.00  0.00    -0.264 N 
ATOM      3  N   UNL     1      -0.080  -0.878   0.114  0.00  0.00    -0.392 NA
ATOM      4  C   UNL     1      -0.566   1.526   0.248  0.00  0.00    +0.201 C 
ATOM      5  C   UNL     1       0.227   2.624  -0.451  0.00  0.00    +0.064 C 
ATOM      6  C   UNL     1       1.687   2.280  -0.129  0.00  0.00    +0.101 C 
ATOM      7  C   UNL     1       0.369   0.336   0.095  0.00  0.00    +0.194 C 
ATOM      8  C   UNL     1      -1.955   1.280  -0.270  0.00  0.00    +0.192 C 
ATOM      9  C   UNL     1      -2.427  -0.108  -0.101  0.00  0.00    +0.131 C 
ATOM     10  C   UNL     1      -1.470  -1.109   0.139  0.00  0.00    +0.121 C 
ATOM     11  C   UNL     1      -3.792  -0.401  -0.150  0.00  0.00    -0.031 C 
ATOM     12  C   UNL     1      -1.921  -2.419   0.337  0.00  0.00    +0.028 C 
ATOM     13  C   UNL     1      -4.218  -1.712   0.052  0.00  0.00    -0.008 C 
ATOM     14  C   UNL     1      -3.285  -2.719   0.299  0.00  0.00    +0.002 C 
ATOM     15  C   UNL     1      -4.848   0.629  -0.384  0.00  0.00    +0.027 C 
ENDROOT
BRANCH   2  16
ATOM     16  C   UNL     1       2.823   0.072  -0.075  0.00  0.00    +0.053 C 
ATOM     17  C   UNL     1       2.803  -1.230  -0.577  0.00  0.00    +0.015 C 
ATOM     18  C   UNL     1       4.017   0.619   0.396  0.00  0.00    +0.015 C 
ATOM     19  C   UNL     1       3.975  -1.984  -0.607  0.00  0.00    +0.001 C 
ATOM     20  C   UNL     1       5.190  -0.136   0.365  0.00  0.00    +0.001 C 
ATOM     21  C   UNL     1       5.169  -1.437  -0.136  0.00  0.00    +0.000 C 
ENDBRANCH   2  16
BRANCH   4  22
ATOM     22  O   UNL     1      -0.721   1.787   1.633  0.00  0.00    -0.373 OA
ATOM     23  H   UNL     1       0.149   1.956   2.029  0.00  0.00    +0.211 HD
ENDBRANCH   4  22
TORSDOF 2
