REMARK  Name = 9549264
REMARK  13 active torsions:
REMARK  status: ('A' for Active; 'I' for Inactive)
REMARK    1  A    between atoms: C_2  and  O_7
REMARK    2  A    between atoms: C_3  and  O_9
REMARK    3  A    between atoms: C_4  and  O_11
REMARK    4  A    between atoms: C_5  and  C_22
REMARK    5  A    between atoms: C_6  and  O_13
REMARK    6  A    between atoms: O_13  and  C_14
REMARK    7  A    between atoms: C_14  and  C_15
REMARK    8  A    between atoms: C_15  and  C_16
REMARK    9  A    between atoms: C_16  and  C_17
REMARK   10  A    between atoms: C_17  and  C_18
REMARK   11  A    between atoms: C_18  and  C_19
REMARK   12  A    between atoms: C_19  and  C_20
REMARK   13  A    between atoms: C_22  and  O_23
REMARK                            x       y       z     vdW  Elec       q    Type
REMARK                         _______ _______ _______ _____ _____    ______ ____
ROOT
ATOM      1  O   UNL     1       2.257   0.841  -0.184  0.00  0.00    -0.326 OA
ATOM      2  C   UNL     1       4.292  -1.092   0.404  0.00  0.00    +0.172 C 
ATOM      3  C   UNL     1       4.627   0.318  -0.083  0.00  0.00    +0.169 C 
ATOM      4  C   UNL     1       2.891  -1.509  -0.042  0.00  0.00    +0.196 C 
ATOM      5  C   UNL     1       3.516   1.288   0.335  0.00  0.00    +0.176 C 
ATOM      6  C   UNL     1       1.864  -0.434   0.322  0.00  0.00    +0.266 C 
ENDROOT
BRANCH   2   7
ATOM      7  O   UNL     1       5.242  -2.025  -0.104  0.00  0.00    -0.379 OA
ATOM      8  H   UNL     1       6.133  -1.764   0.176  0.00  0.00    +0.211 HD
ENDBRANCH   2   7
BRANCH   3   9
ATOM      9  O   UNL     1       4.734   0.320  -1.508  0.00  0.00    -0.379 OA
ATOM     10  H   UNL     1       5.436  -0.292  -1.781  0.00  0.00    +0.211 HD
ENDBRANCH   3   9
BRANCH   4  11
ATOM     11  O   UNL     1       2.529  -2.722   0.617  0.00  0.00    -0.378 OA
ATOM     12  H   UNL     1       3.172  -3.415   0.395  0.00  0.00    +0.211 HD
ENDBRANCH   4  11
BRANCH   6  13
ATOM     13  O   UNL     1       0.612  -0.813  -0.247  0.00  0.00    -0.329 OA
BRANCH  13  14
ATOM     14  C   UNL     1      -0.473  -0.155   0.392  0.00  0.00    +0.145 C 
BRANCH  14  15
ATOM     15  C   UNL     1      -1.775  -0.618  -0.247  0.00  0.00    +0.032 C 
BRANCH  15  16
ATOM     16  C   UNL     1      -2.987   0.065   0.385  0.00  0.00    +0.003 C 
BRANCH  16  17
ATOM     17  C   UNL     1      -4.292  -0.438  -0.237  0.00  0.00    +0.000 C 
BRANCH  17  18
ATOM     18  C   UNL     1      -5.541   0.232   0.345  0.00  0.00    +0.000 C 
BRANCH  18  19
ATOM     19  C   UNL     1      -6.841  -0.216  -0.327  0.00  0.00    +0.000 C 
BRANCH  19  20
ATOM     20  C   UNL     1      -8.045   0.535   0.242  0.00  0.00    +0.000 C 
ATOM     21  C   UNL     1      -9.336   0.123  -0.448  0.00  0.00    +0.000 C 
ENDBRANCH  19  20
ENDBRANCH  18  19
ENDBRANCH  17  18
ENDBRANCH  16  17
ENDBRANCH  15  16
ENDBRANCH  14  15
ENDBRANCH  13  14
ENDBRANCH   6  13
BRANCH   5  22
ATOM     22  C   UNL     1       3.750   2.699  -0.191  0.00  0.00    +0.169 C 
BRANCH  22  23
ATOM     23  O   UNL     1       2.977   3.603   0.579  0.00  0.00    -0.379 OA
ATOM     24  H   UNL     1       3.117   4.506   0.254  0.00  0.00    +0.211 HD
ENDBRANCH  22  23
ENDBRANCH   5  22
TORSDOF 13
