REMARK  Name = 16214776
REMARK  6 active torsions:
REMARK  status: ('A' for Active; 'I' for Inactive)
REMARK    1  A    between atoms: C_1  and  C_2
REMARK    2  A    between atoms: C_1  and  C_10
REMARK    3  A    between atoms: C_1  and  N_18
REMARK    4  A    between atoms: N_9  and  C_13
REMARK    5  A    between atoms: N_18  and  S_20
REMARK    6  A    between atoms: S_20  and  C_26
REMARK                            x       y       z     vdW  Elec       q    Type
REMARK                         _______ _______ _______ _____ _____    ______ ____
ROOT
ATOM      1  C   UNL     1      -1.691   0.144   0.051  0.00  0.00    +0.173 C 
ENDROOT
BRANCH   1   2
ATOM      2  C   UNL     1      -3.119  -0.349   0.110  0.00  0.00    +0.002 C 
ATOM      3  C   UNL     1      -3.947  -0.158  -0.983  0.00  0.00    -0.002 C 
ATOM      4  C   UNL     1      -3.570  -0.983   1.256  0.00  0.00    -0.002 C 
ATOM      5  C   UNL     1      -5.265  -0.613  -0.929  0.00  0.00    -0.000 C 
ATOM      6  C   UNL     1      -4.888  -1.438   1.310  0.00  0.00    -0.000 C 
ATOM      7  C   UNL     1      -5.735  -1.253   0.217  0.00  0.00    -0.000 C 
ENDBRANCH   1   2
BRANCH   1  10
ATOM      8  O   UNL     1      -0.942  -1.426  -1.611  0.00  0.00    -0.273 OA
ATOM      9  N   UNL     1       0.238  -1.254   0.410  0.00  0.00    -0.282 N 
ATOM     10  C   UNL     1      -0.764  -0.931  -0.501  0.00  0.00    +0.246 C 
ATOM     11  H   UNL     1       0.223  -0.766   1.264  0.00  0.00    +0.155 HD
BRANCH   9  13
ATOM     12  N   UNL     1       3.314  -4.060  -0.065  0.00  0.00    -0.242 NA
ATOM     13  C   UNL     1       1.277  -2.202   0.249  0.00  0.00    +0.053 C 
ATOM     14  C   UNL     1       2.180  -2.397   1.275  0.00  0.00    +0.035 C 
ATOM     15  C   UNL     1       1.368  -2.914  -0.929  0.00  0.00    +0.035 C 
ATOM     16  C   UNL     1       3.178  -3.336   1.069  0.00  0.00    +0.100 C 
ATOM     17  C   UNL     1       2.403  -3.829  -1.037  0.00  0.00    +0.100 C 
ENDBRANCH   9  13
ENDBRANCH   1  10
BRANCH   1  18
ATOM     18  N   UNL     1      -1.523   1.326  -0.806  0.00  0.00    -0.171 NA
ATOM     19  H   UNL     1      -0.892   1.056  -1.560  0.00  0.00    +0.149 HD
BRANCH  18  20
ATOM     20  S   UNL     1      -0.908   2.777  -0.143  0.00  0.00    +0.049 S 
ATOM     21  O   UNL     1      -1.736   3.155   0.996  0.00  0.00    -0.157 OA
ATOM     22  O   UNL     1      -0.706   3.732  -1.225  0.00  0.00    -0.157 OA
BRANCH  20  26
ATOM     23  S   UNL     1       3.266   1.486  -2.222  0.00  0.00    +0.116 S 
ATOM     24  N   UNL     1       1.747   1.956  -1.743  0.00  0.00    -0.193 NA
ATOM     25  N   UNL     1       4.000   1.257  -0.750  0.00  0.00    -0.194 NA
ATOM     26  C   UNL     1       0.663   2.290   0.439  0.00  0.00    +0.209 C 
ATOM     27  C   UNL     1       1.752   1.954  -0.400  0.00  0.00    +0.110 A 
ATOM     28  C   UNL     1       0.907   2.213   1.821  0.00  0.00    +0.000 C 
ATOM     29  C   UNL     1       3.080   1.542   0.185  0.00  0.00    +0.089 A 
ATOM     30  C   UNL     1       2.152   1.827   2.370  0.00  0.00    -0.022 C 
ATOM     31  C   UNL     1       3.267   1.482   1.587  0.00  0.00    +0.073 C 
ENDBRANCH  20  26
ENDBRANCH  18  20
ENDBRANCH   1  18
TORSDOF 6
