REMARK  Name = 4369498
REMARK  8 active torsions:
REMARK  status: ('A' for Active; 'I' for Inactive)
REMARK    1  A    between atoms: N_2  and  C_11
REMARK    2  A    between atoms: C_5  and  C_25
REMARK    3  A    between atoms: C_8  and  S_14
REMARK    4  A    between atoms: C_13  and  O_23
REMARK    5  A    between atoms: S_14  and  N_17
REMARK    6  A    between atoms: N_17  and  C_19
REMARK    7  A    between atoms: C_19  and  C_20
REMARK    8  A    between atoms: C_26  and  C_32
REMARK                            x       y       z     vdW  Elec       q    Type
REMARK                         _______ _______ _______ _____ _____    ______ ____
ROOT
ATOM      1  O   UNL     1      -1.532  -0.267   0.371  0.00  0.00    -0.424 OA
ATOM      2  N   UNL     1       0.527   0.737   0.547  0.00  0.00    -0.265 N 
ATOM      3  N   UNL     1       0.193  -1.612   0.946  0.00  0.00    -0.193 NA
ATOM      4  C   UNL     1      -0.203  -0.398   0.637  0.00  0.00    +0.293 C 
ATOM      5  C   UNL     1      -2.015  -1.531   0.531  0.00  0.00    +0.168 C 
ATOM      6  C   UNL     1      -0.965  -2.343   0.880  0.00  0.00    +0.141 C 
ATOM      7  H   UNL     1       0.015   1.540   0.297  0.00  0.00    +0.157 HD
ENDROOT
BRANCH   2  11
ATOM      8  C   UNL     1       4.171   0.086   0.832  0.00  0.00    +0.123 C 
ATOM      9  C   UNL     1       2.805  -0.113   0.626  0.00  0.00    +0.038 C 
ATOM     10  C   UNL     1       4.648   1.353   1.168  0.00  0.00    +0.023 C 
ATOM     11  C   UNL     1       1.918   0.955   0.757  0.00  0.00    +0.087 C 
ATOM     12  C   UNL     1       3.760   2.421   1.299  0.00  0.00    +0.040 C 
ATOM     13  C   UNL     1       2.395   2.222   1.093  0.00  0.00    +0.152 C 
BRANCH   8  14
ATOM     14  S   UNL     1       5.283  -1.251   0.672  0.00  0.00    +0.060 S 
ATOM     15  O   UNL     1       6.468  -0.974   1.474  0.00  0.00    -0.153 OA
ATOM     16  O   UNL     1       4.536  -2.480   0.903  0.00  0.00    -0.153 OA
BRANCH  14  17
ATOM     17  N   UNL     1       5.712  -1.177  -0.981  0.00  0.00    -0.179 NA
ATOM     18  H   UNL     1       4.854  -1.314  -1.515  0.00  0.00    +0.149 HD
BRANCH  17  19
ATOM     19  C   UNL     1       6.357   0.031  -1.516  0.00  0.00    +0.091 C 
BRANCH  19  20
ATOM     20  C   UNL     1       7.284  -0.315  -2.633  0.00  0.00    +0.017 C 
ATOM     21  C   UNL     1       8.499   0.535  -2.868  0.00  0.00    +0.001 C 
ATOM     22  C   UNL     1       8.649  -0.851  -2.314  0.00  0.00    +0.001 C 
ENDBRANCH  19  20
ENDBRANCH  17  19
ENDBRANCH  14  17
ENDBRANCH   8  14
BRANCH  13  23
ATOM     23  O   UNL     1       1.544   3.278   1.227  0.00  0.00    -0.470 OA
ATOM     24  C   UNL     1       2.122   4.535   1.573  0.00  0.00    +0.253 C 
ENDBRANCH  13  23
ENDBRANCH   2  11
BRANCH   5  25
ATOM     25  C   UNL     1      -3.429  -1.709   0.311  0.00  0.00    +0.036 C 
ATOM     26  C   UNL     1      -5.591  -0.793  -0.259  0.00  0.00    +0.002 C 
ATOM     27  C   UNL     1      -4.224  -0.620  -0.046  0.00  0.00    +0.003 C 
ATOM     28  C   UNL     1      -4.003  -2.973   0.454  0.00  0.00    +0.003 C 
ATOM     29  C   UNL     1      -6.164  -2.057  -0.115  0.00  0.00    +0.000 C 
ATOM     30  C   UNL     1      -5.370  -3.147   0.241  0.00  0.00    +0.000 C 
BRANCH  26  32
ATOM     31  N   UNL     1      -8.576   1.421  -0.578  0.00  0.00    -0.242 NA
ATOM     32  C   UNL     1      -6.415   0.337  -0.628  0.00  0.00    +0.019 C 
ATOM     33  C   UNL     1      -5.892   1.399  -1.357  0.00  0.00    +0.003 C 
ATOM     34  C   UNL     1      -7.752   0.396  -0.266  0.00  0.00    +0.099 C 
ATOM     35  C   UNL     1      -6.709   2.471  -1.697  0.00  0.00    +0.021 C 
ATOM     36  C   UNL     1      -8.032   2.434  -1.287  0.00  0.00    +0.099 C 
ENDBRANCH  26  32
ENDBRANCH   5  25
TORSDOF 8
