REMARK  Name = 448514
REMARK  7 active torsions:
REMARK  status: ('A' for Active; 'I' for Inactive)
REMARK    1  A    between atoms: N_1  and  C_3
REMARK    2  A    between atoms: N_1  and  C_7
REMARK    3  A    between atoms: C_3  and  C_18
REMARK    4  A    between atoms: N_6  and  C_8
REMARK    5  A    between atoms: C_7  and  S_16
REMARK    6  A    between atoms: C_11  and  C_15
REMARK    7  A    between atoms: C_18  and  C_21
REMARK                            x       y       z     vdW  Elec       q    Type
REMARK                         _______ _______ _______ _____ _____    ______ ____
ROOT
ATOM      1  N   UNL     1      -0.771  -0.530  -0.950  0.00  0.00    -0.176 NA
ENDROOT
BRANCH   1   3
ATOM      2  N   UNL     1      -1.102   1.841  -0.690  0.00  0.00    -0.388 N 
ATOM      3  C   UNL     1      -1.488   0.556  -0.996  0.00  0.00    +0.106 C 
ATOM      4  H   UNL     1      -0.186   2.018  -0.375  0.00  0.00    +0.157 HD
ATOM      5  H   UNL     1      -1.741   2.584  -0.787  0.00  0.00    +0.157 HD
BRANCH   3   6
ATOM      6  C   UNL     1      -2.922   0.388  -1.475  0.00  0.00    +0.088 C 
BRANCH   6   9
ATOM      7 CL   UNL     1      -4.201   2.760  -0.040  0.00  0.00    -0.083 Cl
ATOM      8 CL   UNL     1      -3.323  -2.566  -0.815  0.00  0.00    -0.083 Cl
ATOM      9  C   UNL     1      -3.844   0.069  -0.326  0.00  0.00    +0.006 C 
ATOM     10  C   UNL     1      -4.461   1.102   0.370  0.00  0.00    +0.055 C 
ATOM     11  C   UNL     1      -4.071  -1.257   0.028  0.00  0.00    +0.055 C 
ATOM     12  C   UNL     1      -5.315   0.807   1.433  0.00  0.00    +0.011 C 
ATOM     13  C   UNL     1      -4.925  -1.553   1.091  0.00  0.00    +0.011 C 
ATOM     14  C   UNL     1      -5.546  -0.520   1.793  0.00  0.00    +0.002 C 
ENDBRANCH   6   9
ENDBRANCH   3   6
ENDBRANCH   1   3
BRANCH   1  16
ATOM     15  N   UNL     1       1.544  -0.201  -1.305  0.00  0.00    -0.224 NA
ATOM     16  C   UNL     1       0.531  -0.424  -0.523  0.00  0.00    +0.177 C 
BRANCH  15  17
ATOM     17  C   UNL     1       2.831  -0.114  -0.743  0.00  0.00    +0.083 C 
ATOM     18  C   UNL     1       3.607  -1.261  -0.618  0.00  0.00    +0.020 C 
ATOM     19  C   UNL     1       3.316   1.118  -0.317  0.00  0.00    +0.020 C 
ATOM     20  C   UNL     1       5.375   0.057   0.369  0.00  0.00    +0.069 C 
ATOM     21  C   UNL     1       4.883  -1.176  -0.061  0.00  0.00    +0.012 C 
ATOM     22  C   UNL     1       4.591   1.204   0.241  0.00  0.00    +0.012 C 
BRANCH  20  24
ATOM     23  N   UNL     1       7.748   0.217   1.403  0.00  0.00    -0.191 NA
ATOM     24  C   UNL     1       6.683   0.145   0.939  0.00  0.00    +0.100 C 
ENDBRANCH  20  24
ENDBRANCH  15  17
BRANCH  16  25
ATOM     25  S   UNL     1       0.859  -0.660   1.192  0.00  0.00    -0.106 S 
ATOM     26  H   UNL     1      -0.310  -0.880   1.851  0.00  0.00    +0.110 HD
ENDBRANCH  16  25
ENDBRANCH   1  16
TORSDOF 7
