REMARK  Name = 15942657
REMARK  6 active torsions:
REMARK  status: ('A' for Active; 'I' for Inactive)
REMARK    1  A    between atoms: C_2  and  C_8
REMARK    2  A    between atoms: C_3  and  N_17
REMARK    3  A    between atoms: C_11  and  O_14
REMARK    4  A    between atoms: C_18  and  C_21
REMARK    5  A    between atoms: C_22  and  C_26
REMARK    6  A    between atoms: C_26  and  O_27
REMARK                            x       y       z     vdW  Elec       q    Type
REMARK                         _______ _______ _______ _____ _____    ______ ____
ROOT
ATOM      1  F   UNL     1       0.235   2.963   0.834  0.00  0.00    -0.203 F 
ATOM      2  C   UNL     1      -2.299   0.508  -0.044  0.00  0.00    +0.002 C 
ATOM      3  C   UNL     1       0.480   0.740   0.035  0.00  0.00    +0.078 C 
ATOM      4  C   UNL     1      -1.710   1.699   0.383  0.00  0.00    +0.031 C 
ATOM      5  C   UNL     1      -1.498  -0.566  -0.432  0.00  0.00    +0.001 C 
ATOM      6  C   UNL     1      -0.320   1.814   0.422  0.00  0.00    +0.153 C 
ATOM      7  C   UNL     1      -0.108  -0.451  -0.392  0.00  0.00    +0.017 C 
ENDROOT
BRANCH   2   8
ATOM      8  C   UNL     1      -3.740   0.388  -0.084  0.00  0.00    +0.003 C 
ATOM      9  C   UNL     1      -4.342  -0.855   0.114  0.00  0.00    +0.037 C 
ATOM     10  C   UNL     1      -4.528   1.515  -0.319  0.00  0.00    +0.000 C 
ATOM     11  C   UNL     1      -5.732  -0.970   0.077  0.00  0.00    +0.139 C 
ATOM     12  C   UNL     1      -5.917   1.399  -0.357  0.00  0.00    +0.003 C 
ATOM     13  C   UNL     1      -6.519   0.157  -0.159  0.00  0.00    +0.037 C 
BRANCH  11  14
ATOM     14  O   UNL     1      -6.320  -2.182   0.270  0.00  0.00    -0.471 OA
ATOM     15  C   UNL     1      -7.745  -2.228   0.218  0.00  0.00    +0.252 C 
ENDBRANCH  11  14
ENDBRANCH   2   8
BRANCH   3  17
ATOM     16  O   UNL     1       2.581  -1.213  -0.758  0.00  0.00    -0.270 OA
ATOM     17  N   UNL     1       1.870   0.854   0.072  0.00  0.00    -0.279 N 
ATOM     18  C   UNL     1       2.833  -0.097  -0.314  0.00  0.00    +0.250 C 
ATOM     19  H   UNL     1       2.223   1.708   0.411  0.00  0.00    +0.155 HD
BRANCH  18  21
ATOM     20  S   UNL     1       6.745   0.298   0.155  0.00  0.00    -0.080 S 
ATOM     21  C   UNL     1       4.231   0.350  -0.190  0.00  0.00    +0.066 C 
ATOM     22  C   UNL     1       5.244  -0.520   0.070  0.00  0.00    +0.109 C 
ATOM     23  C   UNL     1       4.639   1.689  -0.326  0.00  0.00    +0.012 C 
ATOM     24  C   UNL     1       6.001   1.808  -0.160  0.00  0.00    +0.036 C 
BRANCH  22  26
ATOM     25  O   UNL     1       4.303  -2.618   0.747  0.00  0.00    -0.245 OA
ATOM     26  C   UNL     1       5.227  -1.935   0.269  0.00  0.00    +0.344 C 
BRANCH  26  27
ATOM     27  O   UNL     1       6.388  -2.546  -0.132  0.00  0.00    -0.477 OA
ATOM     28  H   UNL     1       7.086  -2.035  -0.493  0.00  0.00    +0.295 HD
ENDBRANCH  26  27
ENDBRANCH  22  26
ENDBRANCH  18  21
ENDBRANCH   3  17
TORSDOF 6
