9549258
  -OEChem-10051721103D

 52 55  0     1  0  0  0  0  0999 V2000
    7.3930   -3.1498    1.2239 Cl  0  0  0  0  0  0  0  0  0  0  0  0
    1.8139    2.7404    0.2746 S   0  0  0  0  0  0  0  0  0  0  0  0
    3.4109    0.6436    1.5265 S   0  0  0  0  0  0  0  0  0  0  0  0
   -2.3236    1.8606   -0.6647 O   0  0  0  0  0  0  0  0  0  0  0  0
   -7.6577    0.1735    0.8756 O   0  0  0  0  0  0  0  0  0  0  0  0
   -3.0213   -1.5383    1.0593 O   0  0  0  0  0  0  0  0  0  0  0  0
    2.0814    3.4316    1.5208 O   0  0  0  0  0  0  0  0  0  0  0  0
    1.8396    3.4390   -0.9956 O   0  0  0  0  0  0  0  0  0  0  0  0
   -1.8757   -0.4256   -0.9888 N   0  0  0  0  0  0  0  0  0  0  0  0
    0.3369    1.8795    0.4123 N   0  0  0  0  0  0  0  0  0  0  0  0
   -5.1379   -0.9519    0.3064 N   0  0  0  0  0  0  0  0  0  0  0  0
   -0.0529    0.9953   -0.6921 C   0  0  1  0  0  0  0  0  0  0  0  0
    0.3718   -0.4436   -0.4193 C   0  0  0  0  0  0  0  0  0  0  0  0
   -0.7069   -1.2669   -1.0956 C   0  0  0  0  0  0  0  0  0  0  0  0
   -3.2056   -0.9426   -1.2280 C   0  0  2  0  0  0  0  0  0  0  0  0
   -1.5576    0.9130   -0.7606 C   0  0  0  0  0  0  0  0  0  0  0  0
   -3.7716   -1.1745    0.1502 C   0  0  0  0  0  0  0  0  0  0  0  0
   -3.1882   -2.2275   -2.0225 C   0  0  0  0  0  0  0  0  0  0  0  0
   -6.0791   -0.6439   -0.7754 C   0  0  0  0  0  0  0  0  0  0  0  0
   -5.7673   -1.1488    1.6121 C   0  0  0  0  0  0  0  0  0  0  0  0
   -7.0087    0.4890   -0.3590 C   0  0  0  0  0  0  0  0  0  0  0  0
   -6.7048    0.0076    1.9289 C   0  0  0  0  0  0  0  0  0  0  0  0
    3.1202    1.5233    0.1131 C   0  0  0  0  0  0  0  0  0  0  0  0
    3.9125    1.1807   -0.9257 C   0  0  0  0  0  0  0  0  0  0  0  0
    4.8279    0.1321   -0.5749 C   0  0  0  0  0  0  0  0  0  0  0  0
    4.6598   -0.2620    0.7562 C   0  0  0  0  0  0  0  0  0  0  0  0
    5.8198   -0.5206   -1.3462 C   0  0  0  0  0  0  0  0  0  0  0  0
    5.4488   -1.2792    1.3283 C   0  0  0  0  0  0  0  0  0  0  0  0
    6.6037   -1.5304   -0.7817 C   0  0  0  0  0  0  0  0  0  0  0  0
    6.4186   -1.9038    0.5418 C   0  0  0  0  0  0  0  0  0  0  0  0
    0.3052    1.3525   -1.6630 H   0  0  0  0  0  0  0  0  0  0  0  0
    1.3645   -0.6806   -0.8111 H   0  0  0  0  0  0  0  0  0  0  0  0
    0.3778   -0.6584    0.6572 H   0  0  0  0  0  0  0  0  0  0  0  0
   -0.8444   -2.2228   -0.5835 H   0  0  0  0  0  0  0  0  0  0  0  0
   -0.4789   -1.4275   -2.1544 H   0  0  0  0  0  0  0  0  0  0  0  0
   -3.7238   -0.1449   -1.7596 H   0  0  0  0  0  0  0  0  0  0  0  0
    0.0803    1.5422    1.3493 H   0  0  0  0  0  0  0  0  0  0  0  0
   -2.7334   -3.0605   -1.4754 H   0  0  0  0  0  0  0  0  0  0  0  0
   -4.2113   -2.5406   -2.2600 H   0  0  0  0  0  0  0  0  0  0  0  0
   -2.6562   -2.1069   -2.9721 H   0  0  0  0  0  0  0  0  0  0  0  0
   -5.6104   -0.4081   -1.7279 H   0  0  0  0  0  0  0  0  0  0  0  0
   -6.6651   -1.5590   -0.9275 H   0  0  0  0  0  0  0  0  0  0  0  0
   -6.3311   -2.0869    1.5474 H   0  0  0  0  0  0  0  0  0  0  0  0
   -5.0158   -1.2580    2.3999 H   0  0  0  0  0  0  0  0  0  0  0  0
   -6.4625    1.4336   -0.2499 H   0  0  0  0  0  0  0  0  0  0  0  0
   -7.7847    0.6358   -1.1167 H   0  0  0  0  0  0  0  0  0  0  0  0
   -7.2556   -0.1964    2.8522 H   0  0  0  0  0  0  0  0  0  0  0  0
   -6.1522    0.9445    2.0670 H   0  0  0  0  0  0  0  0  0  0  0  0
    3.8633    1.6391   -1.9054 H   0  0  0  0  0  0  0  0  0  0  0  0
    5.9766   -0.2387   -2.3846 H   0  0  0  0  0  0  0  0  0  0  0  0
    5.3007   -1.5692    2.3655 H   0  0  0  0  0  0  0  0  0  0  0  0
    7.3581   -2.0151   -1.3968 H   0  0  0  0  0  0  0  0  0  0  0  0
  1 30  1  0  0  0  0
  2  7  2  0  0  0  0
  2  8  2  0  0  0  0
  2 10  1  0  0  0  0
  2 23  1  0  0  0  0
  3 23  1  0  0  0  0
  3 26  1  0  0  0  0
  4 16  2  0  0  0  0
  5 21  1  0  0  0  0
  5 22  1  0  0  0  0
  6 17  2  0  0  0  0
  9 14  1  0  0  0  0
  9 15  1  0  0  0  0
  9 16  1  0  0  0  0
 10 12  1  0  0  0  0
 10 37  1  0  0  0  0
 11 17  1  0  0  0  0
 11 19  1  0  0  0  0
 11 20  1  0  0  0  0
 12 13  1  0  0  0  0
 12 16  1  0  0  0  0
 12 31  1  0  0  0  0
 13 14  1  0  0  0  0
 13 32  1  0  0  0  0
 13 33  1  0  0  0  0
 14 34  1  0  0  0  0
 14 35  1  0  0  0  0
 15 17  1  0  0  0  0
 15 18  1  0  0  0  0
 15 36  1  0  0  0  0
 18 38  1  0  0  0  0
 18 39  1  0  0  0  0
 18 40  1  0  0  0  0
 19 21  1  0  0  0  0
 19 41  1  0  0  0  0
 19 42  1  0  0  0  0
 20 22  1  0  0  0  0
 20 43  1  0  0  0  0
 20 44  1  0  0  0  0
 21 45  1  0  0  0  0
 21 46  1  0  0  0  0
 22 47  1  0  0  0  0
 22 48  1  0  0  0  0
 23 24  2  0  0  0  0
 24 25  1  0  0  0  0
 24 49  1  0  0  0  0
 25 26  2  0  0  0  0
 25 27  1  0  0  0  0
 26 28  1  0  0  0  0
 27 29  2  0  0  0  0
 27 50  1  0  0  0  0
 28 30  2  0  0  0  0
 28 51  1  0  0  0  0
 29 30  1  0  0  0  0
 29 52  1  0  0  0  0
M  END
> <DATABASE_ID>
DB07844

> <DATABASE_NAME>
drugbank

> <ORIGINAL_SOURCE>
PUBCHEM

> <ORIGINAL_SOURCE_URL>
https://pubchem.ncbi.nlm.nih.gov/rest/pug/compound/inchikey/PHLKBODTBJLXRD-WFASDCNBSA-N/SDF?record_type=3d

> <SMILES>
[H][C@@](C)(N1CC[C@]([H])(NS(=O)(=O)C2=CC3=C(S2)C=C(Cl)C=C3)C1=O)C(=O)N1CCOCC1

> <INCHI_IDENTIFIER>
InChI=1S/C19H22ClN3O5S2/c1-12(18(24)22-6-8-28-9-7-22)23-5-4-15(19(23)25)21-30(26,27)17-10-13-2-3-14(20)11-16(13)29-17/h2-3,10-12,15,21H,4-9H2,1H3/t12-,15-/m0/s1

> <INCHI_KEY>
PHLKBODTBJLXRD-WFASDCNBSA-N

> <FORMULA>
C19H22ClN3O5S2

> <MOLECULAR_WEIGHT>
471.978

> <EXACT_MASS>
471.068939916

> <JCHEM_ACCEPTOR_COUNT>
5

> <JCHEM_AVERAGE_POLARIZABILITY>
46.56067458258236

> <JCHEM_BIOAVAILABILITY>
1

> <JCHEM_DONOR_COUNT>
1

> <JCHEM_FORMAL_CHARGE>
0

> <JCHEM_GHOSE_FILTER>
1

> <JCHEM_IUPAC>
6-chloro-N-[(3S)-1-[(2S)-1-(morpholin-4-yl)-1-oxopropan-2-yl]-2-oxopyrrolidin-3-yl]-1-benzothiophene-2-sulfonamide

> <ALOGPS_LOGP>
1.03

> <JCHEM_LOGP>
1.1364586216666674

> <ALOGPS_LOGS>
-4.17

> <JCHEM_MDDR_LIKE_RULE>
0

> <JCHEM_NUMBER_OF_RINGS>
4

> <JCHEM_PHYSIOLOGICAL_CHARGE>
0

> <JCHEM_PKA>
15.951117756834936

> <JCHEM_PKA_STRONGEST_ACIDIC>
8.607216685630412

> <JCHEM_PKA_STRONGEST_BASIC>
-3.1484518833808512

> <JCHEM_POLAR_SURFACE_AREA>
96.02000000000001

> <JCHEM_REFRACTIVITY>
112.02789999999996

> <JCHEM_ROTATABLE_BOND_COUNT>
4

> <JCHEM_RULE_OF_FIVE>
1

> <ALOGPS_SOLUBILITY>
3.22e-02 g/l

> <JCHEM_TRADITIONAL_IUPAC>
6-chloro-N-[(3S)-1-[(2S)-1-(morpholin-4-yl)-1-oxopropan-2-yl]-2-oxopyrrolidin-3-yl]-1-benzothiophene-2-sulfonamide

> <JCHEM_VEBER_RULE>
0

> <DRUGBANK_ID>
DB07844

> <DRUG_GROUPS>
experimental

> <GENERIC_NAME>
6-CHLORO-N-{(3S)-1-[(1S)-1-METHYL-2-MORPHOLIN-4-YL-2-OXOETHYL]-2-OXOPYRROLIDIN-3-YL}-1-BENZOTHIOPHENE-2-SULFONAMIDE

$$$$
