REMARK  Name = 12148754
REMARK  5 active torsions:
REMARK  status: ('A' for Active; 'I' for Inactive)
REMARK    1  A    between atoms: N_3  and  C_20
REMARK    2  A    between atoms: C_6  and  C_12
REMARK    3  A    between atoms: C_19  and  N_25
REMARK    4  A    between atoms: C_26  and  C_32
REMARK    5  A    between atoms: C_32  and  O_33
REMARK                            x       y       z     vdW  Elec       q    Type
REMARK                         _______ _______ _______ _____ _____    ______ ____
ROOT
ATOM      1  O   UNL     1      -0.496   3.275  -0.074  0.00  0.00    -0.252 OA
ATOM      2  O   UNL     1      -3.235   2.797  -0.013  0.00  0.00    -0.270 OA
ATOM      3  N   UNL     1       0.774   1.294  -0.074  0.00  0.00    -0.267 N 
ATOM      4  N   UNL     1      -1.541   1.199  -0.029  0.00  0.00    -0.236 N 
ATOM      5  C   UNL     1      -0.416   2.049  -0.061  0.00  0.00    +0.310 C 
ATOM      6  C   UNL     1      -2.868   1.625  -0.007  0.00  0.00    +0.254 C 
ATOM      7  H   UNL     1       0.661   0.316  -0.059  0.00  0.00    +0.156 HD
ATOM      8  H   UNL     1      -1.376   0.229  -0.021  0.00  0.00    +0.159 HD
ENDROOT
BRANCH   6  12
ATOM      9 CL   UNL     1      -4.851   1.538   2.345  0.00  0.00    -0.082 Cl
ATOM     10  F   UNL     1      -4.806  -2.234  -2.134  0.00  0.00    -0.202 F 
ATOM     11  F   UNL     1      -6.655  -2.480  -0.135  0.00  0.00    -0.202 F 
ATOM     12  C   UNL     1      -3.890   0.547  -0.010  0.00  0.00    +0.067 C 
ATOM     13  C   UNL     1      -4.814   0.442   1.011  0.00  0.00    +0.064 C 
ATOM     14  C   UNL     1      -3.869  -0.337  -1.072  0.00  0.00    +0.037 C 
ATOM     15  C   UNL     1      -5.755  -0.587   0.968  0.00  0.00    +0.043 C 
ATOM     16  C   UNL     1      -4.809  -1.365  -1.115  0.00  0.00    +0.168 C 
ATOM     17  C   UNL     1      -5.753  -1.491  -0.095  0.00  0.00    +0.168 C 
ENDBRANCH   6  12
BRANCH   3  20
ATOM     18  F   UNL     1       3.861   4.934  -0.180  0.00  0.00    -0.204 F 
ATOM     19  C   UNL     1       3.162   0.836  -0.112  0.00  0.00    +0.062 C 
ATOM     20  C   UNL     1       2.093   1.755  -0.105  0.00  0.00    +0.067 C 
ATOM     21  C   UNL     1       4.474   1.348  -0.144  0.00  0.00    +0.018 C 
ATOM     22  C   UNL     1       2.328   3.130  -0.127  0.00  0.00    +0.046 C 
ATOM     23  C   UNL     1       4.709   2.723  -0.166  0.00  0.00    +0.031 C 
ATOM     24  C   UNL     1       3.635   3.614  -0.158  0.00  0.00    +0.141 C 
BRANCH  19  25
ATOM     25  N   UNL     1       2.949  -0.548  -0.092  0.00  0.00    -0.307 N 
ATOM     26  C   UNL     1       2.509  -3.415   0.016  0.00  0.00    +0.102 C 
ATOM     27  C   UNL     1       2.647  -2.670  -1.309  0.00  0.00    +0.033 C 
ATOM     28  C   UNL     1       2.042  -2.482   1.131  0.00  0.00    +0.033 C 
ATOM     29  C   UNL     1       3.449  -1.371  -1.197  0.00  0.00    +0.091 C 
ATOM     30  C   UNL     1       2.871  -1.201   1.220  0.00  0.00    +0.091 C 
BRANCH  26  32
ATOM     31  O   UNL     1       4.832  -4.040  -0.235  0.00  0.00    -0.250 OA
ATOM     32  C   UNL     1       3.789  -4.096   0.400  0.00  0.00    +0.313 C 
BRANCH  32  33
ATOM     33  O   UNL     1       3.635  -4.790   1.554  0.00  0.00    -0.480 OA
ATOM     34  H   UNL     1       2.808  -4.792   1.993  0.00  0.00    +0.295 HD
ENDBRANCH  32  33
ENDBRANCH  26  32
ENDBRANCH  19  25
ENDBRANCH   3  20
TORSDOF 5
