REMARK  Name = 10067695
REMARK  7 active torsions:
REMARK  status: ('A' for Active; 'I' for Inactive)
REMARK    1  A    between atoms: N_1  and  C_18
REMARK    2  A    between atoms: C_2  and  C_9
REMARK    3  A    between atoms: C_3  and  O_7
REMARK    4  A    between atoms: C_9  and  S_10
REMARK    5  A    between atoms: S_10  and  C_11
REMARK    6  A    between atoms: C_11  and  C_12
REMARK    7  A    between atoms: C_18  and  C_23
REMARK                            x       y       z     vdW  Elec       q    Type
REMARK                         _______ _______ _______ _____ _____    ______ ____
ROOT
ATOM      1  N   UNL     1      -2.344  -2.259   0.068  0.00  0.00    +0.391 N 
ATOM      2  C   UNL     1      -0.109  -2.794   0.248  0.00  0.00    +0.015 C 
ATOM      3  C   UNL     1      -0.820  -4.039  -0.290  0.00  0.00    +0.089 C 
ATOM      4  C   UNL     1      -1.032  -1.655  -0.167  0.00  0.00    -0.073 C 
ATOM      5  C   UNL     1      -2.272  -3.607  -0.508  0.00  0.00    -0.047 C 
ATOM      6  H   UNL     1      -2.556  -2.297   1.065  0.00  0.00    -0.079 HD
ENDROOT
BRANCH   3   7
ATOM      7  O   UNL     1      -0.735  -5.084   0.667  0.00  0.00    -0.387 OA
ATOM      8  H   UNL     1       0.194  -5.338   0.787  0.00  0.00    +0.210 HD
ENDBRANCH   3   7
BRANCH   2   9
ATOM      9  C   UNL     1       1.306  -2.633  -0.288  0.00  0.00    +0.058 C 
BRANCH   9  10
ATOM     10  S   UNL     1       2.047  -1.100   0.331  0.00  0.00    -0.135 S 
BRANCH  10  11
ATOM     11  C   UNL     1       3.658  -1.238  -0.478  0.00  0.00    +0.084 C 
BRANCH  11  12
ATOM     12  C   UNL     1       4.555  -0.074  -0.158  0.00  0.00    -0.011 C 
ATOM     13  C   UNL     1       5.394  -0.140   0.947  0.00  0.00    -0.003 C 
ATOM     14  C   UNL     1       4.533   1.052  -0.970  0.00  0.00    -0.003 C 
ATOM     15  C   UNL     1       6.226   0.940   1.244  0.00  0.00    -0.000 C 
ATOM     16  C   UNL     1       5.365   2.131  -0.673  0.00  0.00    -0.000 C 
ATOM     17  C   UNL     1       6.212   2.075   0.434  0.00  0.00    -0.000 C 
ENDBRANCH  11  12
ENDBRANCH  10  11
ENDBRANCH   9  10
ENDBRANCH   2   9
BRANCH   1  18
ATOM     18  C   UNL     1      -3.431  -1.469  -0.492  0.00  0.00    -0.047 C 
BRANCH  18  23
ATOM     19  N   UNL     1      -3.979   1.606   1.415  0.00  0.00    -0.323 N 
ATOM     20  N   UNL     1      -2.002   1.185  -1.470  0.00  0.00    -0.247 NA
ATOM     21  N   UNL     1      -1.812   3.532  -0.853  0.00  0.00    -0.232 NA
ATOM     22  N   UNL     1      -2.945   4.443   1.049  0.00  0.00    -0.345 N 
ATOM     23  C   UNL     1      -3.483  -0.089   0.098  0.00  0.00    -0.014 C 
ATOM     24  C   UNL     1      -2.819   1.040  -0.398  0.00  0.00    +0.076 C 
ATOM     25  C   UNL     1      -4.191   0.266   1.207  0.00  0.00    +0.053 C 
ATOM     26  C   UNL     1      -3.143   2.099   0.446  0.00  0.00    +0.163 C 
ATOM     27  C   UNL     1      -2.628   3.361   0.210  0.00  0.00    +0.123 C 
ATOM     28  C   UNL     1      -1.553   2.448  -1.618  0.00  0.00    +0.251 C 
ATOM     29  H   UNL     1      -4.368   2.134   2.149  0.00  0.00    +0.148 HD
ATOM     30  H   UNL     1      -2.570   5.335   0.865  0.00  0.00    +0.143 HD
ATOM     31  H   UNL     1      -3.541   4.310   1.820  0.00  0.00    +0.143 HD
ENDBRANCH  18  23
ENDBRANCH   1  18
TORSDOF 7
