REMARK  Name = 448979
REMARK  7 active torsions:
REMARK  status: ('A' for Active; 'I' for Inactive)
REMARK    1  A    between atoms: C_1  and  O_7
REMARK    2  A    between atoms: C_2  and  O_14
REMARK    3  A    between atoms: O_7  and  C_8
REMARK    4  A    between atoms: C_8  and  C_11
REMARK    5  A    between atoms: C_11  and  O_12
REMARK    6  A    between atoms: O_14  and  C_18
REMARK    7  A    between atoms: C_17  and  C_25
REMARK                            x       y       z     vdW  Elec       q    Type
REMARK                         _______ _______ _______ _____ _____    ______ ____
ROOT
ATOM      1  C   UNL     1      -3.074  -0.932  -0.071  0.00  0.00    +0.139 C 
ATOM      2  C   UNL     1      -0.417  -1.781  -0.068  0.00  0.00    +0.147 C 
ATOM      3  C   UNL     1      -2.400  -1.117  -1.278  0.00  0.00    +0.040 C 
ATOM      4  C   UNL     1      -2.420  -1.172   1.138  0.00  0.00    +0.040 C 
ATOM      5  C   UNL     1      -1.071  -1.541  -1.276  0.00  0.00    +0.041 C 
ATOM      6  C   UNL     1      -1.092  -1.596   1.139  0.00  0.00    +0.041 C 
ENDROOT
BRANCH   1   7
ATOM      7  O   UNL     1      -4.371  -0.517  -0.072  0.00  0.00    -0.468 OA
BRANCH   7   8
ATOM      8  C   UNL     1      -4.660   0.714   0.589  0.00  0.00    +0.263 C 
ATOM      9  C   UNL     1      -5.661   0.429   1.695  0.00  0.00    +0.060 C 
BRANCH   8  11
ATOM     10  O   UNL     1      -5.432   1.417  -1.605  0.00  0.00    -0.246 OA
ATOM     11  C   UNL     1      -5.225   1.683  -0.428  0.00  0.00    +0.354 C 
BRANCH  11  12
ATOM     12  O   UNL     1      -5.502   2.896   0.116  0.00  0.00    -0.478 OA
ATOM     13  H   UNL     1      -5.327   3.054   1.023  0.00  0.00    +0.295 HD
ENDBRANCH  11  12
ENDBRANCH   8  11
ENDBRANCH   7   8
ENDBRANCH   1   7
BRANCH   2  14
ATOM     14  O   UNL     1       0.879  -2.197  -0.066  0.00  0.00    -0.435 OA
BRANCH  14  18
ATOM     15 CL   UNL     1       3.689  -3.249  -0.063  0.00  0.00    -0.077 Cl
ATOM     16  N   UNL     1       1.423   0.045  -0.011  0.00  0.00    -0.209 NA
ATOM     17  C   UNL     1       3.738   0.739   0.025  0.00  0.00    +0.092 C 
ATOM     18  C   UNL     1       1.866  -1.226  -0.036  0.00  0.00    +0.240 C 
ATOM     19  C   UNL     1       4.145  -0.590  -0.001  0.00  0.00    +0.022 C 
ATOM     20  C   UNL     1       3.192  -1.603  -0.033  0.00  0.00    +0.111 C 
ATOM     21  C   UNL     1       2.378   1.001   0.019  0.00  0.00    +0.106 C 
BRANCH  17  25
ATOM     22  F   UNL     1       6.032   1.419   0.062  0.00  0.00    -0.166 F 
ATOM     23  F   UNL     1       4.643   2.699  -1.005  0.00  0.00    -0.166 F 
ATOM     24  F   UNL     1       4.607   2.634   1.168  0.00  0.00    -0.166 F 
ATOM     25  C   UNL     1       4.732   1.845   0.060  0.00  0.00    +0.420 C 
ENDBRANCH  17  25
ENDBRANCH  14  18
ENDBRANCH   2  14
TORSDOF 7
