REMARK  Name = 445494
REMARK  6 active torsions:
REMARK  status: ('A' for Active; 'I' for Inactive)
REMARK    1  A    between atoms: CA_1  and  N_2
REMARK    2  A    between atoms: CA_1  and  CB_6
REMARK    3  A    between atoms: CA_1  and  C_13
REMARK    4  A    between atoms: CB_6  and  CG_7
REMARK    5  A    between atoms: C_13  and  O_14
REMARK    6  A    between atoms: C_13  and  OXT_16
REMARK                            x       y       z     vdW  Elec       q    Type
REMARK                         _______ _______ _______ _____ _____    ______ ____
ROOT
ATOM      1  CA  PHE A   1       1.652  -0.763  -0.164  0.00  0.00    -0.004 C 
ENDROOT
BRANCH   1   2
ATOM      2  N   PHE A   1       2.868  -1.413   0.346  0.00  0.00    +0.385 N 
ATOM      3  H1  PHE A   1       2.680  -2.400   0.517  0.00  0.00    -0.089 HD
ATOM      4  H2  PHE A   1       3.152  -0.965   1.217  0.00  0.00    -0.089 HD
ATOM      5  H3  PHE A   1       3.616  -1.323  -0.342  0.00  0.00    -0.089 HD
ENDBRANCH   1   2
BRANCH   1   6
ATOM      6  CB  PHE A   1       0.519  -1.008   0.851  0.00  0.00    +0.009 C 
BRANCH   6   7
ATOM      7  CG  PHE A   1      -0.817  -0.462   0.408  0.00  0.00    -0.024 C 
ATOM      8  CD1 PHE A   1      -1.165   0.837   0.744  0.00  0.00    -0.004 C 
ATOM      9  CD2 PHE A   1      -1.671  -1.269  -0.328  0.00  0.00    -0.004 C 
ATOM     10  CE1 PHE A   1      -2.399   1.342   0.335  0.00  0.00    -0.000 C 
ATOM     11  CE2 PHE A   1      -2.905  -0.763  -0.737  0.00  0.00    -0.000 C 
ATOM     12  CZ  PHE A   1      -3.269   0.542  -0.406  0.00  0.00    -0.000 C 
ENDBRANCH   6   7
ENDBRANCH   1   6
BRANCH   1  13
ATOM     13  C   PHE A   1       1.930   0.730  -0.425  0.00  0.00    +0.208 C 
BRANCH  13  14
ATOM     14  O   PHE A   1       2.955   0.847  -1.407  0.00  0.00    -0.362 OA
ATOM     15  H   PHE A   1       2.839   0.462  -2.254  0.00  0.00    +0.213 HD
ENDBRANCH  13  14
BRANCH  13  16
ATOM     16  OXT PHE A   1       2.300   1.380   0.784  0.00  0.00    -0.362 OA
ATOM     17  HXT PHE A   1       1.714   1.379   1.515  0.00  0.00    +0.213 HD
ENDBRANCH  13  16
ENDBRANCH   1  13
TORSDOF 6
