REMARK  Name = 11960529
REMARK  2 active torsions:
REMARK  status: ('A' for Active; 'I' for Inactive)
REMARK    1  A    between atoms: C_3  and  C_13
REMARK    2  A    between atoms: C_6  and  C_22
REMARK                            x       y       z     vdW  Elec       q    Type
REMARK                         _______ _______ _______ _____ _____    ______ ____
ROOT
ATOM      1  N   UNL     1       0.571  -1.673   0.092  0.00  0.00    -0.320 N 
ATOM      2  N   UNL     1       0.161   0.501   0.303  0.00  0.00    -0.319 N 
ATOM      3  C   UNL     1       1.082  -0.428   0.302  0.00  0.00    +0.125 C 
ATOM      4  C   UNL     1      -0.786  -1.540  -0.056  0.00  0.00    +0.059 C 
ATOM      5  C   UNL     1      -1.017  -0.174   0.081  0.00  0.00    +0.063 C 
ATOM      6  C   UNL     1      -2.332   0.311  -0.019  0.00  0.00    +0.067 C 
ATOM      7  C   UNL     1      -1.800  -2.470  -0.289  0.00  0.00    +0.016 C 
ATOM      8  C   UNL     1      -3.366  -0.604  -0.253  0.00  0.00    +0.006 C 
ATOM      9  C   UNL     1      -3.102  -1.969  -0.386  0.00  0.00    +0.001 C 
ATOM     10  H   UNL     1       1.083  -2.513   0.053  0.00  0.00    +0.148 HD
ATOM     11  H   UNL     1       0.284   1.469   0.435  0.00  0.00    +0.148 HD
ENDROOT
BRANCH   3  13
ATOM     12  N   UNL     1       2.974   1.219   0.573  0.00  0.00    +0.388 N 
ATOM     13  C   UNL     1       2.595  -0.216   0.508  0.00  0.00    -0.011 C 
ATOM     14  C   UNL     1       3.448  -0.681  -0.683  0.00  0.00    -0.018 C 
ATOM     15  C   UNL     1       3.348   0.464  -1.675  0.00  0.00    -0.025 C 
ATOM     16  C   UNL     1       3.131   1.693  -0.811  0.00  0.00    -0.081 C 
ATOM     17  C   UNL     1       3.029  -0.915   1.807  0.00  0.00    -0.018 C 
ATOM     18  H   UNL     1       3.852   1.327   1.080  0.00  0.00    -0.084 HD
ATOM     19  H   UNL     1       2.259   1.759   1.060  0.00  0.00    -0.084 HD
ENDBRANCH   3  13
BRANCH   6  22
ATOM     20  O   UNL     1      -3.778   2.169   0.043  0.00  0.00    -0.270 OA
ATOM     21  N   UNL     1      -1.544   2.587   0.347  0.00  0.00    -0.325 N 
ATOM     22  C   UNL     1      -2.616   1.728   0.115  0.00  0.00    +0.244 C 
ATOM     23  H   UNL     1      -1.700   3.555   0.443  0.00  0.00    +0.145 HD
ATOM     24  H   UNL     1      -0.630   2.227   0.415  0.00  0.00    +0.145 HD
ENDBRANCH   6  22
TORSDOF 2
