REMARK  Name = 15627868
REMARK  6 active torsions:
REMARK  status: ('A' for Active; 'I' for Inactive)
REMARK    1  A    between atoms: N_1  and  C_6
REMARK    2  A    between atoms: N_1  and  O_15
REMARK    3  A    between atoms: O_15  and  C_16
REMARK    4  A    between atoms: C_16  and  C_17
REMARK    5  A    between atoms: C_17  and  C_19
REMARK    6  A    between atoms: C_19  and  O_20
REMARK                            x       y       z     vdW  Elec       q    Type
REMARK                         _______ _______ _______ _____ _____    ______ ____
ROOT
ATOM      1  C   UNL     1      -2.540  -0.274  -0.077  0.00  0.00    -0.002 C 
ATOM      2  C   UNL     1      -1.528  -1.306   0.011  0.00  0.00    -0.016 C 
ATOM      3  C   UNL     1      -1.924   0.986   0.017  0.00  0.00    +0.020 C 
ATOM      4  C   UNL     1      -0.265  -0.704   0.161  0.00  0.00    +0.016 C 
ATOM      5  C   UNL     1      -0.479   0.754   0.168  0.00  0.00    +0.107 C 
ATOM      6  C   UNL     1      -3.914  -0.355  -0.228  0.00  0.00    -0.000 C 
ATOM      7  C   UNL     1      -1.633  -2.685  -0.029  0.00  0.00    +0.052 C 
ATOM      8  C   UNL     1      -2.624   2.175  -0.034  0.00  0.00    +0.002 C 
ATOM      9  C   UNL     1       0.904  -1.431   0.272  0.00  0.00    +0.001 C 
ATOM     10  C   UNL     1      -4.646   0.837  -0.282  0.00  0.00    -0.000 C 
ATOM     11  C   UNL     1      -0.460  -3.442   0.082  0.00  0.00    -0.021 C 
ATOM     12  C   UNL     1      -4.008   2.088  -0.186  0.00  0.00    +0.000 C 
ATOM     13  C   UNL     1       0.794  -2.821   0.231  0.00  0.00    -0.004 C 
ENDROOT
BRANCH   5  14
ATOM     14  N   UNL     1       0.450   1.637   0.287  0.00  0.00    -0.131 NA
BRANCH  14  15
ATOM     15  O   UNL     1       1.676   0.975   0.443  0.00  0.00    -0.236 OA
BRANCH  15  16
ATOM     16  C   UNL     1       2.695   1.955   0.573  0.00  0.00    +0.188 C 
BRANCH  16  17
ATOM     17  C   UNL     1       4.037   1.264   0.743  0.00  0.00    +0.144 C 
BRANCH  17  19
ATOM     18  O   UNL     1       4.017   0.650  -1.594  0.00  0.00    -0.250 OA
ATOM     19  C   UNL     1       4.361   0.395  -0.447  0.00  0.00    +0.316 C 
BRANCH  19  20
ATOM     20  O   UNL     1       5.088  -0.699  -0.111  0.00  0.00    -0.480 OA
ATOM     21  H   UNL     1       5.325  -0.848   0.783  0.00  0.00    +0.295 HD
ENDBRANCH  19  20
ENDBRANCH  17  19
ENDBRANCH  16  17
ENDBRANCH  15  16
ENDBRANCH  14  15
ENDBRANCH   5  14
TORSDOF 6
