REMARK  Name = 181137
REMARK  5 active torsions:
REMARK  status: ('A' for Active; 'I' for Inactive)
REMARK    1  A    between atoms: C_2  and  C_13
REMARK    2  A    between atoms: C_8  and  O_11
REMARK    3  A    between atoms: C_13  and  C_14
REMARK    4  A    between atoms: C_14  and  C_16
REMARK    5  A    between atoms: C_16  and  O_17
REMARK                            x       y       z     vdW  Elec       q    Type
REMARK                         _______ _______ _______ _____ _____    ______ ____
ROOT
ATOM      1  N   UNL     1       0.923  -2.723  -0.080  0.00  0.00    -0.312 N 
ATOM      2  C   UNL     1      -0.550  -1.127   0.379  0.00  0.00    -0.006 C 
ATOM      3  C   UNL     1       0.718  -0.515   0.171  0.00  0.00    +0.014 C 
ATOM      4  C   UNL     1       1.624  -1.538  -0.115  0.00  0.00    +0.048 C 
ATOM      5  C   UNL     1      -0.391  -2.484   0.218  0.00  0.00    +0.058 C 
ATOM      6  C   UNL     1       1.182   0.815   0.198  0.00  0.00    +0.038 C 
ATOM      7  C   UNL     1       2.978  -1.296  -0.376  0.00  0.00    +0.018 C 
ATOM      8  C   UNL     1       2.533   1.072  -0.061  0.00  0.00    +0.139 C 
ATOM      9  C   UNL     1       3.416   0.031  -0.344  0.00  0.00    +0.038 C 
ATOM     10  H   UNL     1       1.312  -3.612  -0.244  0.00  0.00    +0.152 HD
ENDROOT
BRANCH   8  11
ATOM     11  O   UNL     1       2.990   2.356  -0.036  0.00  0.00    -0.471 OA
ATOM     12  C   UNL     1       2.038   3.375   0.259  0.00  0.00    +0.252 C 
ENDBRANCH   8  11
BRANCH   2  13
ATOM     13  C   UNL     1      -1.815  -0.439   0.708  0.00  0.00    +0.039 C 
BRANCH  13  14
ATOM     14  C   UNL     1      -2.650  -0.012  -0.516  0.00  0.00    +0.114 C 
BRANCH  14  16
ATOM     15  O   UNL     1      -4.341   0.889   0.991  0.00  0.00    -0.250 OA
ATOM     16  C   UNL     1      -3.958   0.654  -0.146  0.00  0.00    +0.314 C 
BRANCH  16  17
ATOM     17  O   UNL     1      -4.696   0.944  -1.250  0.00  0.00    -0.480 OA
ATOM     18  H   UNL     1      -4.362   0.746  -2.102  0.00  0.00    +0.295 HD
ENDBRANCH  16  17
ENDBRANCH  14  16
ENDBRANCH  13  14
ENDBRANCH   2  13
TORSDOF 5
