REMARK  Name = 6995013
REMARK  8 active torsions:
REMARK  status: ('A' for Active; 'I' for Inactive)
REMARK    1  A    between atoms: C_1  and  O_2
REMARK    2  A    between atoms: C_1  and  C_5
REMARK    3  A    between atoms: C_1  and  C_8
REMARK    4  A    between atoms: C_5  and  O_6
REMARK    5  A    between atoms: C_8  and  C_9
REMARK    6  A    between atoms: C_9  and  C_10
REMARK    7  A    between atoms: C_10  and  C_11
REMARK    8  A    between atoms: C_11  and  C_12
REMARK                            x       y       z     vdW  Elec       q    Type
REMARK                         _______ _______ _______ _____ _____    ______ ____
ROOT
ATOM      1  C   UNL     1       1.995   0.330   0.494  0.00  0.00    +0.209 C 
ENDROOT
BRANCH   1   2
ATOM      2  O   UNL     1       1.980   1.693   0.076  0.00  0.00    -0.374 OA
ATOM      3  H   UNL     1       1.173   2.122   0.401  0.00  0.00    +0.211 HD
ENDBRANCH   1   2
BRANCH   1   5
ATOM      4  O   UNL     1       4.076   0.320  -0.761  0.00  0.00    -0.248 OA
ATOM      5  C   UNL     1       3.276  -0.272  -0.048  0.00  0.00    +0.341 C 
BRANCH   5   6
ATOM      6  O   UNL     1       3.454  -1.556   0.352  0.00  0.00    -0.479 OA
ATOM      7  H   UNL     1       2.815  -1.970   0.898  0.00  0.00    +0.295 HD
ENDBRANCH   5   6
ENDBRANCH   1   5
BRANCH   1   8
ATOM      8  C   UNL     1       0.749  -0.339  -0.089  0.00  0.00    +0.041 C 
BRANCH   8   9
ATOM      9  C   UNL     1      -0.561   0.295   0.380  0.00  0.00    +0.003 C 
BRANCH   9  10
ATOM     10  C   UNL     1      -1.803  -0.336  -0.259  0.00  0.00    +0.000 C 
BRANCH  10  11
ATOM     11  C   UNL     1      -3.150   0.242   0.188  0.00  0.00    +0.000 C 
BRANCH  11  12
ATOM     12  C   UNL     1      -4.353  -0.464  -0.438  0.00  0.00    +0.000 C 
ATOM     13  C   UNL     1      -5.663   0.087   0.105  0.00  0.00    +0.000 C 
ENDBRANCH  11  12
ENDBRANCH  10  11
ENDBRANCH   9  10
ENDBRANCH   8   9
ENDBRANCH   1   8
TORSDOF 8
