REMARK  Name = 448955
REMARK  8 active torsions:
REMARK  status: ('A' for Active; 'I' for Inactive)
REMARK    1  A    between atoms: C_1  and  N_8
REMARK    2  A    between atoms: C_2  and  O_19
REMARK    3  A    between atoms: N_8  and  S_10
REMARK    4  A    between atoms: S_10  and  C_13
REMARK    5  A    between atoms: O_19  and  C_20
REMARK    6  A    between atoms: C_20  and  C_21
REMARK    7  A    between atoms: C_21  and  N_22
REMARK    8  A    between atoms: N_22  and  C_25
REMARK                            x       y       z     vdW  Elec       q    Type
REMARK                         _______ _______ _______ _____ _____    ______ ____
ROOT
ATOM      1  C   UNL     1      -2.592   1.344   0.629  0.00  0.00    +0.067 C 
ATOM      2  C   UNL     1      -0.243   1.909   0.607  0.00  0.00    +0.140 C 
ATOM      3  C   UNL     1      -1.696   2.712  -1.149  0.00  0.00    -0.018 C 
ATOM      4  C   UNL     1      -1.325   1.265   1.207  0.00  0.00    +0.053 C 
ATOM      5  C   UNL     1      -2.778   2.068  -0.548  0.00  0.00    +0.012 C 
ATOM      6  C   UNL     1      -0.429   2.633  -0.571  0.00  0.00    +0.033 C 
ATOM      7  C   UNL     1      -1.895   3.486  -2.408  0.00  0.00    +0.031 C 
ENDROOT
BRANCH   1   8
ATOM      8  N   UNL     1      -3.699   0.684   1.244  0.00  0.00    -0.215 N 
ATOM      9  H   UNL     1      -3.974   0.915   2.161  0.00  0.00    +0.174 HD
BRANCH   8  10
ATOM     10  S   UNL     1      -4.544  -0.524   0.353  0.00  0.00    +0.074 S 
ATOM     11  O   UNL     1      -5.387  -1.278   1.262  0.00  0.00    -0.150 OA
ATOM     12  O   UNL     1      -5.116   0.054  -0.848  0.00  0.00    -0.150 OA
BRANCH  10  13
ATOM     13  C   UNL     1      -3.229  -1.600  -0.139  0.00  0.00    +0.125 C 
ATOM     14  C   UNL     1      -2.876  -2.653   0.686  0.00  0.00    +0.020 C 
ATOM     15  C   UNL     1      -2.580  -1.367  -1.338  0.00  0.00    +0.020 C 
ATOM     16  C   UNL     1      -1.839  -3.502   0.298  0.00  0.00    +0.001 C 
ATOM     17  C   UNL     1      -1.543  -2.216  -1.726  0.00  0.00    +0.001 C 
ATOM     18  C   UNL     1      -1.173  -3.283  -0.908  0.00  0.00    +0.000 C 
ENDBRANCH  10  13
ENDBRANCH   8  10
ENDBRANCH   1   8
BRANCH   2  19
ATOM     19  O   UNL     1       0.993   1.832   1.170  0.00  0.00    -0.474 OA
BRANCH  19  20
ATOM     20  C   UNL     1       1.297   0.650   1.909  0.00  0.00    +0.226 C 
BRANCH  20  21
ATOM     21  C   UNL     1       2.789   0.374   1.829  0.00  0.00    +0.135 C 
BRANCH  21  22
ATOM     22  N   UNL     1       3.178   0.154   0.456  0.00  0.00    -0.330 N 
ATOM     23  H   UNL     1       2.486   0.224  -0.240  0.00  0.00    +0.147 HD
BRANCH  22  25
ATOM     24  N   UNL     1       7.043  -0.754  -0.719  0.00  0.00    -0.328 N 
ATOM     25  C   UNL     1       4.472  -0.150   0.062  0.00  0.00    +0.043 C 
ATOM     26  C   UNL     1       5.505  -0.263   1.007  0.00  0.00    +0.009 C 
ATOM     27  C   UNL     1       4.786  -0.353  -1.291  0.00  0.00    +0.030 C 
ATOM     28  C   UNL     1       6.791  -0.569   0.584  0.00  0.00    +0.115 C 
ATOM     29  C   UNL     1       6.090  -0.656  -1.655  0.00  0.00    +0.059 C 
ATOM     30  H   UNL     1       7.962  -0.970  -0.998  0.00  0.00    +0.147 HD
ENDBRANCH  22  25
ENDBRANCH  21  22
ENDBRANCH  20  21
ENDBRANCH  19  20
ENDBRANCH   2  19
TORSDOF 8
