REMARK  Name = 766948
REMARK  3 active torsions:
REMARK  status: ('A' for Active; 'I' for Inactive)
REMARK    1  A    between atoms: N_2  and  C_13
REMARK    2  A    between atoms: C_3  and  C_17
REMARK    3  A    between atoms: C_12  and  C_15
REMARK                            x       y       z     vdW  Elec       q    Type
REMARK                         _______ _______ _______ _____ _____    ______ ____
ROOT
ATOM      1  O   UNL     1      -1.368   2.165  -0.210  0.00  0.00    -0.270 OA
ATOM      2  N   UNL     1      -0.626  -0.058   0.046  0.00  0.00    -0.275 N 
ATOM      3  C   UNL     1      -1.597   0.968  -0.071  0.00  0.00    +0.252 C 
ATOM      4  H   UNL     1      -0.981  -0.969   0.152  0.00  0.00    +0.156 HD
ENDROOT
BRANCH   2  13
ATOM      5  S   UNL     1       1.381   1.624  -0.151  0.00  0.00    -0.076 S 
ATOM      6  C   UNL     1       5.515  -0.215  -0.316  0.00  0.00    +0.005 C 
ATOM      7  C   UNL     1       5.445   1.216   0.238  0.00  0.00    +0.006 C 
ATOM      8  C   UNL     1       4.336  -1.070   0.174  0.00  0.00    +0.027 C 
ATOM      9  C   UNL     1       4.165   1.939  -0.211  0.00  0.00    +0.033 C 
ATOM     10  C   UNL     1       3.036  -0.335   0.072  0.00  0.00    -0.009 A 
ATOM     11  C   UNL     1       2.978   1.038  -0.080  0.00  0.00    +0.005 A 
ATOM     12  C   UNL     1       1.730  -0.906   0.140  0.00  0.00    +0.084 A 
ATOM     13  C   UNL     1       0.740   0.047   0.031  0.00  0.00    +0.090 A 
BRANCH  12  15
ATOM     14  N   UNL     1       1.221  -3.428   0.442  0.00  0.00    -0.191 NA
ATOM     15  C   UNL     1       1.449  -2.299   0.307  0.00  0.00    +0.102 C 
ENDBRANCH  12  15
ENDBRANCH   2  13
BRANCH   3  17
ATOM     16  F   UNL     1      -2.446  -1.570  -0.922  0.00  0.00    -0.204 F 
ATOM     17  C   UNL     1      -3.018   0.539   0.009  0.00  0.00    +0.081 C 
ATOM     18  C   UNL     1      -3.361  -0.723  -0.428  0.00  0.00    +0.144 C 
ATOM     19  C   UNL     1      -3.948   1.420   0.520  0.00  0.00    +0.007 C 
ATOM     20  C   UNL     1      -4.695  -1.123  -0.350  0.00  0.00    +0.030 C 
ATOM     21  C   UNL     1      -5.282   1.020   0.598  0.00  0.00    +0.000 C 
ATOM     22  C   UNL     1      -5.655  -0.251   0.163  0.00  0.00    +0.002 C 
ENDBRANCH   3  17
TORSDOF 3
