REMARK  Name = 11840955
REMARK  6 active torsions:
REMARK  status: ('A' for Active; 'I' for Inactive)
REMARK    1  A    between atoms: N_4  and  C_10
REMARK    2  A    between atoms: N_4  and  O_21
REMARK    3  A    between atoms: C_5  and  C_6
REMARK    4  A    between atoms: O_21  and  C_22
REMARK    5  A    between atoms: C_22  and  C_24
REMARK    6  A    between atoms: C_24  and  O_25
REMARK                            x       y       z     vdW  Elec       q    Type
REMARK                         _______ _______ _______ _____ _____    ______ ____
ROOT
ATOM      1  N   UNL     1      -0.113   2.622   0.002  0.00  0.00    -0.403 NA
ATOM      2  C   UNL     1      -0.517   1.292   0.002  0.00  0.00    +0.149 C 
ATOM      3  C   UNL     1       1.766   1.259   0.001  0.00  0.00    +0.052 C 
ATOM      4  C   UNL     1       1.194   2.615   0.001  0.00  0.00    +0.133 C 
ATOM      5  C   UNL     1       0.632   0.330   0.002  0.00  0.00    +0.137 C 
ATOM      6  C   UNL     1       2.067   3.840   0.002  0.00  0.00    +0.032 C 
ATOM      7  C   UNL     1       3.085   1.074   0.001  0.00  0.00    +0.004 C 
ATOM      8  C   UNL     1       3.526   3.473   0.000  0.00  0.00    +0.003 C 
ATOM      9  C   UNL     1       3.981   2.209   0.000  0.00  0.00    +0.000 C 
ENDROOT
BRANCH   2  12
ATOM     10  O   UNL     1      -2.912   3.009   0.001  0.00  0.00    -0.213 OA
ATOM     11  N   UNL     1      -4.122   1.002  -0.002  0.00  0.00    -0.340 NA
ATOM     12  C   UNL     1      -1.784   0.871   0.002  0.00  0.00    +0.196 C 
ATOM     13  C   UNL     1      -2.315  -0.452   0.000  0.00  0.00    +0.027 C 
ATOM     14  C   UNL     1      -3.773  -0.256  -0.001  0.00  0.00    +0.123 C 
ATOM     15  C   UNL     1      -4.729  -1.418  -0.004  0.00  0.00    +0.086 C 
ATOM     16  C   UNL     1      -2.970   1.789   0.001  0.00  0.00    +0.190 C 
ATOM     17  C   UNL     1      -1.797  -1.680   0.001  0.00  0.00    -0.001 C 
ATOM     18  C   UNL     1      -3.998  -2.731  -0.003  0.00  0.00    -0.019 C 
ATOM     19  C   UNL     1      -2.659  -2.841  -0.001  0.00  0.00    -0.004 C 
ENDBRANCH   2  12
BRANCH   5  20
ATOM     20  N   UNL     1       0.616  -0.949   0.001  0.00  0.00    -0.128 NA
BRANCH  20  21
ATOM     21  O   UNL     1       1.940  -1.419  -0.001  0.00  0.00    -0.224 OA
BRANCH  21  22
ATOM     22  C   UNL     1       1.915  -2.838  -0.002  0.00  0.00    +0.284 C 
BRANCH  22  24
ATOM     23  O   UNL     1       4.341  -2.700  -0.027  0.00  0.00    -0.247 OA
ATOM     24  C   UNL     1       3.320  -3.372  -0.003  0.00  0.00    +0.347 C 
BRANCH  24  25
ATOM     25  O   UNL     1       3.306  -4.729   0.027  0.00  0.00    -0.478 OA
ATOM     26  H   UNL     1       2.490  -5.189   0.044  0.00  0.00    +0.295 HD
ENDBRANCH  24  25
ENDBRANCH  22  24
ENDBRANCH  21  22
ENDBRANCH  20  21
ENDBRANCH   5  20
TORSDOF 6
