REMARK  Name = 5288033
REMARK  7 active torsions:
REMARK  status: ('A' for Active; 'I' for Inactive)
REMARK    1  A    between atoms: C_5  and  C_14
REMARK    2  A    between atoms: C_6  and  O_12
REMARK    3  A    between atoms: C_14  and  C_15
REMARK    4  A    between atoms: C_15  and  C_16
REMARK    5  A    between atoms: C_16  and  C_17
REMARK    6  A    between atoms: C_17  and  C_18
REMARK    7  A    between atoms: C_18  and  C_19
REMARK                            x       y       z     vdW  Elec       q    Type
REMARK                         _______ _______ _______ _____ _____    ______ ____
ROOT
ATOM      1  S   UNL     1       4.923   0.167   0.932  0.00  0.00    -0.101 S 
ATOM      2  O   UNL     1       0.588   2.421  -0.551  0.00  0.00    -0.284 OA
ATOM      3  O   UNL     1       3.060   2.679   0.415  0.00  0.00    -0.287 OA
ATOM      4  N   UNL     1       3.647  -1.996   0.274  0.00  0.00    -0.258 NA
ATOM      5  C   UNL     1       0.706   0.024  -0.695  0.00  0.00    +0.054 C 
ATOM      6  C   UNL     1       1.500  -1.049  -0.474  0.00  0.00    +0.147 C 
ATOM      7  C   UNL     1       1.242   1.400  -0.382  0.00  0.00    +0.230 C 
ATOM      8  C   UNL     1       2.822  -0.920   0.042  0.00  0.00    +0.105 C 
ATOM      9  C   UNL     1       3.339   0.317   0.337  0.00  0.00    +0.157 C 
ATOM     10  C   UNL     1       2.647   1.556   0.169  0.00  0.00    +0.227 C 
ATOM     11  C   UNL     1       4.790  -1.542   0.748  0.00  0.00    +0.183 C 
ENDROOT
BRANCH   6  12
ATOM     12  O   UNL     1       1.136  -2.356  -0.716  0.00  0.00    -0.505 OA
ATOM     13  H   UNL     1       0.285  -2.549  -1.058  0.00  0.00    +0.292 HD
ENDBRANCH   6  12
BRANCH   5  14
ATOM     14  C   UNL     1      -0.686   0.003  -1.231  0.00  0.00    +0.033 C 
BRANCH  14  15
ATOM     15  C   UNL     1      -1.762  -0.020  -0.142  0.00  0.00    +0.005 C 
BRANCH  15  16
ATOM     16  C   UNL     1      -3.208  -0.102  -0.647  0.00  0.00    +0.000 C 
BRANCH  16  17
ATOM     17  C   UNL     1      -4.245  -0.102   0.478  0.00  0.00    +0.000 C 
BRANCH  17  18
ATOM     18  C   UNL     1      -5.669  -0.153  -0.082  0.00  0.00    +0.000 C 
BRANCH  18  19
ATOM     19  C   UNL     1      -6.708  -0.121   1.038  0.00  0.00    +0.000 C 
ATOM     20  C   UNL     1      -8.123  -0.205   0.487  0.00  0.00    +0.000 C 
ENDBRANCH  18  19
ENDBRANCH  17  18
ENDBRANCH  16  17
ENDBRANCH  15  16
ENDBRANCH  14  15
ENDBRANCH   5  14
TORSDOF 7
