REMARK  Name = 650361
REMARK  5 active torsions:
REMARK  status: ('A' for Active; 'I' for Inactive)
REMARK    1  A    between atoms: N_1  and  S_7
REMARK    2  A    between atoms: N_2  and  S_20
REMARK    3  A    between atoms: S_7  and  C_12
REMARK    4  A    between atoms: S_20  and  C_23
REMARK    5  A    between atoms: C_28  and  O_29
REMARK                            x       y       z     vdW  Elec       q    Type
REMARK                         _______ _______ _______ _____ _____    ______ ____
ROOT
ATOM      1  N   UNL     1      -0.377   1.282   0.336  0.00  0.00    -0.153 NA
ATOM      2  N   UNL     1       1.227  -1.072   0.569  0.00  0.00    -0.153 NA
ATOM      3  C   UNL     1      -0.317   0.292  -0.779  0.00  0.00    +0.115 C 
ATOM      4  C   UNL     1      -0.182   0.626   1.663  0.00  0.00    +0.115 C 
ATOM      5  C   UNL     1       1.033  -0.415  -0.757  0.00  0.00    +0.115 C 
ATOM      6  C   UNL     1       1.167  -0.082   1.685  0.00  0.00    +0.115 C 
ENDROOT
BRANCH   1   7
ATOM      7  S   UNL     1      -1.671   2.402   0.255  0.00  0.00    +0.063 S 
ATOM      8  O   UNL     1      -1.657   3.045  -1.042  0.00  0.00    -0.153 OA
ATOM      9  O   UNL     1      -1.695   3.181   1.474  0.00  0.00    -0.153 OA
BRANCH   7  12
ATOM     10  O   UNL     1      -5.102  -0.548  -2.069  0.00  0.00    -0.468 OA
ATOM     11  O   UNL     1      -6.309  -1.256   0.451  0.00  0.00    -0.468 OA
ATOM     12  C   UNL     1      -3.032   1.299   0.292  0.00  0.00    +0.125 C 
ATOM     13  C   UNL     1      -3.558   0.800  -0.900  0.00  0.00    +0.060 C 
ATOM     14  C   UNL     1      -3.592   0.926   1.514  0.00  0.00    +0.023 C 
ATOM     15  C   UNL     1      -4.644  -0.075  -0.867  0.00  0.00    +0.174 C 
ATOM     16  C   UNL     1      -5.222  -0.427   0.355  0.00  0.00    +0.172 C 
ATOM     17  C   UNL     1      -4.687   0.061   1.547  0.00  0.00    +0.041 C 
ATOM     18  C   UNL     1      -5.962  -1.679  -1.904  0.00  0.00    +0.253 C 
ATOM     19  C   UNL     1      -6.973  -1.414  -0.806  0.00  0.00    +0.253 C 
ENDBRANCH   7  12
ENDBRANCH   1   7
BRANCH   2  20
ATOM     20  S   UNL     1       2.522  -2.191   0.651  0.00  0.00    +0.063 S 
ATOM     21  O   UNL     1       2.378  -3.157  -0.417  0.00  0.00    -0.153 OA
ATOM     22  O   UNL     1       2.688  -2.616   2.024  0.00  0.00    -0.153 OA
BRANCH  20  23
ATOM     23  C   UNL     1       3.872  -1.130   0.242  0.00  0.00    +0.122 C 
ATOM     24  C   UNL     1       4.240  -0.982  -1.085  0.00  0.00    +0.023 C 
ATOM     25  C   UNL     1       4.542  -0.463   1.255  0.00  0.00    +0.023 C 
ATOM     26  C   UNL     1       5.307  -0.143  -1.408  0.00  0.00    +0.038 C 
ATOM     27  C   UNL     1       5.608   0.375   0.932  0.00  0.00    +0.038 C 
ATOM     28  C   UNL     1       5.991   0.535  -0.400  0.00  0.00    +0.139 C 
BRANCH  28  29
ATOM     29  O   UNL     1       7.032   1.354  -0.715  0.00  0.00    -0.471 OA
ATOM     30  C   UNL     1       7.370   1.472  -2.096  0.00  0.00    +0.252 C 
ENDBRANCH  28  29
ENDBRANCH  20  23
ENDBRANCH   2  20
TORSDOF 5
