REMARK  Name = 7075
REMARK  3 active torsions:
REMARK  status: ('A' for Active; 'I' for Inactive)
REMARK    1  A    between atoms: C_1  and  C_7
REMARK    2  A    between atoms: C_4  and  O_13
REMARK    3  A    between atoms: C_6  and  O_15
REMARK                            x       y       z     vdW  Elec       q    Type
REMARK                         _______ _______ _______ _____ _____    ______ ____
ROOT
ATOM      1  C   UNL     1       0.112   0.180  -0.001  0.00  0.00    +0.003 C 
ATOM      2  C   UNL     1       0.904  -0.969  -0.002  0.00  0.00    +0.040 C 
ATOM      3  C   UNL     1       0.711   1.439   0.000  0.00  0.00    +0.003 C 
ATOM      4  C   UNL     1       2.294  -0.858  -0.001  0.00  0.00    +0.167 C 
ATOM      5  C   UNL     1       2.102   1.550   0.001  0.00  0.00    +0.040 C 
ATOM      6  C   UNL     1       2.893   0.402   0.001  0.00  0.00    +0.167 C 
ENDROOT
BRANCH   1   7
ATOM      7  C   UNL     1      -1.330   0.065  -0.001  0.00  0.00    +0.000 C 
ATOM      8  C   UNL     1      -2.024   0.007   1.208  0.00  0.00    +0.000 C 
ATOM      9  C   UNL     1      -2.026   0.010  -1.208  0.00  0.00    +0.000 C 
ATOM     10  C   UNL     1      -3.415  -0.104   1.209  0.00  0.00    +0.000 C 
ATOM     11  C   UNL     1      -3.416  -0.101  -1.207  0.00  0.00    +0.000 C 
ATOM     12  C   UNL     1      -4.111  -0.158   0.001  0.00  0.00    +0.000 C 
ENDBRANCH   1   7
BRANCH   4  13
ATOM     13  O   UNL     1       3.056  -1.987  -0.001  0.00  0.00    -0.503 OA
ATOM     14  H   UNL     1       2.646  -2.829  -0.002  0.00  0.00    +0.292 HD
ENDBRANCH   4  13
BRANCH   6  15
ATOM     15  O   UNL     1       4.250   0.523   0.001  0.00  0.00    -0.503 OA
ATOM     16  H   UNL     1       4.789  -0.243   0.001  0.00  0.00    +0.292 HD
ENDBRANCH   6  15
TORSDOF 3
