REMARK  Name = 16129579
REMARK  9 active torsions:
REMARK  status: ('A' for Active; 'I' for Inactive)
REMARK    1  A    between atoms: S_1  and  C_4
REMARK    2  A    between atoms: S_1  and  C_17
REMARK    3  A    between atoms: C_9  and  O_10
REMARK    4  A    between atoms: O_10  and  C_11
REMARK    5  A    between atoms: C_17  and  C_18
REMARK    6  A    between atoms: C_18  and  C_22
REMARK    7  A    between atoms: C_18  and  C_25
REMARK    8  A    between atoms: C_18  and  N_29
REMARK    9  A    between atoms: N_24  and  O_27
REMARK                            x       y       z     vdW  Elec       q    Type
REMARK                         _______ _______ _______ _____ _____    ______ ____
ROOT
ATOM      1  S   UNL     1       1.415  -1.523  -0.291  0.00  0.00    +0.007 S 
ATOM      2  O   UNL     1       1.873  -2.680   0.457  0.00  0.00    -0.169 OA
ATOM      3  O   UNL     1       1.699  -1.410  -1.711  0.00  0.00    -0.169 OA
ENDROOT
BRANCH   1   4
ATOM      4  C   UNL     1      -0.338  -1.431  -0.077  0.00  0.00    +0.106 C 
ATOM      5  C   UNL     1      -1.103  -0.793  -1.039  0.00  0.00    +0.021 C 
ATOM      6  C   UNL     1      -0.912  -1.998   1.047  0.00  0.00    +0.021 C 
ATOM      7  C   UNL     1      -2.486  -0.721  -0.871  0.00  0.00    +0.039 C 
ATOM      8  C   UNL     1      -2.295  -1.925   1.215  0.00  0.00    +0.039 C 
ATOM      9  C   UNL     1      -3.082  -1.286   0.256  0.00  0.00    +0.145 C 
BRANCH   9  10
ATOM     10  O   UNL     1      -4.431  -1.216   0.420  0.00  0.00    -0.453 OA
BRANCH  10  11
ATOM     11  C   UNL     1      -5.047  -0.001   0.174  0.00  0.00    +0.145 C 
ATOM     12  C   UNL     1      -4.479   1.156   0.675  0.00  0.00    +0.037 C 
ATOM     13  C   UNL     1      -6.215   0.025  -0.567  0.00  0.00    +0.037 C 
ATOM     14  C   UNL     1      -5.099   2.381   0.428  0.00  0.00    +0.003 C 
ATOM     15  C   UNL     1      -6.835   1.250  -0.814  0.00  0.00    +0.003 C 
ATOM     16  C   UNL     1      -6.278   2.427  -0.317  0.00  0.00    +0.000 C 
ENDBRANCH  10  11
ENDBRANCH   9  10
ENDBRANCH   1   4
BRANCH   1  17
ATOM     17  C   UNL     1       2.018  -0.063   0.497  0.00  0.00    +0.153 C 
BRANCH  17  18
ATOM     18  C   UNL     1       3.547   0.105   0.455  0.00  0.00    +0.135 C 
BRANCH  18  22
ATOM     19  F   UNL     1       3.592   2.476   0.720  0.00  0.00    -0.172 F 
ATOM     20  F   UNL     1       5.362   1.380   1.357  0.00  0.00    -0.172 F 
ATOM     21  F   UNL     1       3.539   1.277   2.538  0.00  0.00    -0.172 F 
ATOM     22  C   UNL     1       4.016   1.316   1.272  0.00  0.00    +0.391 C 
ENDBRANCH  18  22
BRANCH  18  25
ATOM     23  O   UNL     1       4.450  -0.832  -1.600  0.00  0.00    -0.275 OA
ATOM     24  N   UNL     1       4.160   1.446  -1.501  0.00  0.00    -0.198 N 
ATOM     25  C   UNL     1       4.097   0.174  -0.983  0.00  0.00    +0.235 C 
ATOM     26  H   UNL     1       3.872   2.235  -0.988  0.00  0.00    +0.182 HD
BRANCH  24  27
ATOM     27  O   UNL     1       4.662   1.549  -2.806  0.00  0.00    -0.295 OA
ATOM     28  H   UNL     1       4.666   2.480  -3.078  0.00  0.00    +0.241 HD
ENDBRANCH  24  27
ENDBRANCH  18  25
BRANCH  18  29
ATOM     29  N   UNL     1       4.167  -1.084   1.063  0.00  0.00    +0.395 N 
ATOM     30  H   UNL     1       3.840  -1.184   2.024  0.00  0.00    -0.088 HD
ATOM     31  H   UNL     1       5.182  -0.978   1.059  0.00  0.00    -0.088 HD
ATOM     32  H   UNL     1       3.910  -1.913   0.528  0.00  0.00    -0.088 HD
ENDBRANCH  18  29
ENDBRANCH  17  18
ENDBRANCH   1  17
TORSDOF 9
