REMARK  Name = 5330197
REMARK  7 active torsions:
REMARK  status: ('A' for Active; 'I' for Inactive)
REMARK    1  A    between atoms: N_1  and  C_16
REMARK    2  A    between atoms: C_4  and  O_25
REMARK    3  A    between atoms: C_5  and  O_23
REMARK    4  A    between atoms: O_25  and  C_26
REMARK    5  A    between atoms: C_26  and  C_27
REMARK    6  A    between atoms: C_27  and  C_28
REMARK    7  A    between atoms: C_28  and  N_29
REMARK                            x       y       z     vdW  Elec       q    Type
REMARK                         _______ _______ _______ _____ _____    ______ ____
ROOT
ATOM      1  N   UNL     1      -3.321  -0.673   0.417  0.00  0.00    -0.295 N 
ATOM      2  N   UNL     1       0.035   1.284   1.845  0.00  0.00    -0.248 NA
ATOM      3  N   UNL     1      -2.358   1.102   1.625  0.00  0.00    -0.230 NA
ATOM      4  C   UNL     1       1.654  -1.492   0.088  0.00  0.00    +0.156 C 
ATOM      5  C   UNL     1       0.556  -2.182  -0.412  0.00  0.00    +0.169 C 
ATOM      6  C   UNL     1       1.467  -0.331   0.844  0.00  0.00    +0.112 C 
ATOM      7  C   UNL     1      -0.907  -0.541   0.606  0.00  0.00    +0.048 C 
ATOM      8  C   UNL     1       0.195   0.165   1.116  0.00  0.00    +0.066 C 
ATOM      9  C   UNL     1      -0.728  -1.709  -0.155  0.00  0.00    +0.044 C 
ATOM     10  C   UNL     1      -2.162  -0.015   0.899  0.00  0.00    +0.131 C 
ATOM     11  C   UNL     1      -1.233   1.692   2.059  0.00  0.00    +0.252 C 
ATOM     12  H   UNL     1      -3.214  -1.647   0.322  0.00  0.00    +0.154 HD
ENDROOT
BRANCH   1  16
ATOM     13 CL   UNL     1      -5.652  -2.600   0.815  0.00  0.00    -0.081 Cl
ATOM     14  O   UNL     1      -3.750   1.973  -0.662  0.00  0.00    -0.433 OA
ATOM     15  O   UNL     1      -5.908   2.827  -1.310  0.00  0.00    -0.435 OA
ATOM     16  C   UNL     1      -4.593  -0.205   0.051  0.00  0.00    +0.098 C 
ATOM     17  C   UNL     1      -4.746   1.067  -0.462  0.00  0.00    +0.190 C 
ATOM     18  C   UNL     1      -5.979   1.555  -0.832  0.00  0.00    +0.178 C 
ATOM     19  C   UNL     1      -5.739  -0.992   0.184  0.00  0.00    +0.074 C 
ATOM     20  C   UNL     1      -7.126   0.798  -0.710  0.00  0.00    +0.041 C 
ATOM     21  C   UNL     1      -4.494   3.085  -1.201  0.00  0.00    +0.429 C 
ATOM     22  C   UNL     1      -6.998  -0.494  -0.194  0.00  0.00    +0.016 C 
ENDBRANCH   1  16
BRANCH   5  23
ATOM     23  O   UNL     1       0.722  -3.315  -1.148  0.00  0.00    -0.469 OA
ATOM     24  C   UNL     1      -0.459  -3.961  -1.622  0.00  0.00    +0.253 C 
ENDBRANCH   5  23
BRANCH   4  25
ATOM     25  O   UNL     1       2.927  -1.940  -0.152  0.00  0.00    -0.476 OA
BRANCH  25  26
ATOM     26  C   UNL     1       3.991  -1.174   0.397  0.00  0.00    +0.203 C 
BRANCH  26  27
ATOM     27  C   UNL     1       5.312  -1.840   0.040  0.00  0.00    +0.025 C 
BRANCH  27  28
ATOM     28  C   UNL     1       6.500  -1.056   0.588  0.00  0.00    -0.074 C 
BRANCH  28  29
ATOM     29  N   UNL     1       6.502   0.305   0.052  0.00  0.00    +0.387 N 
ATOM     30  C   UNL     1       7.090   0.327  -1.294  0.00  0.00    -0.077 C 
ATOM     31  C   UNL     1       7.216   1.214   0.959  0.00  0.00    -0.077 C 
ATOM     32  C   UNL     1       7.054   1.735  -1.890  0.00  0.00    -0.023 C 
ATOM     33  C   UNL     1       7.184   2.651   0.437  0.00  0.00    -0.023 C 
ATOM     34  C   UNL     1       7.747   2.741  -0.977  0.00  0.00    -0.004 C 
ATOM     35  H   UNL     1       5.537   0.628  -0.022  0.00  0.00    -0.080 HD
ENDBRANCH  28  29
ENDBRANCH  27  28
ENDBRANCH  26  27
ENDBRANCH  25  26
ENDBRANCH   4  25
TORSDOF 7
