REMARK  Name = 5288082
REMARK  7 active torsions:
REMARK  status: ('A' for Active; 'I' for Inactive)
REMARK    1  A    between atoms: C_1  and  N_16
REMARK    2  A    between atoms: C_4  and  C_7
REMARK    3  A    between atoms: C_5  and  O_14
REMARK    4  A    between atoms: C_8  and  C_11
REMARK    5  A    between atoms: C_11  and  O_12
REMARK    6  A    between atoms: N_16  and  C_17
REMARK    7  A    between atoms: N_16  and  C_19
REMARK                            x       y       z     vdW  Elec       q    Type
REMARK                         _______ _______ _______ _____ _____    ______ ____
ROOT
ATOM      1  C   UNL     1      -2.005   0.123   0.048  0.00  0.00    +0.051 C 
ATOM      2  C   UNL     1      -1.305  -0.984   0.529  0.00  0.00    +0.051 C 
ATOM      3  C   UNL     1      -1.322   1.298  -0.263  0.00  0.00    +0.015 C 
ATOM      4  C   UNL     1       0.760   0.261   0.387  0.00  0.00    +0.034 C 
ATOM      5  C   UNL     1       0.077  -0.915   0.698  0.00  0.00    +0.135 C 
ATOM      6  C   UNL     1       0.060   1.367  -0.093  0.00  0.00    +0.004 C 
ENDROOT
BRANCH   4   7
ATOM      7  C   UNL     1       2.204   0.358   0.555  0.00  0.00    +0.005 C 
ATOM      8  C   UNL     1       3.131   0.057  -0.383  0.00  0.00    +0.054 C 
ATOM      9  C   UNL     1       2.839  -0.391  -1.786  0.00  0.00    +0.038 C 
BRANCH   8  11
ATOM     10  O   UNL     1       4.942   0.605   1.123  0.00  0.00    -0.245 OA
ATOM     11  C   UNL     1       4.555   0.225   0.028  0.00  0.00    +0.334 C 
BRANCH  11  12
ATOM     12  O   UNL     1       5.388  -0.110  -0.986  0.00  0.00    -0.477 OA
ATOM     13  H   UNL     1       5.037  -0.395  -1.806  0.00  0.00    +0.295 HD
ENDBRANCH  11  12
ENDBRANCH   8  11
ENDBRANCH   4   7
BRANCH   5  14
ATOM     14  O   UNL     1       0.737  -2.011   1.170  0.00  0.00    -0.505 OA
ATOM     15  H   UNL     1       0.262  -2.793   1.374  0.00  0.00    +0.292 HD
ENDBRANCH   5  14
BRANCH   1  16
ATOM     16  N   UNL     1      -3.403   0.053  -0.123  0.00  0.00    -0.307 N 
BRANCH  16  17
ATOM     17  C   UNL     1      -4.139   1.197  -0.623  0.00  0.00    +0.091 C 
ATOM     18  C   UNL     1      -4.397   2.183   0.501  0.00  0.00    +0.023 C 
ENDBRANCH  16  17
BRANCH  16  19
ATOM     19  C   UNL     1      -4.120  -1.169   0.184  0.00  0.00    +0.091 C 
ATOM     20  C   UNL     1      -4.001  -2.148  -0.968  0.00  0.00    +0.023 C 
ENDBRANCH  16  19
ENDBRANCH   1  16
TORSDOF 7
