REMARK  Name = 9547901
REMARK  4 active torsions:
REMARK  status: ('A' for Active; 'I' for Inactive)
REMARK    1  A    between atoms: N_3  and  C_17
REMARK    2  A    between atoms: C_6  and  C_11
REMARK    3  A    between atoms: C_18  and  O_23
REMARK    4  A    between atoms: C_21  and  O_25
REMARK                            x       y       z     vdW  Elec       q    Type
REMARK                         _______ _______ _______ _____ _____    ______ ____
ROOT
ATOM      1  O   UNL     1       0.953  -1.982   0.245  0.00  0.00    -0.252 OA
ATOM      2  O   UNL     1      -1.802  -2.354   0.284  0.00  0.00    -0.270 OA
ATOM      3  N   UNL     1       1.547   0.286   0.090  0.00  0.00    -0.265 N 
ATOM      4  N   UNL     1      -0.671  -0.323   0.145  0.00  0.00    -0.236 N 
ATOM      5  C   UNL     1       0.658  -0.792   0.169  0.00  0.00    +0.310 C 
ATOM      6  C   UNL     1      -1.832  -1.115   0.203  0.00  0.00    +0.253 C 
ATOM      7  H   UNL     1       1.140   1.180   0.032  0.00  0.00    +0.157 HD
ATOM      8  H   UNL     1      -0.799   0.651   0.081  0.00  0.00    +0.159 HD
ENDROOT
BRANCH   6  11
ATOM      9 CL   UNL     1      -3.810  -1.772  -2.058  0.00  0.00    -0.082 Cl
ATOM     10  F   UNL     1      -6.677   1.664   0.295  0.00  0.00    -0.204 F 
ATOM     11  C   UNL     1      -3.107  -0.409   0.197  0.00  0.00    +0.064 C 
ATOM     12  C   UNL     1      -4.072  -0.635  -0.784  0.00  0.00    +0.064 C 
ATOM     13  C   UNL     1      -3.348   0.517   1.212  0.00  0.00    +0.008 C 
ATOM     14  C   UNL     1      -5.278   0.065  -0.751  0.00  0.00    +0.041 C 
ATOM     15  C   UNL     1      -4.554   1.217   1.245  0.00  0.00    +0.030 C 
ATOM     16  C   UNL     1      -5.519   0.991   0.263  0.00  0.00    +0.141 C 
ENDBRANCH   6  11
BRANCH   3  17
ATOM     17  C   UNL     1       2.961   0.244   0.084  0.00  0.00    +0.089 C 
ATOM     18  C   UNL     1       3.689   1.421  -0.001  0.00  0.00    +0.152 C 
ATOM     19  C   UNL     1       3.592  -0.988   0.163  0.00  0.00    +0.054 C 
ATOM     20  C   UNL     1       5.083   1.364  -0.005  0.00  0.00    +0.041 C 
ATOM     21  C   UNL     1       4.985  -1.045   0.159  0.00  0.00    +0.135 C 
ATOM     22  C   UNL     1       5.731   0.131   0.074  0.00  0.00    +0.040 C 
BRANCH  18  23
ATOM     23  O   UNL     1       3.075   2.635  -0.079  0.00  0.00    -0.470 OA
ATOM     24  C   UNL     1       2.776   3.126  -1.384  0.00  0.00    +0.253 C 
ENDBRANCH  18  23
BRANCH  21  25
ATOM     25  O   UNL     1       5.618  -2.247   0.236  0.00  0.00    -0.505 OA
ATOM     26  H   UNL     1       5.118  -3.037   0.293  0.00  0.00    +0.292 HD
ENDBRANCH  21  25
ENDBRANCH   3  17
TORSDOF 4
