REMARK  Name = 446476
REMARK  4 active torsions:
REMARK  status: ('A' for Active; 'I' for Inactive)
REMARK    1  A    between atoms: C_3  and  N_14
REMARK    2  A    between atoms: C_3  and  C_19
REMARK    3  A    between atoms: C_4  and  C_8
REMARK    4  A    between atoms: C_19  and  C_20
REMARK                            x       y       z     vdW  Elec       q    Type
REMARK                         _______ _______ _______ _____ _____    ______ ____
ROOT
ATOM      1  C   UNL     1      -0.797   2.406  -0.494  0.00  0.00    -0.011 C 
ATOM      2  C   UNL     1      -2.631   1.294   0.130  0.00  0.00    +0.002 C 
ATOM      3  C   UNL     1      -0.206   1.180   0.263  0.00  0.00    +0.012 C 
ATOM      4  C   UNL     1      -1.489   0.449   0.781  0.00  0.00    +0.011 C 
ATOM      5  C   UNL     1      -2.015   1.778  -1.184  0.00  0.00    -0.001 C 
ATOM      6  C   UNL     1      -1.498   3.396   0.457  0.00  0.00    -0.002 C 
ATOM      7  C   UNL     1      -2.749   2.626   0.901  0.00  0.00    +0.000 C 
ENDROOT
BRANCH   4   8
ATOM      8  C   UNL     1      -1.609  -0.992   0.410  0.00  0.00    -0.024 C 
ATOM      9  C   UNL     1      -1.161  -1.976   1.290  0.00  0.00    -0.004 C 
ATOM     10  C   UNL     1      -2.170  -1.351  -0.815  0.00  0.00    -0.004 C 
ATOM     11  C   UNL     1      -1.273  -3.323   0.944  0.00  0.00    -0.000 C 
ATOM     12  C   UNL     1      -2.282  -2.698  -1.161  0.00  0.00    -0.000 C 
ATOM     13  C   UNL     1      -1.834  -3.684  -0.281  0.00  0.00    -0.000 C 
ENDBRANCH   4   8
BRANCH   3  14
ATOM     14  N   UNL     1       0.696   1.540   1.354  0.00  0.00    +0.388 N 
ATOM     15  H   UNL     1       0.185   2.075   2.056  0.00  0.00    -0.089 HD
ATOM     16  H   UNL     1       1.464   2.103   0.989  0.00  0.00    -0.089 HD
ATOM     17  H   UNL     1       1.070   0.691   1.780  0.00  0.00    -0.089 HD
ENDBRANCH   3  14
BRANCH   3  19
ATOM     18  O   UNL     1       0.195   0.010  -1.781  0.00  0.00    -0.293 OA
ATOM     19  C   UNL     1       0.651   0.398  -0.708  0.00  0.00    +0.155 C 
BRANCH  19  20
ATOM     20  C   UNL     1       2.066   0.099  -0.347  0.00  0.00    +0.033 C 
ATOM     21  C   UNL     1       2.343  -1.065   0.334  0.00  0.00    +0.003 C 
ATOM     22  C   UNL     1       3.045   0.998  -0.710  0.00  0.00    +0.003 C 
ATOM     23  C   UNL     1       3.667  -1.345   0.671  0.00  0.00    +0.000 C 
ATOM     24  C   UNL     1       4.369   0.717  -0.372  0.00  0.00    +0.000 C 
ATOM     25  C   UNL     1       4.680  -0.454   0.318  0.00  0.00    +0.000 C 
ENDBRANCH  19  20
ENDBRANCH   3  19
TORSDOF 4
