92745
  -OEChem-10051721043D

 55 58  0     1  0  0  0  0  0999 V2000
    5.4913    0.1691    0.4575 O   0  0  0  0  0  0  0  0  0  0  0  0
   -5.6432    0.2769   -1.6924 O   0  0  0  0  0  0  0  0  0  0  0  0
   -0.0060   -0.9430    0.4048 C   0  0  1  0  0  0  0  0  0  0  0  0
    1.3365   -0.9404   -0.3361 C   0  0  1  0  0  0  0  0  0  0  0  0
   -0.7556    0.3832    0.0832 C   0  0  1  0  0  0  0  0  0  0  0  0
    2.2449    0.2422    0.0630 C   0  0  2  0  0  0  0  0  0  0  0  0
   -2.1793    0.4675    0.7536 C   0  0  2  0  0  0  0  0  0  0  0  0
    0.1352    1.6305    0.3421 C   0  0  0  0  0  0  0  0  0  0  0  0
   -3.0017   -0.8452    0.4989 C   0  0  2  0  0  0  0  0  0  0  0  0
    1.5206    1.5396   -0.3221 C   0  0  0  0  0  0  0  0  0  0  0  0
    3.4820   -0.0899   -0.8003 C   0  0  2  0  0  0  0  0  0  0  0  0
   -0.8606   -2.1477    0.0008 C   0  0  0  0  0  0  0  0  0  0  0  0
    2.2567   -2.1499   -0.2112 C   0  0  0  0  0  0  0  0  0  0  0  0
   -2.1985   -2.1330    0.7227 C   0  0  0  0  0  0  0  0  0  0  0  0
    3.6216   -1.6227   -0.6901 C   0  0  0  0  0  0  0  0  0  0  0  0
   -2.9402    1.6990    0.1558 C   0  0  0  0  0  0  0  0  0  0  0  0
    2.6105    0.2716    1.5703 C   0  0  0  0  0  0  0  0  0  0  0  0
   -2.0692    0.6650    2.2854 C   0  0  0  0  0  0  0  0  0  0  0  0
   -3.6718   -0.8248   -0.8826 C   0  0  0  0  0  0  0  0  0  0  0  0
   -4.4401    1.4767    0.0004 C   0  0  0  0  0  0  0  0  0  0  0  0
    4.7311    0.6283   -0.3933 C   0  0  0  0  0  0  0  0  0  0  0  0
   -4.6764    0.3085   -0.9322 C   0  0  0  0  0  0  0  0  0  0  0  0
    5.0121    1.9384   -1.0783 C   0  0  0  0  0  0  0  0  0  0  0  0
    0.1758   -1.0124    1.4828 H   0  0  0  0  0  0  0  0  0  0  0  0
    1.1015   -0.8488   -1.4103 H   0  0  0  0  0  0  0  0  0  0  0  0
   -0.9270    0.3718   -1.0047 H   0  0  0  0  0  0  0  0  0  0  0  0
    0.2708    1.7864    1.4165 H   0  0  0  0  0  0  0  0  0  0  0  0
   -0.3614    2.5311   -0.0364 H   0  0  0  0  0  0  0  0  0  0  0  0
   -3.8218   -0.8821    1.2324 H   0  0  0  0  0  0  0  0  0  0  0  0
    1.3930    1.5944   -1.4109 H   0  0  0  0  0  0  0  0  0  0  0  0
    2.1107    2.4159   -0.0325 H   0  0  0  0  0  0  0  0  0  0  0  0
    3.2852    0.1467   -1.8552 H   0  0  0  0  0  0  0  0  0  0  0  0
   -0.3401   -3.0796    0.2504 H   0  0  0  0  0  0  0  0  0  0  0  0
   -1.0209   -2.1571   -1.0841 H   0  0  0  0  0  0  0  0  0  0  0  0
    1.9194   -2.9909   -0.8256 H   0  0  0  0  0  0  0  0  0  0  0  0
    2.3211   -2.5005    0.8248 H   0  0  0  0  0  0  0  0  0  0  0  0
   -2.7889   -3.0035    0.4121 H   0  0  0  0  0  0  0  0  0  0  0  0
   -2.0196   -2.2609    1.7979 H   0  0  0  0  0  0  0  0  0  0  0  0
    4.4081   -1.9529   -0.0036 H   0  0  0  0  0  0  0  0  0  0  0  0
    3.8667   -2.0424   -1.6730 H   0  0  0  0  0  0  0  0  0  0  0  0
   -2.5438    1.9312   -0.8420 H   0  0  0  0  0  0  0  0  0  0  0  0
   -2.7665    2.5947    0.7645 H   0  0  0  0  0  0  0  0  0  0  0  0
    3.2117    1.1573    1.8063 H   0  0  0  0  0  0  0  0  0  0  0  0
    1.7313    0.3122    2.2184 H   0  0  0  0  0  0  0  0  0  0  0  0
    3.1882   -0.6054    1.8792 H   0  0  0  0  0  0  0  0  0  0  0  0
   -1.5912    1.6150    2.5436 H   0  0  0  0  0  0  0  0  0  0  0  0
   -3.0622    0.6805    2.7497 H   0  0  0  0  0  0  0  0  0  0  0  0
   -1.4974   -0.1350    2.7643 H   0  0  0  0  0  0  0  0  0  0  0  0
   -4.2142   -1.7610   -1.0552 H   0  0  0  0  0  0  0  0  0  0  0  0
   -2.9473   -0.6858   -1.6905 H   0  0  0  0  0  0  0  0  0  0  0  0
   -4.9022    2.3695   -0.4340 H   0  0  0  0  0  0  0  0  0  0  0  0
   -4.9194    1.2709    0.9624 H   0  0  0  0  0  0  0  0  0  0  0  0
    5.0244    1.7951   -2.1617 H   0  0  0  0  0  0  0  0  0  0  0  0
    4.2591    2.6781   -0.8031 H   0  0  0  0  0  0  0  0  0  0  0  0
    5.9941    2.3074   -0.7683 H   0  0  0  0  0  0  0  0  0  0  0  0
  1 21  2  0  0  0  0
  2 22  2  0  0  0  0
  3  4  1  0  0  0  0
  3  5  1  0  0  0  0
  3 12  1  0  0  0  0
  3 24  1  0  0  0  0
  4  6  1  0  0  0  0
  4 13  1  0  0  0  0
  4 25  1  0  0  0  0
  5  7  1  0  0  0  0
  5  8  1  0  0  0  0
  5 26  1  0  0  0  0
  6 10  1  0  0  0  0
  6 11  1  0  0  0  0
  6 17  1  0  0  0  0
  7  9  1  0  0  0  0
  7 16  1  0  0  0  0
  7 18  1  0  0  0  0
  8 10  1  0  0  0  0
  8 27  1  0  0  0  0
  8 28  1  0  0  0  0
  9 14  1  0  0  0  0
  9 19  1  0  0  0  0
  9 29  1  0  0  0  0
 10 30  1  0  0  0  0
 10 31  1  0  0  0  0
 11 15  1  0  0  0  0
 11 21  1  0  0  0  0
 11 32  1  0  0  0  0
 12 14  1  0  0  0  0
 12 33  1  0  0  0  0
 12 34  1  0  0  0  0
 13 15  1  0  0  0  0
 13 35  1  0  0  0  0
 13 36  1  0  0  0  0
 14 37  1  0  0  0  0
 14 38  1  0  0  0  0
 15 39  1  0  0  0  0
 15 40  1  0  0  0  0
 16 20  1  0  0  0  0
 16 41  1  0  0  0  0
 16 42  1  0  0  0  0
 17 43  1  0  0  0  0
 17 44  1  0  0  0  0
 17 45  1  0  0  0  0
 18 46  1  0  0  0  0
 18 47  1  0  0  0  0
 18 48  1  0  0  0  0
 19 22  1  0  0  0  0
 19 49  1  0  0  0  0
 19 50  1  0  0  0  0
 20 22  1  0  0  0  0
 20 51  1  0  0  0  0
 20 52  1  0  0  0  0
 21 23  1  0  0  0  0
 23 53  1  0  0  0  0
 23 54  1  0  0  0  0
 23 55  1  0  0  0  0
M  END
> <DATABASE_ID>
DB07557

> <DATABASE_NAME>
drugbank

> <ORIGINAL_SOURCE>
PUBCHEM

> <ORIGINAL_SOURCE_URL>
https://pubchem.ncbi.nlm.nih.gov/rest/pug/compound/inchikey/XMRPGKVKISIQBV-XWOJZHJZSA-N/SDF?record_type=3d

> <SMILES>
[H][C@@]1(CC[C@@]2([H])[C@]3([H])CC[C@]4([H])CC(=O)CC[C@]4(C)[C@@]3([H])CC[C@]12C)C(C)=O

> <INCHI_IDENTIFIER>
InChI=1S/C21H32O2/c1-13(22)17-6-7-18-16-5-4-14-12-15(23)8-10-20(14,2)19(16)9-11-21(17,18)3/h14,16-19H,4-12H2,1-3H3/t14-,16+,17-,18+,19+,20+,21-/m1/s1

> <INCHI_KEY>
XMRPGKVKISIQBV-XWOJZHJZSA-N

> <FORMULA>
C21H32O2

> <MOLECULAR_WEIGHT>
316.4776

> <EXACT_MASS>
316.240230268

> <JCHEM_ACCEPTOR_COUNT>
2

> <JCHEM_AVERAGE_POLARIZABILITY>
37.74451451251674

> <JCHEM_BIOAVAILABILITY>
1

> <JCHEM_DONOR_COUNT>
0

> <JCHEM_FORMAL_CHARGE>
0

> <JCHEM_GHOSE_FILTER>
1

> <JCHEM_IUPAC>
(1S,2S,7R,10R,11S,14S,15S)-14-acetyl-2,15-dimethyltetracyclo[8.7.0.0²,⁷.0¹¹,¹⁵]heptadecan-5-one

> <ALOGPS_LOGP>
4.06

> <JCHEM_LOGP>
4.194438735666669

> <ALOGPS_LOGS>
-5.39

> <JCHEM_MDDR_LIKE_RULE>
0

> <JCHEM_NUMBER_OF_RINGS>
4

> <JCHEM_PHYSIOLOGICAL_CHARGE>
0

> <JCHEM_PKA_STRONGEST_ACIDIC>
19.343395658319462

> <JCHEM_PKA_STRONGEST_BASIC>
-7.053949180108259

> <JCHEM_POLAR_SURFACE_AREA>
34.14

> <JCHEM_REFRACTIVITY>
91.87859999999999

> <JCHEM_ROTATABLE_BOND_COUNT>
1

> <JCHEM_RULE_OF_FIVE>
1

> <ALOGPS_SOLUBILITY>
1.29e-03 g/l

> <JCHEM_TRADITIONAL_IUPAC>
(5β)-pregnane-3,20-dione

> <JCHEM_VEBER_RULE>
1

> <DRUGBANK_ID>
DB07557

> <DRUG_GROUPS>
experimental

> <GENERIC_NAME>
(5BETA)-PREGNANE-3,20-DIONE

$$$$
