REMARK  Name = 644213
REMARK  3 active torsions:
REMARK  status: ('A' for Active; 'I' for Inactive)
REMARK    1  A    between atoms: C_2  and  C_10
REMARK    2  A    between atoms: C_4  and  N_20
REMARK    3  A    between atoms: N_9  and  C_12
REMARK                            x       y       z     vdW  Elec       q    Type
REMARK                         _______ _______ _______ _____ _____    ______ ____
ROOT
ATOM      1 CL   UNL     1      -0.841  -3.381   0.534  0.00  0.00    -0.082 Cl
ATOM      2  C   UNL     1      -0.971  -0.738  -0.129  0.00  0.00    +0.066 C 
ATOM      3  C   UNL     1      -1.655   0.465  -0.296  0.00  0.00    +0.029 C 
ATOM      4  C   UNL     1      -3.021   0.535  -0.020  0.00  0.00    +0.143 C 
ATOM      5  C   UNL     1      -1.651  -1.872   0.315  0.00  0.00    +0.062 C 
ATOM      6  C   UNL     1      -3.701  -0.599   0.424  0.00  0.00    +0.025 C 
ATOM      7  C   UNL     1      -3.017  -1.802   0.591  0.00  0.00    +0.013 C 
ENDROOT
BRANCH   2  10
ATOM      8  O   UNL     1       0.867  -1.535  -1.312  0.00  0.00    -0.270 OA
ATOM      9  N   UNL     1       1.250   0.122   0.304  0.00  0.00    -0.280 N 
ATOM     10  C   UNL     1       0.455  -0.765  -0.431  0.00  0.00    +0.250 C 
ATOM     11  H   UNL     1       0.776   0.670   0.971  0.00  0.00    +0.155 HD
BRANCH   9  12
ATOM     12  C   UNL     1       2.648   0.334   0.213  0.00  0.00    +0.051 C 
ATOM     13  C   UNL     1       3.384  -0.399  -0.702  0.00  0.00    +0.015 C 
ATOM     14  C   UNL     1       3.245   1.269   1.040  0.00  0.00    +0.015 C 
ATOM     15  C   UNL     1       4.760  -0.190  -0.792  0.00  0.00    +0.001 C 
ATOM     16  C   UNL     1       4.621   1.478   0.950  0.00  0.00    +0.001 C 
ATOM     17  C   UNL     1       5.379   0.749   0.033  0.00  0.00    +0.000 C 
ENDBRANCH   9  12
ENDBRANCH   2  10
BRANCH   4  20
ATOM     18  O   UNL     1      -4.947   1.800   0.061  0.00  0.00    -0.126 OA
ATOM     19  O   UNL     1      -3.088   2.768  -0.591  0.00  0.00    -0.126 OA
ATOM     20  N   UNL     1      -3.719   1.760  -0.192  0.00  0.00    +0.058 N 
ENDBRANCH   4  20
TORSDOF 3
