REMARK  Name = 9886249
REMARK  2 active torsions:
REMARK  status: ('A' for Active; 'I' for Inactive)
REMARK    1  A    between atoms: C_16  and  C_25
REMARK    2  A    between atoms: C_29  and  C_31
REMARK                            x       y       z     vdW  Elec       q    Type
REMARK                         _______ _______ _______ _____ _____    ______ ____
ROOT
ATOM      1  F   UNL     1      -3.888   1.894   2.597  0.00  0.00    -0.203 F 
ATOM      2  F   UNL     1      -5.538   0.178  -2.320  0.00  0.00    -0.204 F 
ATOM      3  O   UNL     1       3.105  -2.563   1.538  0.00  0.00    -0.270 OA
ATOM      4  N   UNL     1       1.426  -1.532   0.274  0.00  0.00    -0.276 N 
ATOM      5  N   UNL     1      -2.288   0.100   1.234  0.00  0.00    -0.316 N 
ATOM      6  N   UNL     1      -1.905  -1.280  -0.820  0.00  0.00    -0.242 NA
ATOM      7  N   UNL     1      -3.539  -1.506  -2.428  0.00  0.00    -0.343 N 
ATOM      8  C   UNL     1      -1.370  -0.662   0.403  0.00  0.00    +0.145 C 
ATOM      9  C   UNL     1      -0.804  -1.808   1.278  0.00  0.00    +0.063 C 
ATOM     10  C   UNL     1      -0.216   0.282  -0.016  0.00  0.00    +0.063 C 
ATOM     11  C   UNL     1       0.398  -2.504   0.639  0.00  0.00    +0.097 C 
ATOM     12  C   UNL     1       0.973  -0.465  -0.624  0.00  0.00    +0.097 C 
ATOM     13  C   UNL     1      -3.469   0.555   0.679  0.00  0.00    +0.078 C 
ATOM     14  C   UNL     1      -3.066  -0.922  -1.276  0.00  0.00    +0.126 C 
ATOM     15  C   UNL     1      -3.904   0.097  -0.572  0.00  0.00    +0.074 C 
ATOM     16  C   UNL     1       2.719  -1.672   0.783  0.00  0.00    +0.251 C 
ATOM     17  C   UNL     1      -4.266   1.471   1.381  0.00  0.00    +0.153 C 
ATOM     18  C   UNL     1      -5.102   0.579  -1.119  0.00  0.00    +0.144 C 
ATOM     19  C   UNL     1      -5.460   1.944   0.839  0.00  0.00    +0.033 C 
ATOM     20  C   UNL     1      -5.874   1.502  -0.412  0.00  0.00    +0.032 C 
ATOM     21  H   UNL     1      -2.072   0.289   2.176  0.00  0.00    +0.148 HD
ATOM     22  H   UNL     1      -2.995  -2.178  -2.899  0.00  0.00    +0.144 HD
ATOM     23  H   UNL     1      -4.422  -1.252  -2.782  0.00  0.00    +0.144 HD
ENDROOT
BRANCH  16  25
ATOM     24  N   UNL     1       5.444   0.022  -1.144  0.00  0.00    -0.233 NA
ATOM     25  C   UNL     1       3.722  -0.674   0.394  0.00  0.00    +0.073 C 
ATOM     26  C   UNL     1       3.908   0.475   1.147  0.00  0.00    +0.008 C 
ATOM     27  C   UNL     1       4.503  -0.856  -0.731  0.00  0.00    +0.104 C 
ATOM     28  C   UNL     1       4.867   1.403   0.755  0.00  0.00    +0.030 C 
ATOM     29  C   UNL     1       5.601   1.133  -0.388  0.00  0.00    +0.149 C 
BRANCH  29  31
ATOM     30  N   UNL     1       7.419   2.772  -1.237  0.00  0.00    -0.189 NA
ATOM     31  C   UNL     1       6.602   2.035  -0.855  0.00  0.00    +0.120 C 
ENDBRANCH  29  31
ENDBRANCH  16  25
TORSDOF 2
