17749728
  -OEChem-10051721013D

 53 56  0     1  0  0  0  0  0999 V2000
   -0.0390    1.7278   -2.8650 Cl  0  0  0  0  0  0  0  0  0  0  0  0
    3.4573   -0.5600    1.3088 S   0  0  0  0  0  0  0  0  0  0  0  0
    2.8800    0.1084    2.4690 O   0  0  0  0  0  0  0  0  0  0  0  0
    4.5760   -1.4710    1.5216 O   0  0  0  0  0  0  0  0  0  0  0  0
   -3.1194   -3.2729   -0.6939 O   0  0  0  0  0  0  0  0  0  0  0  0
   -2.2733    1.1211    1.2281 N   0  0  0  0  0  0  0  0  0  0  0  0
   -0.8814   -3.4272   -1.3263 N   0  0  0  0  0  0  0  0  0  0  0  0
    3.9905    0.6632    0.1842 N   0  0  2  0  0  0  0  0  0  0  0  0
   -2.3096   -1.3791    1.4530 C   0  0  0  0  0  0  0  0  0  0  0  0
   -2.9127   -0.0689    0.9975 C   0  0  0  0  0  0  0  0  0  0  0  0
   -1.4226   -2.0418    0.4687 C   0  0  0  0  0  0  0  0  0  0  0  0
   -4.0886    0.2055    0.3345 C   0  0  0  0  0  0  0  0  0  0  0  0
   -0.1021   -1.9673    0.2988 C   0  0  0  0  0  0  0  0  0  0  0  0
   -4.1585    1.6098    0.1605 C   0  0  0  0  0  0  0  0  0  0  0  0
   -3.0231    2.1508    0.7223 C   0  0  0  0  0  0  0  0  0  0  0  0
    0.1687   -2.8551   -0.8367 C   0  0  0  0  0  0  0  0  0  0  0  0
    2.2073   -1.4265    0.5058 C   0  0  0  0  0  0  0  0  0  0  0  0
    0.9531   -1.2574    0.9557 C   0  0  0  0  0  0  0  0  0  0  0  0
   -1.9412   -2.9764   -0.5670 C   0  0  0  0  0  0  0  0  0  0  0  0
   -5.0900   -0.7849   -0.1117 C   0  0  0  0  0  0  0  0  0  0  0  0
    1.5729   -2.9878   -1.2770 C   0  0  0  0  0  0  0  0  0  0  0  0
    2.5155   -2.2945   -0.6167 C   0  0  0  0  0  0  0  0  0  0  0  0
   -5.2468    2.3582   -0.5013 C   0  0  0  0  0  0  0  0  0  0  0  0
   -2.5670    3.5500    0.8332 C   0  0  0  0  0  0  0  0  0  0  0  0
    2.9682    1.6029   -0.2301 C   0  0  0  0  0  0  0  0  0  0  0  0
    4.9396    0.2217   -0.8725 C   0  0  0  0  0  0  0  0  0  0  0  0
    2.0618    1.2530   -1.2308 C   0  0  0  0  0  0  0  0  0  0  0  0
    2.8923    2.8589    0.3717 C   0  0  0  0  0  0  0  0  0  0  0  0
    1.0791    2.1592   -1.6295 C   0  0  0  0  0  0  0  0  0  0  0  0
    1.9098    3.7652   -0.0271 C   0  0  0  0  0  0  0  0  0  0  0  0
    1.0032    3.4152   -1.0277 C   0  0  0  0  0  0  0  0  0  0  0  0
   -1.7508   -1.1968    2.3812 H   0  0  0  0  0  0  0  0  0  0  0  0
   -3.1136   -2.0651    1.7473 H   0  0  0  0  0  0  0  0  0  0  0  0
   -1.3830    1.2221    1.6965 H   0  0  0  0  0  0  0  0  0  0  0  0
    0.6842   -0.6130    1.7836 H   0  0  0  0  0  0  0  0  0  0  0  0
   -6.0986   -0.3588   -0.1061 H   0  0  0  0  0  0  0  0  0  0  0  0
   -5.1116   -1.6634    0.5400 H   0  0  0  0  0  0  0  0  0  0  0  0
   -4.8691   -1.1150   -1.1316 H   0  0  0  0  0  0  0  0  0  0  0  0
    1.8068   -3.6405   -2.1082 H   0  0  0  0  0  0  0  0  0  0  0  0
    3.5518   -2.4017   -0.9183 H   0  0  0  0  0  0  0  0  0  0  0  0
   -5.5114    1.8948   -1.4576 H   0  0  0  0  0  0  0  0  0  0  0  0
   -4.9644    3.3954   -0.7076 H   0  0  0  0  0  0  0  0  0  0  0  0
   -6.1395    2.3719    0.1323 H   0  0  0  0  0  0  0  0  0  0  0  0
   -2.3902    3.9739   -0.1607 H   0  0  0  0  0  0  0  0  0  0  0  0
   -1.6356    3.6328    1.4031 H   0  0  0  0  0  0  0  0  0  0  0  0
   -3.3223    4.1614    1.3374 H   0  0  0  0  0  0  0  0  0  0  0  0
    5.7679   -0.3423   -0.4352 H   0  0  0  0  0  0  0  0  0  0  0  0
    5.3788    1.1018   -1.3555 H   0  0  0  0  0  0  0  0  0  0  0  0
    4.4502   -0.3814   -1.6396 H   0  0  0  0  0  0  0  0  0  0  0  0
    2.1261    0.2917   -1.7309 H   0  0  0  0  0  0  0  0  0  0  0  0
    3.5941    3.1403    1.1524 H   0  0  0  0  0  0  0  0  0  0  0  0
    1.8501    4.7427    0.4422 H   0  0  0  0  0  0  0  0  0  0  0  0
    0.2422    4.1311   -1.3276 H   0  0  0  0  0  0  0  0  0  0  0  0
  1 29  1  0  0  0  0
  2  3  2  0  0  0  0
  2  4  2  0  0  0  0
  2  8  1  0  0  0  0
  2 17  1  0  0  0  0
  5 19  2  0  0  0  0
  6 10  1  0  0  0  0
  6 15  1  0  0  0  0
  6 34  1  0  0  0  0
  7 16  2  0  0  0  0
  7 19  1  0  0  0  0
  8 25  1  0  0  0  0
  8 26  1  0  0  0  0
  9 10  1  0  0  0  0
  9 11  1  0  0  0  0
  9 32  1  0  0  0  0
  9 33  1  0  0  0  0
 10 12  2  0  0  0  0
 11 13  2  0  0  0  0
 11 19  1  0  0  0  0
 12 14  1  0  0  0  0
 12 20  1  0  0  0  0
 13 16  1  0  0  0  0
 13 18  1  0  0  0  0
 14 15  2  0  0  0  0
 14 23  1  0  0  0  0
 15 24  1  0  0  0  0
 16 21  1  0  0  0  0
 17 18  2  0  0  0  0
 17 22  1  0  0  0  0
 18 35  1  0  0  0  0
 20 36  1  0  0  0  0
 20 37  1  0  0  0  0
 20 38  1  0  0  0  0
 21 22  2  0  0  0  0
 21 39  1  0  0  0  0
 22 40  1  0  0  0  0
 23 41  1  0  0  0  0
 23 42  1  0  0  0  0
 23 43  1  0  0  0  0
 24 44  1  0  0  0  0
 24 45  1  0  0  0  0
 24 46  1  0  0  0  0
 25 27  2  0  0  0  0
 25 28  1  0  0  0  0
 26 47  1  0  0  0  0
 26 48  1  0  0  0  0
 26 49  1  0  0  0  0
 27 29  1  0  0  0  0
 27 50  1  0  0  0  0
 28 30  2  0  0  0  0
 28 51  1  0  0  0  0
 29 31  2  0  0  0  0
 30 31  1  0  0  0  0
 30 52  1  0  0  0  0
 31 53  1  0  0  0  0
M  END
> <DATABASE_ID>
DB07369

> <DATABASE_NAME>
drugbank

> <ORIGINAL_SOURCE>
PUBCHEM

> <ORIGINAL_SOURCE_URL>
https://pubchem.ncbi.nlm.nih.gov/rest/pug/compound/inchikey/YMJLSOJLEXWATP-UHFFFAOYSA-N/SDF?record_type=3d

> <SMILES>
CN(C1=CC(Cl)=CC=C1)S(=O)(=O)C1=CC2=C(CC3=C(C)C(C)=C(C)N3)C(=O)N=C2C=C1

> <INCHI_IDENTIFIER>
InChI=1S/C23H22ClN3O3S/c1-13-14(2)22(25-15(13)3)12-20-19-11-18(8-9-21(19)26-23(20)28)31(29,30)27(4)17-7-5-6-16(24)10-17/h5-11,25H,12H2,1-4H3

> <INCHI_KEY>
YMJLSOJLEXWATP-UHFFFAOYSA-N

> <FORMULA>
C23H22ClN3O3S

> <MOLECULAR_WEIGHT>
455.957

> <EXACT_MASS>
455.107039982

> <JCHEM_ACCEPTOR_COUNT>
4

> <JCHEM_AVERAGE_POLARIZABILITY>
46.423659034722654

> <JCHEM_BIOAVAILABILITY>
1

> <JCHEM_DONOR_COUNT>
1

> <JCHEM_FORMAL_CHARGE>
0

> <JCHEM_GHOSE_FILTER>
1

> <JCHEM_IUPAC>
N-(3-chlorophenyl)-N-methyl-2-oxo-3-[(3,4,5-trimethyl-1H-pyrrol-2-yl)methyl]-2H-indole-5-sulfonamide

> <ALOGPS_LOGP>
3.50

> <JCHEM_LOGP>
3.7664637873333335

> <ALOGPS_LOGS>
-5.60

> <JCHEM_MDDR_LIKE_RULE>
0

> <JCHEM_NUMBER_OF_RINGS>
4

> <JCHEM_PHYSIOLOGICAL_CHARGE>
0

> <JCHEM_PKA_STRONGEST_ACIDIC>
18.21022104872834

> <JCHEM_PKA_STRONGEST_BASIC>
-0.06122652554436625

> <JCHEM_POLAR_SURFACE_AREA>
82.6

> <JCHEM_REFRACTIVITY>
126.45069999999998

> <JCHEM_ROTATABLE_BOND_COUNT>
4

> <JCHEM_RULE_OF_FIVE>
1

> <ALOGPS_SOLUBILITY>
1.14e-03 g/l

> <JCHEM_TRADITIONAL_IUPAC>
N-(3-chlorophenyl)-N-methyl-2-oxo-3-[(3,4,5-trimethyl-1H-pyrrol-2-yl)methyl]indole-5-sulfonamide

> <JCHEM_VEBER_RULE>
0

> <DRUGBANK_ID>
DB07369

> <DRUG_GROUPS>
experimental

> <GENERIC_NAME>
N-(3-chlorophenyl)-N-methyl-2-oxo-3-[(3,4,5-trimethyl-1H-pyrrol-2-yl)methyl]-2H-indole-5-sulfonamide

$$$$
