REMARK  Name = 9547958
REMARK  8 active torsions:
REMARK  status: ('A' for Active; 'I' for Inactive)
REMARK    1  A    between atoms: C_3  and  C_7
REMARK    2  A    between atoms: C_4  and  O_19
REMARK    3  A    between atoms: C_6  and  C_16
REMARK    4  A    between atoms: C_12  and  O_13
REMARK    5  A    between atoms: C_16  and  O_17
REMARK    6  A    between atoms: O_19  and  C_20
REMARK    7  A    between atoms: C_20  and  C_22
REMARK    8  A    between atoms: C_22  and  O_23
REMARK                            x       y       z     vdW  Elec       q    Type
REMARK                         _______ _______ _______ _____ _____    ______ ____
ROOT
ATOM      1 BR   UNL     1       0.099  -2.415  -0.676  0.00  0.00    -0.045 Br
ATOM      2  S   UNL     1       0.443   1.903   0.180  0.00  0.00    -0.077 S 
ATOM      3  C   UNL     1       0.987   0.298  -0.080  0.00  0.00    +0.039 A 
ATOM      4  C   UNL     1      -1.320   0.102  -0.318  0.00  0.00    +0.158 A 
ATOM      5  C   UNL     1      -0.060  -0.563  -0.335  0.00  0.00    +0.075 A 
ATOM      6  C   UNL     1      -1.192   1.447  -0.049  0.00  0.00    +0.139 A 
ENDROOT
BRANCH   3   7
ATOM      7  C   UNL     1       2.404   0.040  -0.006  0.00  0.00    +0.007 C 
ATOM      8  C   UNL     1       3.192   0.141  -1.153  0.00  0.00    +0.004 C 
ATOM      9  C   UNL     1       2.987  -0.311   1.212  0.00  0.00    +0.004 C 
ATOM     10  C   UNL     1       4.562  -0.109  -1.082  0.00  0.00    +0.037 C 
ATOM     11  C   UNL     1       4.357  -0.561   1.283  0.00  0.00    +0.037 C 
ATOM     12  C   UNL     1       5.145  -0.460   0.136  0.00  0.00    +0.134 C 
BRANCH  12  13
ATOM     13  O   UNL     1       6.482  -0.705   0.205  0.00  0.00    -0.506 OA
ATOM     14  H   UNL     1       7.011  -0.637  -0.565  0.00  0.00    +0.292 HD
ENDBRANCH  12  13
ENDBRANCH   3   7
BRANCH   6  16
ATOM     15  O   UNL     1      -2.048   3.658   0.299  0.00  0.00    -0.244 OA
ATOM     16  C   UNL     1      -2.205   2.448   0.054  0.00  0.00    +0.347 C 
BRANCH  16  17
ATOM     17  O   UNL     1      -3.469   1.954  -0.150  0.00  0.00    -0.477 OA
ATOM     18  H   UNL     1      -3.592   1.043  -0.335  0.00  0.00    +0.295 HD
ENDBRANCH  16  17
ENDBRANCH   6  16
BRANCH   4  19
ATOM     19  O   UNL     1      -2.518  -0.474  -0.533  0.00  0.00    -0.463 OA
BRANCH  19  20
ATOM     20  C   UNL     1      -3.217  -0.998   0.603  0.00  0.00    +0.314 C 
BRANCH  20  22
ATOM     21  O   UNL     1      -4.941  -1.644  -0.983  0.00  0.00    -0.246 OA
ATOM     22  C   UNL     1      -4.517  -1.611   0.163  0.00  0.00    +0.359 C 
BRANCH  22  23
ATOM     23  O   UNL     1      -5.172  -2.137   1.229  0.00  0.00    -0.478 OA
ATOM     24  H   UNL     1      -4.795  -2.080   2.085  0.00  0.00    +0.295 HD
ENDBRANCH  22  23
ENDBRANCH  20  22
ENDBRANCH  19  20
ENDBRANCH   4  19
TORSDOF 8
