REMARK  Name = 11840927
REMARK  5 active torsions:
REMARK  status: ('A' for Active; 'I' for Inactive)
REMARK    1  A    between atoms: C_7  and  C_12
REMARK    2  A    between atoms: C_12  and  C_13
REMARK    3  A    between atoms: C_13  and  C_14
REMARK    4  A    between atoms: C_14  and  C_15
REMARK    5  A    between atoms: C_15  and  C_17
REMARK                            x       y       z     vdW  Elec       q    Type
REMARK                         _______ _______ _______ _____ _____    ______ ____
ROOT
ATOM      1  S   UNL     1      -1.929   1.928   1.150  0.00  0.00    -0.138 S 
ATOM      2  O   UNL     1      -2.695  -2.760   0.699  0.00  0.00    -0.253 OA
ATOM      3  N   UNL     1      -1.276  -1.076  -0.101  0.00  0.00    -0.288 N 
ATOM      4  N   UNL     1      -3.502  -0.777  -0.253  0.00  0.00    -0.288 N 
ATOM      5  C   UNL     1      -1.416   0.200  -0.777  0.00  0.00    +0.102 C 
ATOM      6  C   UNL     1      -2.942   0.440  -0.808  0.00  0.00    +0.103 C 
ATOM      7  C   UNL     1      -0.719   1.369  -0.077  0.00  0.00    +0.067 C 
ATOM      8  C   UNL     1      -3.319   1.660   0.028  0.00  0.00    +0.079 C 
ATOM      9  C   UNL     1      -2.513  -1.667   0.180  0.00  0.00    +0.301 C 
ATOM     10  H   UNL     1      -0.409  -1.480   0.133  0.00  0.00    +0.151 HD
ATOM     11  H   UNL     1      -4.468  -0.956  -0.187  0.00  0.00    +0.151 HD
ENDROOT
BRANCH   7  12
ATOM     12  C   UNL     1       0.628   1.052   0.552  0.00  0.00    +0.013 C 
BRANCH  12  13
ATOM     13  C   UNL     1       1.643   0.593  -0.496  0.00  0.00    +0.001 C 
BRANCH  13  14
ATOM     14  C   UNL     1       2.989   0.247   0.148  0.00  0.00    +0.008 C 
BRANCH  14  15
ATOM     15  C   UNL     1       4.015  -0.241  -0.871  0.00  0.00    +0.072 C 
BRANCH  15  17
ATOM     16  O   UNL     1       5.659  -0.446   0.908  0.00  0.00    -0.288 OA
ATOM     17  C   UNL     1       5.378  -0.523  -0.283  0.00  0.00    +0.207 C 
ENDBRANCH  15  17
ENDBRANCH  14  15
ENDBRANCH  13  14
ENDBRANCH  12  13
ENDBRANCH   7  12
TORSDOF 5
