REMARK  Name = 123979
REMARK  8 active torsions:
REMARK  status: ('A' for Active; 'I' for Inactive)
REMARK    1  A    between atoms: C_2  and  C_11
REMARK    2  A    between atoms: C_4  and  C_14
REMARK    3  A    between atoms: C_5  and  C_8
REMARK    4  A    between atoms: C_8  and  O_9
REMARK    5  A    between atoms: C_11  and  C_12
REMARK    6  A    between atoms: C_14  and  C_15
REMARK    7  A    between atoms: C_15  and  C_17
REMARK    8  A    between atoms: C_17  and  O_18
REMARK                            x       y       z     vdW  Elec       q    Type
REMARK                         _______ _______ _______ _____ _____    ______ ____
ROOT
ATOM      1  O   UNL     1      -0.685  -0.879   0.751  0.00  0.00    -0.462 OA
ATOM      2  C   UNL     1      -1.874  -0.298   0.443  0.00  0.00    +0.119 A 
ATOM      3  C   UNL     1      -1.685   1.003   0.039  0.00  0.00    +0.017 A 
ATOM      4  C   UNL     1       0.240   0.072   0.536  0.00  0.00    +0.129 A 
ATOM      5  C   UNL     1      -0.291   1.237   0.104  0.00  0.00    +0.104 A 
ATOM      6  C   UNL     1      -2.731   1.958  -0.377  0.00  0.00    +0.034 C 
ENDROOT
BRANCH   5   8
ATOM      7  O   UNL     1       1.601   2.494  -0.648  0.00  0.00    -0.245 OA
ATOM      8  C   UNL     1       0.433   2.433  -0.214  0.00  0.00    +0.340 C 
BRANCH   8   9
ATOM      9  O   UNL     1      -0.289   3.576   0.002  0.00  0.00    -0.477 OA
ATOM     10  H   UNL     1      -1.166   3.521   0.328  0.00  0.00    +0.295 HD
ENDBRANCH   8   9
ENDBRANCH   5   8
BRANCH   2  11
ATOM     11  C   UNL     1      -3.066  -1.146   0.597  0.00  0.00    +0.064 C 
BRANCH  11  12
ATOM     12  C   UNL     1      -3.413  -1.929  -0.688  0.00  0.00    +0.008 C 
ATOM     13  C   UNL     1      -4.622  -2.835  -0.515  0.00  0.00    +0.000 C 
ENDBRANCH  11  12
ENDBRANCH   2  11
BRANCH   4  14
ATOM     14  C   UNL     1       1.657  -0.357   0.816  0.00  0.00    +0.076 C 
BRANCH  14  15
ATOM     15  C   UNL     1       2.316  -0.955  -0.424  0.00  0.00    +0.117 C 
BRANCH  15  17
ATOM     16  O   UNL     1       4.275  -1.235   0.959  0.00  0.00    -0.250 OA
ATOM     17  C   UNL     1       3.747  -1.331  -0.141  0.00  0.00    +0.314 C 
BRANCH  17  18
ATOM     18  O   UNL     1       4.387  -1.806  -1.238  0.00  0.00    -0.480 OA
ATOM     19  H   UNL     1       3.936  -1.859  -2.058  0.00  0.00    +0.295 HD
ENDBRANCH  17  18
ENDBRANCH  15  17
ENDBRANCH  14  15
ENDBRANCH   4  14
TORSDOF 8
