REMARK  Name = 445958
REMARK  8 active torsions:
REMARK  status: ('A' for Active; 'I' for Inactive)
REMARK    1  A    between atoms: N_2  and  C_15
REMARK    2  A    between atoms: N_3  and  C_28
REMARK    3  A    between atoms: C_12  and  O_18
REMARK    4  A    between atoms: O_18  and  C_19
REMARK    5  A    between atoms: C_19  and  C_20
REMARK    6  A    between atoms: C_20  and  O_21
REMARK    7  A    between atoms: C_20  and  C_23
REMARK    8  A    between atoms: C_23  and  N_24
REMARK                            x       y       z     vdW  Elec       q    Type
REMARK                         _______ _______ _______ _____ _____    ______ ____
ROOT
ATOM      1 BR   UNL     1      -6.717   0.016  -0.347  0.00  0.00    -0.043 Br
ATOM      2  N   UNL     1      -1.437   2.826  -0.276  0.00  0.00    -0.247 N 
ATOM      3  N   UNL     1      -3.893  -1.129   0.427  0.00  0.00    -0.287 N 
ATOM      4  N   UNL     1      -2.656   0.852   0.076  0.00  0.00    -0.321 NA
ATOM      5  N   UNL     1      -3.751   2.869  -0.662  0.00  0.00    -0.169 NA
ATOM      6  C   UNL     1      -2.673   2.151  -0.288  0.00  0.00    +0.150 C 
ATOM      7  C   UNL     1      -3.857   0.237   0.053  0.00  0.00    +0.204 C 
ATOM      8  C   UNL     1      -5.032   0.862  -0.310  0.00  0.00    +0.099 C 
ATOM      9  C   UNL     1      -4.918   2.191  -0.661  0.00  0.00    +0.122 C 
ATOM     10  H   UNL     1      -1.499   3.770  -0.547  0.00  0.00    +0.165 HD
ATOM     11  H   UNL     1      -4.744  -1.405   0.839  0.00  0.00    +0.155 HD
ENDROOT
BRANCH   2  15
ATOM     12  C   UNL     1       2.455   1.604   0.688  0.00  0.00    +0.139 C 
ATOM     13  C   UNL     1       1.369   1.002   1.315  0.00  0.00    +0.038 C 
ATOM     14  C   UNL     1       2.262   2.607  -0.255  0.00  0.00    +0.038 C 
ATOM     15  C   UNL     1      -0.127   2.415   0.049  0.00  0.00    +0.058 C 
ATOM     16  C   UNL     1       0.074   1.409   0.994  0.00  0.00    +0.018 C 
ATOM     17  C   UNL     1       0.967   3.014  -0.576  0.00  0.00    +0.018 C 
BRANCH  12  18
ATOM     18  O   UNL     1       3.727   1.205   1.004  0.00  0.00    -0.473 OA
BRANCH  18  19
ATOM     19  C   UNL     1       4.706   1.313  -0.025  0.00  0.00    +0.232 C 
BRANCH  19  20
ATOM     20  C   UNL     1       5.766   0.235   0.189  0.00  0.00    +0.133 C 
BRANCH  20  21
ATOM     21  O   UNL     1       6.399   0.459   1.452  0.00  0.00    -0.383 OA
ATOM     22  H   UNL     1       7.076  -0.221   1.599  0.00  0.00    +0.210 HD
ENDBRANCH  20  21
BRANCH  20  23
ATOM     23  C   UNL     1       5.195  -1.185   0.185  0.00  0.00    -0.044 C 
BRANCH  23  24
ATOM     24  N   UNL     1       4.582  -1.525  -1.092  0.00  0.00    +0.386 N 
ATOM     25  C   UNL     1       4.098  -2.907  -1.081  0.00  0.00    -0.101 C 
ATOM     26  C   UNL     1       5.532  -1.331  -2.189  0.00  0.00    -0.101 C 
ATOM     27  H   UNL     1       3.787  -0.903  -1.237  0.00  0.00    -0.080 HD
ENDBRANCH  23  24
ENDBRANCH  20  23
ENDBRANCH  19  20
ENDBRANCH  18  19
ENDBRANCH  12  18
ENDBRANCH   2  15
BRANCH   3  28
ATOM     28  C   UNL     1      -2.951  -2.165   0.324  0.00  0.00    +0.050 C 
ATOM     29  C   UNL     1      -3.262  -3.447   0.786  0.00  0.00    +0.015 C 
ATOM     30  C   UNL     1      -1.696  -1.922  -0.242  0.00  0.00    +0.015 C 
ATOM     31  C   UNL     1      -2.327  -4.477   0.685  0.00  0.00    +0.001 C 
ATOM     32  C   UNL     1      -0.761  -2.951  -0.344  0.00  0.00    +0.001 C 
ATOM     33  C   UNL     1      -1.076  -4.229   0.119  0.00  0.00    +0.000 C 
ENDBRANCH   3  28
TORSDOF 8
