REMARK  Name = 46937068
REMARK  2 active torsions:
REMARK  status: ('A' for Active; 'I' for Inactive)
REMARK    1  A    between atoms: C_7  and  C_20
REMARK    2  A    between atoms: C_20  and  C_21
REMARK                            x       y       z     vdW  Elec       q    Type
REMARK                         _______ _______ _______ _____ _____    ______ ____
ROOT
ATOM      1  O   UNL     1      -0.023   2.919  -0.441  0.00  0.00    -0.272 OA
ATOM      2  O   UNL     1      -2.998  -0.755  -0.397  0.00  0.00    -0.272 OA
ATOM      3  N   UNL     1       0.231   0.571  -0.211  0.00  0.00    -0.174 N 
ATOM      4  N   UNL     1      -0.647  -0.517  -0.197  0.00  0.00    -0.138 N 
ATOM      5  N   UNL     1      -1.035  -2.858  -0.010  0.00  0.00    -0.267 N 
ATOM      6  N   UNL     1       1.137  -2.043   0.137  0.00  0.00    -0.374 NA
ATOM      7  C   UNL     1      -1.912   1.415  -0.527  0.00  0.00    +0.161 C 
ATOM      8  C   UNL     1      -0.448   1.775  -0.390  0.00  0.00    +0.254 C 
ATOM      9  C   UNL     1      -1.976  -0.086  -0.371  0.00  0.00    +0.257 C 
ATOM     10  C   UNL     1       1.613   0.360  -0.046  0.00  0.00    +0.099 C 
ATOM     11  C   UNL     1      -0.141  -1.815  -0.018  0.00  0.00    +0.264 C 
ATOM     12  C   UNL     1       2.039  -0.966   0.126  0.00  0.00    +0.132 C 
ATOM     13  C   UNL     1       2.556   1.394  -0.047  0.00  0.00    +0.014 C 
ATOM     14  C   UNL     1       3.402  -1.238   0.295  0.00  0.00    +0.086 C 
ATOM     15  C   UNL     1       3.913   1.109   0.122  0.00  0.00    -0.024 C 
ATOM     16  C   UNL     1       4.336  -0.205   0.292  0.00  0.00    -0.023 C 
ATOM     17  C   UNL     1      -1.447  -3.460   1.237  0.00  0.00    +0.116 C 
ATOM     18  C   UNL     1      -1.384  -3.534  -1.238  0.00  0.00    +0.116 C 
ATOM     19  C   UNL     1       4.912   2.217   0.119  0.00  0.00    +0.031 C 
ENDROOT
BRANCH   7  20
ATOM     20  C   UNL     1      -2.756   2.114   0.522  0.00  0.00    +0.044 C 
BRANCH  20  21
ATOM     21  C   UNL     1      -4.212   2.100   0.158  0.00  0.00    -0.025 C 
ATOM     22  C   UNL     1      -5.160   1.502   0.887  0.00  0.00    -0.005 C 
ENDBRANCH  20  21
ENDBRANCH   7  20
TORSDOF 2
