REMARK  Name = 11197931
REMARK  3 active torsions:
REMARK  status: ('A' for Active; 'I' for Inactive)
REMARK    1  A    between atoms: C_9  and  C_16
REMARK    2  A    between atoms: C_14  and  O_24
REMARK    3  A    between atoms: C_21  and  O_22
REMARK                            x       y       z     vdW  Elec       q    Type
REMARK                         _______ _______ _______ _____ _____    ______ ____
ROOT
ATOM      1  F   UNL     1      -0.853   3.649  -1.455  0.00  0.00    -0.204 F 
ATOM      2  F   UNL     1      -0.078   3.769   0.578  0.00  0.00    -0.204 F 
ATOM      3  O   UNL     1      -0.133  -1.258  -0.439  0.00  0.00    -0.475 OA
ATOM      4  C   UNL     1       0.102   0.922   0.665  0.00  0.00    +0.054 C 
ATOM      5  C   UNL     1      -1.421   1.008   0.915  0.00  0.00    +0.035 C 
ATOM      6  C   UNL     1       0.314   1.772  -0.594  0.00  0.00    +0.071 C 
ATOM      7  C   UNL     1      -1.883   2.305   0.211  0.00  0.00    +0.071 C 
ATOM      8  C   UNL     1      -0.618   2.934  -0.341  0.00  0.00    +0.264 C 
ATOM      9  C   UNL     1       0.579  -0.531   0.572  0.00  0.00    +0.188 C 
ATOM     10  C   UNL     1      -2.162  -0.206   0.402  0.00  0.00    +0.015 C 
ATOM     11  C   UNL     1      -1.491  -1.248  -0.251  0.00  0.00    +0.135 C 
ATOM     12  C   UNL     1      -3.553  -0.301   0.567  0.00  0.00    +0.035 C 
ATOM     13  C   UNL     1      -2.198  -2.331  -0.778  0.00  0.00    +0.040 C 
ATOM     14  C   UNL     1      -4.257  -1.394   0.059  0.00  0.00    +0.134 C 
ATOM     15  C   UNL     1      -3.581  -2.404  -0.620  0.00  0.00    +0.040 C 
ENDROOT
BRANCH   9  16
ATOM     16  C   UNL     1       2.074  -0.630   0.328  0.00  0.00    +0.017 C 
ATOM     17  C   UNL     1       2.954  -0.665   1.409  0.00  0.00    +0.002 C 
ATOM     18  C   UNL     1       2.564  -0.684  -0.976  0.00  0.00    +0.002 C 
ATOM     19  C   UNL     1       4.328  -0.755   1.185  0.00  0.00    +0.036 C 
ATOM     20  C   UNL     1       3.938  -0.775  -1.200  0.00  0.00    +0.036 C 
ATOM     21  C   UNL     1       4.820  -0.810  -0.119  0.00  0.00    +0.134 C 
BRANCH  21  22
ATOM     22  O   UNL     1       6.161  -0.898  -0.338  0.00  0.00    -0.506 OA
ATOM     23  H   UNL     1       6.753  -0.922   0.388  0.00  0.00    +0.292 HD
ENDBRANCH  21  22
ENDBRANCH   9  16
BRANCH  14  24
ATOM     24  O   UNL     1      -5.607  -1.467   0.221  0.00  0.00    -0.506 OA
ATOM     25  H   UNL     1      -6.062  -0.787   0.678  0.00  0.00    +0.292 HD
ENDBRANCH  14  24
TORSDOF 3
