REMARK  Name = 10062714
REMARK  9 active torsions:
REMARK  status: ('A' for Active; 'I' for Inactive)
REMARK    1  A    between atoms: O_1  and  C_2
REMARK    2  A    between atoms: O_1  and  C_16
REMARK    3  A    between atoms: C_2  and  C_7
REMARK    4  A    between atoms: C_7  and  C_8
REMARK    5  A    between atoms: N_15  and  CA_18
REMARK    6  A    between atoms: CA_18  and  C_20
REMARK    7  A    between atoms: CA_18  and  C_21
REMARK    8  A    between atoms: C_21  and  C_22
REMARK    9  A    between atoms: C_22  and  C_23
REMARK                            x       y       z     vdW  Elec       q    Type
REMARK                         _______ _______ _______ _____ _____    ______ ____
ROOT
ATOM      1  O   UNL     1      -0.341  -0.713  -0.322  0.00  0.00    -0.442 OA
ENDROOT
BRANCH   1   2
ATOM      2  C   UNL     1      -1.234  -1.620   0.324  0.00  0.00    +0.141 C 
ATOM      3  C   UNL     1      -1.987  -2.412  -0.742  0.00  0.00    +0.041 C 
ATOM      4  C   UNL     1      -0.436  -2.706   1.042  0.00  0.00    +0.041 C 
ATOM      5  C   UNL     1      -0.979  -3.457  -1.220  0.00  0.00    +0.004 C 
ATOM      6  C   UNL     1       0.026  -3.633  -0.080  0.00  0.00    +0.004 C 
BRANCH   2   7
ATOM      7  C   UNL     1      -2.154  -0.834   1.245  0.00  0.00    +0.066 C 
BRANCH   7   8
ATOM      8  C   UNL     1      -2.922   0.226   0.500  0.00  0.00    -0.019 C 
ATOM      9  C   UNL     1      -2.390   1.508   0.365  0.00  0.00    -0.004 C 
ATOM     10  C   UNL     1      -4.166  -0.075  -0.056  0.00  0.00    -0.004 C 
ATOM     11  C   UNL     1      -3.102   2.489  -0.325  0.00  0.00    -0.000 C 
ATOM     12  C   UNL     1      -4.877   0.906  -0.746  0.00  0.00    -0.000 C 
ATOM     13  C   UNL     1      -4.345   2.188  -0.880  0.00  0.00    -0.000 C 
ENDBRANCH   7   8
ENDBRANCH   2   7
ENDBRANCH   1   2
BRANCH   1  16
ATOM     14  O   UNL     1       0.596  -0.203   1.712  0.00  0.00    -0.226 OA
ATOM     15  N   UNL     1       1.335   0.781  -0.255  0.00  0.00    -0.265 N 
ATOM     16  C   UNL     1       0.536  -0.059   0.495  0.00  0.00    +0.402 C 
ATOM     17  H   UNL     1       1.192   0.811  -1.228  0.00  0.00    +0.153 HD
BRANCH  15  18
ATOM     18  CA  UNL     1       2.368   1.617   0.305  0.00  0.00    +0.139 C 
BRANCH  18  20
ATOM     19  O   UNL     1       2.662   4.003  -0.001  0.00  0.00    -0.286 OA
ATOM     20  C   UNL     1       1.905   3.037   0.050  0.00  0.00    +0.227 C 
ENDBRANCH  18  20
BRANCH  18  21
ATOM     21  C   UNL     1       3.726   1.304  -0.323  0.00  0.00    +0.028 C 
BRANCH  21  22
ATOM     22  C   UNL     1       4.187  -0.131  -0.047  0.00  0.00    +0.002 C 
BRANCH  22  23
ATOM     23  C   UNL     1       5.559  -0.401  -0.667  0.00  0.00    +0.000 C 
ATOM     24  C   UNL     1       6.033  -1.815  -0.375  0.00  0.00    +0.000 C 
ENDBRANCH  22  23
ENDBRANCH  21  22
ENDBRANCH  18  21
ENDBRANCH  15  18
ENDBRANCH   1  16
TORSDOF 9
