REMARK  Name = 10017976
REMARK  4 active torsions:
REMARK  status: ('A' for Active; 'I' for Inactive)
REMARK    1  A    between atoms: N_1  and  C_18
REMARK    2  A    between atoms: C_10  and  C_15
REMARK    3  A    between atoms: C_15  and  O_16
REMARK    4  A    between atoms: C_18  and  C_19
REMARK                            x       y       z     vdW  Elec       q    Type
REMARK                         _______ _______ _______ _____ _____    ______ ____
ROOT
ATOM      1  N   UNL     1      -0.341  -0.207  -0.677  0.00  0.00    -0.327 N 
ATOM      2  C   UNL     1      -1.281  -1.181  -0.501  0.00  0.00    +0.033 A 
ATOM      3  C   UNL     1      -2.363  -0.633   0.157  0.00  0.00    -0.009 A 
ATOM      4  C   UNL     1      -1.156  -2.584  -0.975  0.00  0.00    +0.043 C 
ATOM      5  C   UNL     1      -3.565  -1.436   0.520  0.00  0.00    +0.028 C 
ATOM      6  C   UNL     1      -2.230  -3.458  -0.302  0.00  0.00    +0.007 C 
ATOM      7  C   UNL     1      -3.605  -2.763  -0.264  0.00  0.00    +0.005 C 
ATOM      8  C   UNL     1      -2.063   0.737   0.400  0.00  0.00    +0.013 A 
ATOM      9  C   UNL     1      -0.792   0.977  -0.134  0.00  0.00    +0.066 A 
ATOM     10  C   UNL     1      -0.174   2.232  -0.074  0.00  0.00    +0.091 C 
ATOM     11  C   UNL     1      -2.747   1.800   1.024  0.00  0.00    +0.001 C 
ATOM     12  C   UNL     1      -0.873   3.270   0.549  0.00  0.00    +0.008 C 
ATOM     13  C   UNL     1      -2.140   3.059   1.090  0.00  0.00    +0.000 C 
ENDROOT
BRANCH  10  15
ATOM     14  O   UNL     1       2.213   2.373  -0.013  0.00  0.00    -0.245 OA
ATOM     15  C   UNL     1       1.144   2.493  -0.624  0.00  0.00    +0.339 C 
BRANCH  15  16
ATOM     16  O   UNL     1       1.098   2.897  -1.924  0.00  0.00    -0.477 OA
ATOM     17  H   UNL     1       0.273   2.978  -2.360  0.00  0.00    +0.295 HD
ENDBRANCH  15  16
ENDBRANCH  10  15
BRANCH   1  18
ATOM     18  C   UNL     1       0.928  -0.407  -1.346  0.00  0.00    +0.132 C 
BRANCH  18  19
ATOM     19  C   UNL     1       2.002  -0.818  -0.376  0.00  0.00    +0.000 C 
ATOM     20  C   UNL     1       1.693  -0.955   0.970  0.00  0.00    -0.002 C 
ATOM     21  C   UNL     1       3.289  -1.054  -0.841  0.00  0.00    -0.002 C 
ATOM     22  C   UNL     1       2.689  -1.335   1.869  0.00  0.00    -0.000 C 
ATOM     23  C   UNL     1       4.285  -1.434   0.059  0.00  0.00    -0.000 C 
ATOM     24  C   UNL     1       3.985  -1.575   1.413  0.00  0.00    -0.000 C 
ENDBRANCH  18  19
ENDBRANCH   1  18
TORSDOF 4
