REMARK  Name = 24794406
REMARK  5 active torsions:
REMARK  status: ('A' for Active; 'I' for Inactive)
REMARK    1  A    between atoms: C_1  and  S_24
REMARK    2  A    between atoms: C_2  and  N_8
REMARK    3  A    between atoms: C_9  and  C_11
REMARK    4  A    between atoms: C_12  and  N_18
REMARK    5  A    between atoms: S_24  and  N_28
REMARK                            x       y       z     vdW  Elec       q    Type
REMARK                         _______ _______ _______ _____ _____    ______ ____
ROOT
ATOM      1  C   UNL     1      -2.993   1.197   1.056  0.00  0.00    +0.139 C 
ATOM      2  C   UNL     1      -2.133   1.814   0.148  0.00  0.00    +0.070 C 
ATOM      3  C   UNL     1      -4.338   1.565   1.103  0.00  0.00    +0.021 C 
ATOM      4  C   UNL     1      -2.617   2.800  -0.712  0.00  0.00    +0.016 C 
ATOM      5  C   UNL     1      -4.822   2.550   0.242  0.00  0.00    +0.001 C 
ATOM      6  C   UNL     1      -3.961   3.167  -0.666  0.00  0.00    +0.001 C 
ENDROOT
BRANCH   2   8
ATOM      7  O   UNL     1       0.053   2.859  -1.618  0.00  0.00    -0.270 OA
ATOM      8  N   UNL     1      -0.763   1.460   0.080  0.00  0.00    -0.279 N 
ATOM      9  C   UNL     1       0.231   1.975  -0.765  0.00  0.00    +0.250 C 
ATOM     10  H   UNL     1      -0.470   0.760   0.707  0.00  0.00    +0.155 HD
BRANCH   9  11
ATOM     11  C   UNL     1       1.553   1.388  -0.620  0.00  0.00    +0.054 C 
ATOM     12  C   UNL     1       4.091   0.263  -0.344  0.00  0.00    +0.058 C 
ATOM     13  C   UNL     1       2.686   2.134  -0.946  0.00  0.00    +0.006 C 
ATOM     14  C   UNL     1       1.690   0.080  -0.157  0.00  0.00    +0.006 C 
ATOM     15  C   UNL     1       3.955   1.571  -0.808  0.00  0.00    +0.015 C 
ATOM     16  C   UNL     1       2.958  -0.483  -0.019  0.00  0.00    +0.015 C 
BRANCH  12  18
ATOM     17  O   UNL     1       4.855  -1.661   1.676  0.00  0.00    -0.269 OA
ATOM     18  N   UNL     1       5.410  -0.322  -0.200  0.00  0.00    -0.233 N 
ATOM     19  C   UNL     1       5.649  -1.288   0.811  0.00  0.00    +0.257 C 
ATOM     20  C   UNL     1       6.457   0.076  -1.035  0.00  0.00    +0.072 C 
ATOM     21  C   UNL     1       7.024  -1.875   0.861  0.00  0.00    +0.059 C 
ATOM     22  C   UNL     1       7.688  -0.440  -0.949  0.00  0.00    +0.017 C 
ATOM     23  C   UNL     1       7.974  -1.450   0.025  0.00  0.00    +0.006 C 
ENDBRANCH  12  18
ENDBRANCH   9  11
ENDBRANCH   2   8
BRANCH   1  24
ATOM     24  S   UNL     1      -2.425  -0.045   2.153  0.00  0.00    +0.076 S 
ATOM     25  O   UNL     1      -3.538  -0.407   3.020  0.00  0.00    -0.150 OA
ATOM     26  O   UNL     1      -1.179   0.407   2.755  0.00  0.00    -0.150 OA
BRANCH  24  28
ATOM     27 CL   UNL     1      -6.500  -3.019  -2.455  0.00  0.00    -0.081 Cl
ATOM     28  N   UNL     1      -2.113  -1.367   1.096  0.00  0.00    -0.199 N 
ATOM     29  N   UNL     1      -4.418  -1.723   0.684  0.00  0.00    -0.227 NA
ATOM     30  C   UNL     1      -3.158  -1.780   0.197  0.00  0.00    +0.147 C 
ATOM     31  C   UNL     1      -2.839  -2.202  -1.083  0.00  0.00    +0.036 C 
ATOM     32  C   UNL     1      -3.881  -2.590  -1.919  0.00  0.00    +0.016 C 
ATOM     33  C   UNL     1      -5.404  -2.108  -0.157  0.00  0.00    +0.112 C 
ATOM     34  C   UNL     1      -5.191  -2.545  -1.454  0.00  0.00    +0.077 C 
ATOM     35  H   UNL     1      -1.244  -1.829   1.106  0.00  0.00    +0.175 HD
ENDBRANCH  24  28
ENDBRANCH   1  24
TORSDOF 5
