REMARK  Name = 1283969
REMARK  3 active torsions:
REMARK  status: ('A' for Active; 'I' for Inactive)
REMARK    1  A    between atoms: N_2  and  C_7
REMARK    2  A    between atoms: C_4  and  C_15
REMARK    3  A    between atoms: N_14  and  C_19
REMARK                            x       y       z     vdW  Elec       q    Type
REMARK                         _______ _______ _______ _____ _____    ______ ____
ROOT
ATOM      1  O   UNL     1       2.605  -1.892  -2.251  0.00  0.00    -0.275 OA
ATOM      2  N   UNL     1       2.597  -0.790  -0.175  0.00  0.00    -0.281 N 
ATOM      3  C   UNL     1       1.815  -0.822   1.039  0.00  0.00    +0.103 C 
ATOM      4  C   UNL     1       0.514  -1.482   0.616  0.00  0.00    +0.106 C 
ATOM      5  C   UNL     1       0.884  -2.326  -0.603  0.00  0.00    +0.096 C 
ATOM      6  C   UNL     1       2.122  -1.657  -1.153  0.00  0.00    +0.226 C 
ENDROOT
BRANCH   2   7
ATOM      7  C   UNL     1       3.815  -0.022  -0.264  0.00  0.00    +0.075 C 
ATOM      8  C   UNL     1       3.513   1.479  -0.218  0.00  0.00    +0.020 C 
ATOM      9  C   UNL     1       4.788  -0.428   0.845  0.00  0.00    +0.020 C 
ATOM     10  C   UNL     1       4.792   2.311  -0.257  0.00  0.00    +0.002 C 
ATOM     11  C   UNL     1       6.065   0.407   0.807  0.00  0.00    +0.002 C 
ATOM     12  C   UNL     1       5.762   1.902   0.849  0.00  0.00    +0.000 C 
ENDBRANCH   2   7
BRANCH   4  15
ATOM     13  O   UNL     1      -0.223   0.640  -0.158  0.00  0.00    -0.275 OA
ATOM     14  N   UNL     1      -1.812  -0.968   0.494  0.00  0.00    -0.284 N 
ATOM     15  C   UNL     1      -0.536  -0.467   0.266  0.00  0.00    +0.228 C 
ATOM     16  H   UNL     1      -1.863  -1.887   0.843  0.00  0.00    +0.155 HD
BRANCH  14  19
ATOM     17 CL   UNL     1      -4.287   3.245  -1.026  0.00  0.00    -0.082 Cl
ATOM     18 CL   UNL     1      -6.922  -1.130   0.717  0.00  0.00    -0.082 Cl
ATOM     19  C   UNL     1      -3.046  -0.309   0.284  0.00  0.00    +0.052 C 
ATOM     20  C   UNL     1      -4.227  -0.973   0.573  0.00  0.00    +0.026 C 
ATOM     21  C   UNL     1      -3.047   0.987  -0.206  0.00  0.00    +0.026 C 
ATOM     22  C   UNL     1      -4.264   1.637  -0.414  0.00  0.00    +0.060 C 
ATOM     23  C   UNL     1      -5.444  -0.323   0.364  0.00  0.00    +0.060 C 
ATOM     24  C   UNL     1      -5.462   0.982  -0.129  0.00  0.00    +0.023 C 
ENDBRANCH  14  19
ENDBRANCH   4  15
TORSDOF 3
