REMARK  Name = 2255489
REMARK  2 active torsions:
REMARK  status: ('A' for Active; 'I' for Inactive)
REMARK    1  A    between atoms: N_2  and  C_14
REMARK    2  A    between atoms: C_3  and  C_9
REMARK                            x       y       z     vdW  Elec       q    Type
REMARK                         _______ _______ _______ _____ _____    ______ ____
ROOT
ATOM      1  O   UNL     1      -1.132   2.340   1.056  0.00  0.00    -0.265 OA
ATOM      2  N   UNL     1      -1.615   0.458  -0.263  0.00  0.00    -0.299 N 
ATOM      3  C   UNL     1      -0.820   1.427   0.307  0.00  0.00    +0.300 C 
ATOM      4  H   UNL     1      -1.193  -0.211  -0.849  0.00  0.00    +0.150 HD
ENDROOT
BRANCH   3   9
ATOM      5  S   UNL     1       2.875  -1.833   0.709  0.00  0.00    -0.051 S 
ATOM      6  O   UNL     1       1.096   2.263  -0.690  0.00  0.00    -0.265 OA
ATOM      7  N   UNL     1       1.162   0.110   0.305  0.00  0.00    -0.257 N 
ATOM      8  N   UNL     1       3.416   0.385  -0.502  0.00  0.00    -0.222 NA
ATOM      9  C   UNL     1       0.619   1.310  -0.097  0.00  0.00    +0.305 C 
ATOM     10  C   UNL     1       2.483  -0.291   0.097  0.00  0.00    +0.166 C 
ATOM     11  C   UNL     1       4.470  -1.608   0.123  0.00  0.00    +0.059 C 
ATOM     12  C   UNL     1       4.569  -0.375  -0.488  0.00  0.00    +0.108 C 
ATOM     13  H   UNL     1       0.570  -0.518   0.779  0.00  0.00    +0.157 HD
ENDBRANCH   3   9
BRANCH   2  14
ATOM     14  C   UNL     1      -3.037   0.376  -0.040  0.00  0.00    +0.072 C 
ATOM     15  C   UNL     1      -3.372  -0.546   1.126  0.00  0.00    +0.020 C 
ATOM     16  C   UNL     1      -3.760  -0.282  -1.209  0.00  0.00    +0.020 C 
ATOM     17  C   UNL     1      -3.331  -1.950   0.528  0.00  0.00    +0.002 C 
ATOM     18  C   UNL     1      -3.622  -1.784  -0.964  0.00  0.00    +0.002 C 
ENDBRANCH   2  14
TORSDOF 2
