REMARK  Name = 17749735
REMARK  3 active torsions:
REMARK  status: ('A' for Active; 'I' for Inactive)
REMARK    1  A    between atoms: C_1  and  C_11
REMARK    2  A    between atoms: C_4  and  C_19
REMARK    3  A    between atoms: C_22  and  O_25
REMARK                            x       y       z     vdW  Elec       q    Type
REMARK                         _______ _______ _______ _____ _____    ______ ____
ROOT
ATOM      1  C   UNL     1       1.302   1.101   0.527  0.00  0.00    -0.002 C 
ATOM      2  C   UNL     1      -0.010   0.628   0.532  0.00  0.00    -0.002 C 
ATOM      3  C   UNL     1       1.612   2.291  -0.132  0.00  0.00    -0.002 C 
ATOM      4  C   UNL     1      -1.013   1.345  -0.122  0.00  0.00    -0.000 C 
ATOM      5  C   UNL     1       0.609   3.008  -0.785  0.00  0.00    -0.000 C 
ATOM      6  C   UNL     1      -0.703   2.535  -0.780  0.00  0.00    -0.000 C 
ENDROOT
BRANCH   1  11
ATOM      7  O   UNL     1       4.401   0.354  -1.702  0.00  0.00    -0.274 OA
ATOM      8  N   UNL     1       2.123  -1.134   1.331  0.00  0.00    -0.243 NA
ATOM      9  N   UNL     1       3.176  -1.419  -0.774  0.00  0.00    -0.231 N 
ATOM     10  N   UNL     1       2.105  -3.233   0.373  0.00  0.00    -0.331 N 
ATOM     11  C   UNL     1       2.407   0.311   1.246  0.00  0.00    +0.114 C 
ATOM     12  C   UNL     1       3.792   0.476   0.604  0.00  0.00    +0.112 C 
ATOM     13  C   UNL     1       2.474   0.808   2.703  0.00  0.00    +0.029 C 
ATOM     14  C   UNL     1       3.813  -0.170  -0.758  0.00  0.00    +0.234 C 
ATOM     15  C   UNL     1       2.459  -1.904   0.339  0.00  0.00    +0.184 C 
ATOM     16  C   UNL     1       3.286  -2.227  -1.986  0.00  0.00    +0.123 C 
ATOM     17  H   UNL     1       1.604  -3.589   1.142  0.00  0.00    +0.145 HD
ATOM     18  H   UNL     1       2.353  -3.828  -0.371  0.00  0.00    +0.145 HD
ENDBRANCH   1  11
BRANCH   4  19
ATOM     19  C   UNL     1      -2.374   0.855  -0.117  0.00  0.00    +0.003 C 
ATOM     20  C   UNL     1      -2.621  -0.516  -0.051  0.00  0.00    +0.037 C 
ATOM     21  C   UNL     1      -3.439   1.754  -0.175  0.00  0.00    +0.000 C 
ATOM     22  C   UNL     1      -3.933  -0.989  -0.044  0.00  0.00    +0.139 C 
ATOM     23  C   UNL     1      -4.751   1.281  -0.168  0.00  0.00    +0.003 C 
ATOM     24  C   UNL     1      -4.998  -0.090  -0.103  0.00  0.00    +0.037 C 
BRANCH  22  25
ATOM     25  O   UNL     1      -4.175  -2.327   0.020  0.00  0.00    -0.471 OA
ATOM     26  C   UNL     1      -5.541  -2.740   0.024  0.00  0.00    +0.252 C 
ENDBRANCH  22  25
ENDBRANCH   4  19
TORSDOF 3
