REMARK  Name = 1503946
REMARK  1 active torsions:
REMARK  status: ('A' for Active; 'I' for Inactive)
REMARK    1  A    between atoms: N_1  and  C_13
REMARK                            x       y       z     vdW  Elec       q    Type
REMARK                         _______ _______ _______ _____ _____    ______ ____
ROOT
ATOM      1  N   UNL     1      -0.665   0.846  -0.403  0.00  0.00    -0.258 N 
ATOM      2  N   UNL     1      -2.106  -0.863   0.487  0.00  0.00    -0.095 NA
ATOM      3  N   UNL     1      -3.004   1.034  -0.363  0.00  0.00    -0.072 NA
ATOM      4  N   UNL     1      -3.444  -0.821   0.540  0.00  0.00    -0.139 N 
ATOM      5  N   UNL     1      -4.020   0.284   0.048  0.00  0.00    -0.020 NA
ATOM      6  C   UNL     1      -1.879   0.319  -0.086  0.00  0.00    +0.130 C 
ATOM      7  H   UNL     1      -0.690   1.735  -0.823  0.00  0.00    +0.164 HD
ATOM      8  H   UNL     1      -3.974  -1.560   0.919  0.00  0.00    +0.197 HD
ENDROOT
BRANCH   1  13
ATOM      9  O   UNL     1       3.978   1.209   0.415  0.00  0.00    -0.291 OA
ATOM     10  C   UNL     1       2.081  -1.682  -0.613  0.00  0.00    +0.014 C 
ATOM     11  C   UNL     1       0.676  -1.188  -0.281  0.00  0.00    +0.042 C 
ATOM     12  C   UNL     1       3.119  -1.024   0.280  0.00  0.00    +0.070 C 
ATOM     13  C   UNL     1       0.585   0.320  -0.222  0.00  0.00    +0.037 C 
ATOM     14  C   UNL     1       3.007   0.481   0.218  0.00  0.00    +0.174 C 
ATOM     15  C   UNL     1       1.671   1.085  -0.018  0.00  0.00    +0.048 C 
ENDBRANCH   1  13
TORSDOF 1
