REMARK  Name = 16750083
REMARK  6 active torsions:
REMARK  status: ('A' for Active; 'I' for Inactive)
REMARK    1  A    between atoms: N_2  and  CA_5
REMARK    2  A    between atoms: C_3  and  C_11
REMARK    3  A    between atoms: CA_5  and  C_8
REMARK    4  A    between atoms: C_8  and  O_9
REMARK    5  A    between atoms: C_11  and  C_12
REMARK    6  A    between atoms: C_12  and  S_13
REMARK                            x       y       z     vdW  Elec       q    Type
REMARK                         _______ _______ _______ _____ _____    ______ ____
ROOT
ATOM      1  O   UNL     1      -1.034  -1.469  -0.851  0.00  0.00    -0.275 OA
ATOM      2  N   UNL     1       0.264   0.117   0.239  0.00  0.00    -0.297 N 
ATOM      3  C   ACE A   0      -0.930  -0.426  -0.211  0.00  0.00    +0.224 C 
ATOM      4  H   UNL     1       0.236   0.961   0.746  0.00  0.00    +0.150 HD
ENDROOT
BRANCH   2   5
ATOM      5  CA  UNL     1       1.546  -0.502  -0.004  0.00  0.00    +0.171 C 
ATOM      6  CB  UNL     1       1.887  -1.469   1.120  0.00  0.00    +0.033 C 
BRANCH   5   8
ATOM      7  OXT UNL     1       3.808   0.230  -0.444  0.00  0.00    -0.248 OA
ATOM      8  C   UNL     1       2.651   0.529  -0.168  0.00  0.00    +0.332 C 
BRANCH   8   9
ATOM      9  O   UNL     1       2.262   1.812   0.028  0.00  0.00    -0.479 OA
ATOM     10  H   UNL     1       1.369   2.004   0.238  0.00  0.00    +0.295 HD
ENDBRANCH   8   9
ENDBRANCH   5   8
ENDBRANCH   2   5
BRANCH   3  11
ATOM     11  C   UNL     1      -2.125   0.416   0.212  0.00  0.00    +0.096 C 
BRANCH  11  12
ATOM     12  C   UNL     1      -3.470  -0.130  -0.253  0.00  0.00    +0.063 C 
BRANCH  12  13
ATOM     13  S   UNL     1      -4.857   0.894   0.330  0.00  0.00    -0.167 S 
ATOM     14  H   UNL     1      -6.029   0.363  -0.112  0.00  0.00    +0.102 HD
ENDBRANCH  12  13
ENDBRANCH  11  12
ENDBRANCH   3  11
TORSDOF 6
