REMARK  Name = 17749728
REMARK  5 active torsions:
REMARK  status: ('A' for Active; 'I' for Inactive)
REMARK    1  A    between atoms: C_3  and  C_23
REMARK    2  A    between atoms: C_6  and  S_11
REMARK    3  A    between atoms: S_11  and  N_14
REMARK    4  A    between atoms: N_14  and  C_17
REMARK    5  A    between atoms: C_23  and  C_25
REMARK                            x       y       z     vdW  Elec       q    Type
REMARK                         _______ _______ _______ _____ _____    ______ ____
ROOT
ATOM      1  O   UNL     1      -3.119  -3.273  -0.694  0.00  0.00    -0.210 OA
ATOM      2  N   UNL     1      -0.881  -3.427  -1.326  0.00  0.00    -0.333 NA
ATOM      3  C   UNL     1      -1.423  -2.042   0.469  0.00  0.00    +0.081 C 
ATOM      4  C   UNL     1      -0.102  -1.967   0.299  0.00  0.00    +0.040 C 
ATOM      5  C   UNL     1       0.169  -2.855  -0.837  0.00  0.00    +0.145 C 
ATOM      6  C   UNL     1       2.207  -1.427   0.506  0.00  0.00    +0.126 C 
ATOM      7  C   UNL     1       0.953  -1.257   0.956  0.00  0.00    +0.023 C 
ATOM      8  C   UNL     1      -1.941  -2.976  -0.567  0.00  0.00    +0.201 C 
ATOM      9  C   UNL     1       1.573  -2.988  -1.277  0.00  0.00    +0.034 C 
ATOM     10  C   UNL     1       2.515  -2.295  -0.617  0.00  0.00    +0.023 C 
ENDROOT
BRANCH   6  11
ATOM     11  S   UNL     1       3.457  -0.560   1.309  0.00  0.00    +0.077 S 
ATOM     12  O   UNL     1       2.880   0.108   2.469  0.00  0.00    -0.150 OA
ATOM     13  O   UNL     1       4.576  -1.471   1.522  0.00  0.00    -0.150 OA
BRANCH  11  14
ATOM     14  N   UNL     1       3.990   0.663   0.184  0.00  0.00    -0.189 N 
ATOM     15  C   UNL     1       4.940   0.222  -0.873  0.00  0.00    +0.139 C 
BRANCH  14  17
ATOM     16 CL   UNL     1      -0.039   1.728  -2.865  0.00  0.00    -0.082 Cl
ATOM     17  C   UNL     1       2.968   1.603  -0.230  0.00  0.00    +0.070 C 
ATOM     18  C   UNL     1       2.062   1.253  -1.231  0.00  0.00    +0.028 C 
ATOM     19  C   UNL     1       2.892   2.859   0.372  0.00  0.00    +0.016 C 
ATOM     20  C   UNL     1       1.079   2.159  -1.629  0.00  0.00    +0.059 C 
ATOM     21  C   UNL     1       1.910   3.765  -0.027  0.00  0.00    +0.002 C 
ATOM     22  C   UNL     1       1.003   3.415  -1.028  0.00  0.00    +0.011 C 
ENDBRANCH  14  17
ENDBRANCH  11  14
ENDBRANCH   6  11
BRANCH   3  23
ATOM     23  C   UNL     1      -2.310  -1.379   1.453  0.00  0.00    +0.082 C 
BRANCH  23  25
ATOM     24  N   UNL     1      -2.273   1.121   1.228  0.00  0.00    -0.360 N 
ATOM     25  C   UNL     1      -2.913  -0.069   0.998  0.00  0.00    +0.034 A 
ATOM     26  C   UNL     1      -4.089   0.205   0.335  0.00  0.00    -0.013 A 
ATOM     27  C   UNL     1      -4.159   1.610   0.161  0.00  0.00    -0.013 A 
ATOM     28  C   UNL     1      -3.023   2.151   0.722  0.00  0.00    +0.029 A 
ATOM     29  C   UNL     1      -5.090  -0.785  -0.112  0.00  0.00    +0.032 C 
ATOM     30  C   UNL     1      -5.247   2.358  -0.501  0.00  0.00    +0.032 C 
ATOM     31  C   UNL     1      -2.567   3.550   0.833  0.00  0.00    +0.049 C 
ATOM     32  H   UNL     1      -1.408   1.221   1.687  0.00  0.00    +0.165 HD
ENDBRANCH  23  25
ENDBRANCH   3  23
TORSDOF 5
