REMARK  Name = 17749729
REMARK  6 active torsions:
REMARK  status: ('A' for Active; 'I' for Inactive)
REMARK    1  A    between atoms: C_1  and  C_13
REMARK    2  A    between atoms: C_2  and  C_4
REMARK    3  A    between atoms: C_5  and  O_6
REMARK    4  A    between atoms: C_5  and  C_9
REMARK    5  A    between atoms: C_9  and  O_10
REMARK    6  A    between atoms: C_13  and  C_14
REMARK                            x       y       z     vdW  Elec       q    Type
REMARK                         _______ _______ _______ _____ _____    ______ ____
ROOT
ATOM      1  C   UNL     1      -0.267  -0.667   0.058  0.00  0.00    +0.043 C 
ATOM      2  C   UNL     1      -1.381  -1.378  -0.171  0.00  0.00    +0.018 C 
ENDROOT
BRANCH   2   4
ATOM      3 CL   UNL     1      -3.710  -2.218   0.839  0.00  0.00    -0.079 Cl
ATOM      4  C   UNL     1      -2.709  -0.933   0.202  0.00  0.00    +0.098 C 
ATOM      5  C   UNL     1      -3.211   0.314   0.111  0.00  0.00    +0.221 C 
BRANCH   5   6
ATOM      6  O   UNL     1      -4.505   0.582   0.532  0.00  0.00    -0.500 OA
ATOM      7  H   UNL     1      -5.040  -0.109   0.871  0.00  0.00    +0.292 HD
ENDBRANCH   5   6
BRANCH   5   9
ATOM      8  O   UNL     1      -1.527   1.404  -1.250  0.00  0.00    -0.242 OA
ATOM      9  C   UNL     1      -2.416   1.460  -0.417  0.00  0.00    +0.373 C 
BRANCH   9  10
ATOM     10  O   UNL     1      -2.817   2.606   0.184  0.00  0.00    -0.475 OA
ATOM     11  H   UNL     1      -3.507   2.586   0.818  0.00  0.00    +0.296 HD
ENDBRANCH   9  10
ENDBRANCH   5   9
ENDBRANCH   2   4
BRANCH   1  13
ATOM     12  O   UNL     1       1.177  -2.282  -0.934  0.00  0.00    -0.287 OA
ATOM     13  C   UNL     1       1.053  -1.198  -0.375  0.00  0.00    +0.196 C 
BRANCH  13  14
ATOM     14  C   UNL     1       2.255  -0.382  -0.077  0.00  0.00    +0.039 C 
ATOM     15  C   UNL     1       2.156   1.008  -0.012  0.00  0.00    +0.003 C 
ATOM     16  C   UNL     1       3.484  -1.005   0.139  0.00  0.00    +0.003 C 
ATOM     17  C   UNL     1       3.287   1.775   0.268  0.00  0.00    +0.000 C 
ATOM     18  C   UNL     1       4.615  -0.237   0.420  0.00  0.00    +0.000 C 
ATOM     19  C   UNL     1       4.516   1.153   0.484  0.00  0.00    +0.000 C 
ENDBRANCH  13  14
ENDBRANCH   1  13
TORSDOF 6
