REMARK  Name = 446640
REMARK  5 active torsions:
REMARK  status: ('A' for Active; 'I' for Inactive)
REMARK    1  A    between atoms: C_2  and  C_11
REMARK    2  A    between atoms: C_11  and  C_14
REMARK    3  A    between atoms: N_13  and  C_16
REMARK    4  A    between atoms: C_16  and  C_18
REMARK    5  A    between atoms: C_18  and  O_19
REMARK                            x       y       z     vdW  Elec       q    Type
REMARK                         _______ _______ _______ _____ _____    ______ ____
ROOT
ATOM      1  N   UNL     1       2.880   1.603   0.681  0.00  0.00    -0.312 N 
ATOM      2  C   UNL     1       1.004   1.194  -0.433  0.00  0.00    +0.003 C 
ATOM      3  C   UNL     1       1.735  -0.023  -0.330  0.00  0.00    +0.011 C 
ATOM      4  C   UNL     1       2.907   0.261   0.373  0.00  0.00    +0.048 C 
ATOM      5  C   UNL     1       1.734   2.175   0.198  0.00  0.00    +0.058 C 
ATOM      6  C   UNL     1       1.510  -1.343  -0.769  0.00  0.00    +0.001 C 
ATOM      7  C   UNL     1       3.870  -0.713   0.661  0.00  0.00    +0.015 C 
ATOM      8  C   UNL     1       2.465  -2.328  -0.489  0.00  0.00    +0.000 C 
ATOM      9  C   UNL     1       3.626  -2.015   0.215  0.00  0.00    +0.001 C 
ATOM     10  H   UNL     1       3.582   2.081   1.177  0.00  0.00    +0.152 HD
ENDROOT
BRANCH   2  11
ATOM     11  C   UNL     1      -0.302   1.382  -1.096  0.00  0.00    +0.113 C 
BRANCH  11  14
ATOM     12  O   UNL     1      -1.419   1.356   1.054  0.00  0.00    -0.275 OA
ATOM     13  N   UNL     1      -2.626   0.759  -0.838  0.00  0.00    -0.295 N 
ATOM     14  C   UNL     1      -1.487   1.169  -0.158  0.00  0.00    +0.227 C 
ATOM     15  H   UNL     1      -2.573   0.638  -1.813  0.00  0.00    +0.150 HD
BRANCH  13  16
ATOM     16  C   UNL     1      -3.885   0.502  -0.178  0.00  0.00    +0.200 C 
BRANCH  16  18
ATOM     17  O   UNL     1      -5.027  -1.353   0.845  0.00  0.00    -0.248 OA
ATOM     18  C   UNL     1      -4.031  -0.928   0.274  0.00  0.00    +0.334 C 
BRANCH  18  19
ATOM     19  O   UNL     1      -2.954  -1.697  -0.011  0.00  0.00    -0.479 OA
ATOM     20  H   UNL     1      -2.215  -1.324  -0.450  0.00  0.00    +0.295 HD
ENDBRANCH  18  19
ENDBRANCH  16  18
ENDBRANCH  13  16
ENDBRANCH  11  14
ENDBRANCH   2  11
TORSDOF 5
