REMARK  Name = 25134250
REMARK  9 active torsions:
REMARK  status: ('A' for Active; 'I' for Inactive)
REMARK    1  A    between atoms: N_1  and  C_17
REMARK    2  A    between atoms: C_2  and  N_9
REMARK    3  A    between atoms: C_10  and  C_12
REMARK    4  A    between atoms: C_12  and  C_13
REMARK    5  A    between atoms: C_13  and  C_14
REMARK    6  A    between atoms: C_14  and  S_15
REMARK    7  A    between atoms: C_17  and  C_18
REMARK    8  A    between atoms: C_19  and  O_24
REMARK    9  A    between atoms: C_20  and  O_26
REMARK                            x       y       z     vdW  Elec       q    Type
REMARK                         _______ _______ _______ _____ _____    ______ ____
ROOT
ATOM      1  N   UNL     1      -0.917  -0.895  -0.394  0.00  0.00    +0.390 N 
ATOM      2  C   UNL     1       1.716  -1.695   0.640  0.00  0.00    +0.067 C 
ATOM      3  C   UNL     1       0.896  -2.578  -0.304  0.00  0.00    -0.003 C 
ATOM      4  C   UNL     1       0.794  -0.729   1.387  0.00  0.00    -0.003 C 
ATOM      5  C   UNL     1      -0.039  -1.756  -1.197  0.00  0.00    -0.075 C 
ATOM      6  C   UNL     1      -0.138   0.031   0.438  0.00  0.00    -0.075 C 
ATOM      7  H   UNL     1      -1.460  -1.494   0.228  0.00  0.00    -0.079 HD
ENDROOT
BRANCH   2   9
ATOM      8  O   UNL     1       4.321  -0.900   1.630  0.00  0.00    -0.275 OA
ATOM      9  N   UNL     1       2.747  -0.981  -0.079  0.00  0.00    -0.306 N 
ATOM     10  C   UNL     1       3.971  -0.642   0.482  0.00  0.00    +0.222 C 
ATOM     11  H   UNL     1       2.573  -0.722  -1.012  0.00  0.00    +0.149 HD
BRANCH  10  12
ATOM     12  C   UNL     1       4.853   0.097  -0.511  0.00  0.00    +0.086 C 
BRANCH  12  13
ATOM     13  C   UNL     1       6.208   0.480   0.088  0.00  0.00    +0.021 C 
BRANCH  13  14
ATOM     14  C   UNL     1       7.125   1.226  -0.881  0.00  0.00    +0.054 C 
BRANCH  14  15
ATOM     15  S   UNL     1       8.722   1.684  -0.146  0.00  0.00    -0.168 S 
ATOM     16  H   UNL     1       9.474   2.341  -1.070  0.00  0.00    +0.102 HD
ENDBRANCH  14  15
ENDBRANCH  13  14
ENDBRANCH  12  13
ENDBRANCH  10  12
ENDBRANCH   2   9
BRANCH   1  17
ATOM     17  C   UNL     1      -1.838  -0.156  -1.257  0.00  0.00    -0.044 C 
BRANCH  17  18
ATOM     18  C   UNL     1      -3.038   0.345  -0.498  0.00  0.00    +0.025 C 
ATOM     19  C   UNL     1      -4.062  -0.536  -0.151  0.00  0.00    +0.136 C 
ATOM     20  C   UNL     1      -3.125   1.691  -0.142  0.00  0.00    +0.136 C 
ATOM     21  C   UNL     1      -5.174  -0.071   0.552  0.00  0.00    +0.037 C 
ATOM     22  C   UNL     1      -4.237   2.156   0.561  0.00  0.00    +0.037 C 
ATOM     23  C   UNL     1      -5.261   1.274   0.908  0.00  0.00    +0.006 C 
BRANCH  19  24
ATOM     24  O   UNL     1      -3.994  -1.854  -0.490  0.00  0.00    -0.472 OA
ATOM     25  C   UNL     1      -5.086  -2.682  -0.095  0.00  0.00    +0.252 C 
ENDBRANCH  19  24
BRANCH  20  26
ATOM     26  O   UNL     1      -2.135   2.567  -0.473  0.00  0.00    -0.472 OA
ATOM     27  C   UNL     1      -2.308   3.923  -0.068  0.00  0.00    +0.252 C 
ENDBRANCH  20  26
ENDBRANCH  17  18
ENDBRANCH   1  17
TORSDOF 9
