REMARK  Name = 124969
REMARK  5 active torsions:
REMARK  status: ('A' for Active; 'I' for Inactive)
REMARK    1  A    between atoms: C_1  and  N_3
REMARK    2  A    between atoms: C_1  and  C_8
REMARK    3  A    between atoms: C_1  and  C_13
REMARK    4  A    between atoms: C_8  and  C_12
REMARK    5  A    between atoms: C_13  and  C_14
REMARK                            x       y       z     vdW  Elec       q    Type
REMARK                         _______ _______ _______ _____ _____    ______ ____
ROOT
ATOM      1  C   UNL     1       0.548  -0.154   0.250  0.00  0.00    +0.142 C 
ENDROOT
BRANCH   1   3
ATOM      2  O   UNL     1       1.310  -2.243  -1.617  0.00  0.00    -0.275 OA
ATOM      3  N   UNL     1       0.514  -1.577   0.468  0.00  0.00    -0.299 N 
ATOM      4  C   UNL     1       0.900  -2.504  -0.489  0.00  0.00    +0.223 C 
ATOM      5  C   UNL     1       0.790  -3.921   0.008  0.00  0.00    +0.095 C 
ATOM      6  H   UNL     1       0.202  -1.909   1.341  0.00  0.00    +0.150 HD
ENDBRANCH   1   3
BRANCH   1   8
ATOM      7  O   UNL     1       2.614  -0.223   1.500  0.00  0.00    -0.286 OA
ATOM      8  C   UNL     1       1.955   0.303   0.603  0.00  0.00    +0.262 C 
BRANCH   8  12
ATOM      9  F   UNL     1       1.663   1.843  -1.180  0.00  0.00    -0.163 F 
ATOM     10  F   UNL     1       3.663   1.037  -0.863  0.00  0.00    -0.163 F 
ATOM     11  F   UNL     1       2.842   2.500   0.531  0.00  0.00    -0.163 F 
ATOM     12  C   UNL     1       2.528   1.418  -0.225  0.00  0.00    +0.453 C 
ENDBRANCH   8  12
ENDBRANCH   1   8
BRANCH   1  13
ATOM     13  C   UNL     1      -0.478   0.597   1.101  0.00  0.00    +0.054 C 
BRANCH  13  14
ATOM     14  C   UNL     1      -1.869   0.539   0.518  0.00  0.00    -0.020 C 
ATOM     15  C   UNL     1      -2.276   1.524  -0.369  0.00  0.00    -0.004 C 
ATOM     16  C   UNL     1      -2.716  -0.496   0.881  0.00  0.00    -0.004 C 
ATOM     17  C   UNL     1      -3.561   1.471  -0.908  0.00  0.00    -0.000 C 
ATOM     18  C   UNL     1      -4.002  -0.549   0.343  0.00  0.00    -0.000 C 
ATOM     19  C   UNL     1      -4.424   0.435  -0.552  0.00  0.00    -0.000 C 
ENDBRANCH  13  14
ENDBRANCH   1  13
TORSDOF 5
