REMARK  Name = 11840917
REMARK  6 active torsions:
REMARK  status: ('A' for Active; 'I' for Inactive)
REMARK    1  A    between atoms: C_3  and  C_20
REMARK    2  A    between atoms: C_4  and  C_8
REMARK    3  A    between atoms: C_7  and  C_10
REMARK    4  A    between atoms: C_10  and  C_11
REMARK    5  A    between atoms: C_10  and  N_16
REMARK    6  A    between atoms: C_20  and  N_21
REMARK                            x       y       z     vdW  Elec       q    Type
REMARK                         _______ _______ _______ _____ _____    ______ ____
ROOT
ATOM      1  O   UNL     1       0.231   1.829  -0.597  0.00  0.00    -0.277 OA
ATOM      2  N   UNL     1      -1.186   0.007  -0.387  0.00  0.00    -0.276 N 
ATOM      3  C   UNL     1      -2.439   0.776  -0.364  0.00  0.00    +0.054 C 
ATOM      4  C   UNL     1      -1.452  -1.437  -0.381  0.00  0.00    +0.140 C 
ATOM      5  C   UNL     1      -3.544  -0.281  -0.246  0.00  0.00    +0.020 C 
ATOM      6  C   UNL     1      -2.907  -1.532  -0.839  0.00  0.00    +0.035 C 
ATOM      7  C   UNL     1       0.048   0.610  -0.599  0.00  0.00    +0.206 C 
ENDROOT
BRANCH   4   8
ATOM      8  C   UNL     1      -1.269  -1.998   0.967  0.00  0.00    -0.058 C 
ATOM      9  C   UNL     1      -1.119  -2.457   2.066  0.00  0.00    -0.012 C 
ENDBRANCH   4   8
BRANCH   7  10
ATOM     10  C   UNL     1       1.207  -0.320  -0.856  0.00  0.00    +0.013 C 
BRANCH  10  11
ATOM     11  C   UNL     1       2.500   0.319  -0.381  0.00  0.00    -0.011 C 
ATOM     12  C   UNL     1       2.518   0.596   1.119  0.00  0.00    -0.002 C 
ATOM     13  C   UNL     1       3.718  -0.581  -0.561  0.00  0.00    -0.002 C 
ATOM     14  C   UNL     1       3.997   0.784   1.444  0.00  0.00    -0.000 C 
ATOM     15  C   UNL     1       4.769   0.036   0.356  0.00  0.00    -0.000 C 
ENDBRANCH  10  11
BRANCH  10  16
ATOM     16  N   UNL     1       1.240  -0.566  -2.288  0.00  0.00    +0.387 N 
ATOM     17  H   UNL     1       2.014  -1.194  -2.507  0.00  0.00    -0.089 HD
ATOM     18  H   UNL     1       1.369   0.317  -2.782  0.00  0.00    -0.089 HD
ATOM     19  H   UNL     1       0.362  -0.994  -2.580  0.00  0.00    -0.089 HD
ENDBRANCH  10  16
ENDBRANCH   7  10
BRANCH   3  20
ATOM     20  C   UNL     1      -2.516   1.779   0.781  0.00  0.00    -0.066 C 
BRANCH  20  21
ATOM     21  N   UNL     1      -3.796   2.437   0.768  0.00  0.00    +0.382 N 
ATOM     22  H   UNL     1      -3.843   3.107   1.536  0.00  0.00    -0.089 HD
ATOM     23  H   UNL     1      -4.537   1.744   0.877  0.00  0.00    -0.089 HD
ATOM     24  H   UNL     1      -3.918   2.928  -0.118  0.00  0.00    -0.089 HD
ENDBRANCH  20  21
ENDBRANCH   3  20
TORSDOF 6
