REMARK  Name = 6420118
REMARK  2 active torsions:
REMARK  status: ('A' for Active; 'I' for Inactive)
REMARK    1  A    between atoms: S_1  and  C_7
REMARK    2  A    between atoms: S_1  and  C_18
REMARK                            x       y       z     vdW  Elec       q    Type
REMARK                         _______ _______ _______ _____ _____    ______ ____
ROOT
ATOM      1  S   UNL     1      -1.255   1.755  -0.339  0.00  0.00    +0.077 S 
ATOM      2  O   UNL     1      -1.421   2.123  -1.728  0.00  0.00    -0.160 OA
ATOM      3  O   UNL     1      -1.372   2.689   0.760  0.00  0.00    -0.160 OA
ENDROOT
BRANCH   1   7
ATOM      4 CL   UNL     1       5.746  -2.088  -0.282  0.00  0.00    -0.082 Cl
ATOM      5  O   UNL     1       1.231   1.449   0.700  0.00  0.00    -0.437 OA
ATOM      6  C   UNL     1       0.880  -0.055  -0.936  0.00  0.00    +0.034 A 
ATOM      7  C   UNL     1       0.343   0.989  -0.219  0.00  0.00    +0.253 A 
ATOM      8  C   UNL     1       2.190  -0.257  -0.428  0.00  0.00    +0.036 A 
ATOM      9  C   UNL     1       2.357   0.692   0.575  0.00  0.00    +0.147 A 
ATOM     10  C   UNL     1       0.224  -0.813  -2.019  0.00  0.00    +0.036 C 
ATOM     11  C   UNL     1       3.252  -1.136  -0.705  0.00  0.00    +0.014 C 
ATOM     12  C   UNL     1       3.518   0.831   1.334  0.00  0.00    +0.038 C 
ATOM     13  C   UNL     1       4.433  -1.020   0.042  0.00  0.00    +0.058 C 
ATOM     14  C   UNL     1       4.561  -0.053   1.042  0.00  0.00    +0.015 C 
ENDBRANCH   1   7
BRANCH   1  18
ATOM     15  O   UNL     1      -5.049  -2.359   0.642  0.00  0.00    -0.268 OA
ATOM     16  N   UNL     1      -3.114   0.109  -1.022  0.00  0.00    -0.160 NA
ATOM     17  N   UNL     1      -4.016  -0.874  -0.776  0.00  0.00    -0.201 N 
ATOM     18  C   UNL     1      -2.410   0.493  -0.013  0.00  0.00    +0.211 C 
ATOM     19  C   UNL     1      -2.489  -0.021   1.358  0.00  0.00    +0.045 C 
ATOM     20  C   UNL     1      -3.385  -0.984   1.567  0.00  0.00    +0.062 C 
ATOM     21  C   UNL     1      -4.223  -1.470   0.448  0.00  0.00    +0.265 C 
ATOM     22  H   UNL     1      -4.566  -1.185  -1.532  0.00  0.00    +0.178 HD
ENDBRANCH   1  18
TORSDOF 2
