REMARK  Name = 447962
REMARK  3 active torsions:
REMARK  status: ('A' for Active; 'I' for Inactive)
REMARK    1  A    between atoms: N_1  and  C_17
REMARK    2  A    between atoms: C_4  and  C_11
REMARK    3  A    between atoms: C_16  and  N_22
REMARK                            x       y       z     vdW  Elec       q    Type
REMARK                         _______ _______ _______ _____ _____    ______ ____
ROOT
ATOM      1  N   UNL     1      -0.971  -2.337   0.031  0.00  0.00    -0.247 N 
ATOM      2  N   UNL     1       0.975  -1.025   0.052  0.00  0.00    -0.341 NA
ATOM      3  N   UNL     1       1.104  -3.432   0.070  0.00  0.00    -0.170 NA
ATOM      4  C   UNL     1       2.324  -0.990   0.073  0.00  0.00    +0.140 C 
ATOM      5  C   UNL     1       0.436  -2.261   0.052  0.00  0.00    +0.148 C 
ATOM      6  C   UNL     1       3.120  -2.117   0.092  0.00  0.00    +0.051 C 
ATOM      7  C   UNL     1       2.449  -3.323   0.090  0.00  0.00    +0.114 C 
ATOM      8  H   UNL     1      -1.317  -3.258   0.033  0.00  0.00    +0.165 HD
ENDROOT
BRANCH   4  11
ATOM      9  S   UNL     1       3.208   1.125   1.562  0.00  0.00    -0.074 S 
ATOM     10  N   UNL     1       3.787   2.383  -0.621  0.00  0.00    -0.407 NA
ATOM     11  C   UNL     1       2.892   0.332   0.072  0.00  0.00    +0.155 C 
ATOM     12  C   UNL     1       3.264   1.154  -0.973  0.00  0.00    +0.104 C 
ATOM     13  C   UNL     1       3.805   2.477   0.690  0.00  0.00    +0.135 C 
ATOM     14  C   UNL     1       3.156   0.838  -2.413  0.00  0.00    +0.063 C 
ATOM     15  C   UNL     1       4.302   3.651   1.439  0.00  0.00    +0.074 C 
ENDBRANCH   4  11
BRANCH   1  17
ATOM     16  C   UNL     1      -3.974   0.598  -0.029  0.00  0.00    +0.048 C 
ATOM     17  C   UNL     1      -1.980  -1.352   0.009  0.00  0.00    +0.058 C 
ATOM     18  C   UNL     1      -4.216  -0.635   0.576  0.00  0.00    +0.016 C 
ATOM     19  C   UNL     1      -2.735   0.856  -0.616  0.00  0.00    +0.016 C 
ATOM     20  C   UNL     1      -3.219  -1.610   0.595  0.00  0.00    +0.017 C 
ATOM     21  C   UNL     1      -1.738  -0.119  -0.597  0.00  0.00    +0.017 C 
BRANCH  16  22
ATOM     22  N   UNL     1      -4.982   1.584  -0.047  0.00  0.00    -0.304 N 
ATOM     23  C   UNL     1      -5.959   1.655   1.021  0.00  0.00    +0.112 C 
ATOM     24  C   UNL     1      -5.046   2.549  -1.127  0.00  0.00    +0.112 C 
ENDBRANCH  16  22
ENDBRANCH   1  17
TORSDOF 3
