REMARK  Name = 324690
REMARK  2 active torsions:
REMARK  status: ('A' for Active; 'I' for Inactive)
REMARK    1  A    between atoms: C_1  and  C_11
REMARK    2  A    between atoms: C_4  and  S_7
REMARK                            x       y       z     vdW  Elec       q    Type
REMARK                         _______ _______ _______ _____ _____    ______ ____
ROOT
ATOM      1  C   UNL     1      -1.399   0.003  -0.008  0.00  0.00    -0.023 C 
ATOM      2  C   UNL     1      -0.748  -1.205  -0.024  0.00  0.00    -0.003 C 
ATOM      3  C   UNL     1      -0.749   1.211  -0.014  0.00  0.00    -0.003 C 
ATOM      4  C   UNL     1       1.344   0.004  -0.053  0.00  0.00    +0.112 C 
ATOM      5  C   UNL     1       0.647  -1.204  -0.046  0.00  0.00    +0.019 C 
ATOM      6  C   UNL     1       0.646   1.212  -0.037  0.00  0.00    +0.019 C 
ENDROOT
BRANCH   4   7
ATOM      7  S   UNL     1       3.090   0.005  -0.082  0.00  0.00    +0.042 S 
ATOM      8  O   UNL     1       3.545  -0.001   1.488  0.00  0.00    -0.065 OA
ATOM      9  O   UNL     1       3.531  -1.258  -0.657  0.00  0.00    -0.065 OA
ATOM     10  O   UNL     1       3.503   1.271  -0.667  0.00  0.00    -0.065 OA
ENDBRANCH   4   7
BRANCH   1  11
ATOM     11  C   UNL     1      -2.937   0.002   0.018  0.00  0.00    +0.019 C 
ATOM     12  C   UNL     1      -3.435  -0.731   1.282  0.00  0.00    +0.004 C 
ATOM     13  C   UNL     1      -3.477  -0.723  -1.234  0.00  0.00    +0.004 C 
ATOM     14  C   UNL     1      -3.562   1.415   0.033  0.00  0.00    +0.004 C 
ENDBRANCH   1  11
TORSDOF 2
