REMARK  Name = 24748047
REMARK  10 active torsions:
REMARK  status: ('A' for Active; 'I' for Inactive)
REMARK    1  A    between atoms: C_1  and  C_2
REMARK    2  A    between atoms: C_1  and  C_15
REMARK    3  A    between atoms: C_5  and  O_8
REMARK    4  A    between atoms: O_8  and  C_9
REMARK    5  A    between atoms: C_15  and  C_16
REMARK    6  A    between atoms: C_16  and  C_17
REMARK    7  A    between atoms: C_17  and  S_18
REMARK    8  A    between atoms: C_17  and  P_22
REMARK    9  A    between atoms: P_22  and  O_24
REMARK   10  A    between atoms: P_22  and  O_26
REMARK                            x       y       z     vdW  Elec       q    Type
REMARK                         _______ _______ _______ _____ _____    ______ ____
ROOT
ATOM      1  C   UNL     1      -0.346  -1.726   1.492  0.00  0.00    +0.027 C 
ENDROOT
BRANCH   1   2
ATOM      2  C   UNL     1       0.894  -2.076   0.708  0.00  0.00    -0.019 C 
ATOM      3  C   UNL     1       1.998  -1.224   0.731  0.00  0.00    +0.033 C 
ATOM      4  C   UNL     1       0.937  -3.253  -0.040  0.00  0.00    -0.004 C 
ATOM      5  C   UNL     1       3.145  -1.548   0.007  0.00  0.00    +0.145 C 
ATOM      6  C   UNL     1       2.084  -3.577  -0.765  0.00  0.00    +0.003 C 
ATOM      7  C   UNL     1       3.188  -2.725  -0.741  0.00  0.00    +0.037 C 
BRANCH   5   8
ATOM      8  O   UNL     1       4.222  -0.717   0.030  0.00  0.00    -0.454 OA
BRANCH   8   9
ATOM      9  C   UNL     1       3.991   0.640  -0.118  0.00  0.00    +0.145 C 
ATOM     10  C   UNL     1       3.116   1.096  -1.104  0.00  0.00    +0.037 C 
ATOM     11  C   UNL     1       4.635   1.553   0.718  0.00  0.00    +0.037 C 
ATOM     12  C   UNL     1       2.883   2.463  -1.253  0.00  0.00    +0.003 C 
ATOM     13  C   UNL     1       4.402   2.920   0.569  0.00  0.00    +0.003 C 
ATOM     14  C   UNL     1       3.526   3.375  -0.416  0.00  0.00    +0.000 C 
ENDBRANCH   8   9
ENDBRANCH   5   8
ENDBRANCH   1   2
BRANCH   1  15
ATOM     15  C   UNL     1      -1.364  -0.893   0.701  0.00  0.00    +0.007 C 
BRANCH  15  16
ATOM     16  C   UNL     1      -2.619  -0.560   1.517  0.00  0.00    +0.037 C 
BRANCH  16  17
ATOM     17  C   UNL     1      -3.688   0.248   0.768  0.00  0.00    +0.238 C 
BRANCH  17  18
ATOM     18  S   UNL     1      -3.113   1.896   0.342  0.00  0.00    +0.032 S 
ATOM     19  O   UNL     1      -4.548   2.530  -0.100  0.00  0.00    -0.069 OA
ATOM     20  O   UNL     1      -2.285   1.801  -0.845  0.00  0.00    -0.069 OA
ATOM     21  O   UNL     1      -2.650   2.584   1.529  0.00  0.00    -0.069 OA
ENDBRANCH  17  18
BRANCH  17  22
ATOM     22  P   UNL     1      -4.355  -0.516  -0.704  0.00  0.00    +0.359 P 
ATOM     23  O   UNL     1      -3.523  -0.411  -1.947  0.00  0.00    -0.256 OA
BRANCH  22  24
ATOM     24  O   UNL     1      -5.825   0.150  -0.828  0.00  0.00    -0.322 OA
ATOM     25  H   UNL     1      -6.276  -0.205  -1.609  0.00  0.00    +0.220 HD
ENDBRANCH  22  24
BRANCH  22  26
ATOM     26  O   UNL     1      -4.703  -2.029  -0.250  0.00  0.00    -0.322 OA
ATOM     27  H   UNL     1      -5.075  -2.515  -1.002  0.00  0.00    +0.220 HD
ENDBRANCH  22  26
ENDBRANCH  17  22
ENDBRANCH  16  17
ENDBRANCH  15  16
ENDBRANCH   1  15
TORSDOF 10
