REMARK  Name = 4474777
REMARK  6 active torsions:
REMARK  status: ('A' for Active; 'I' for Inactive)
REMARK    1  A    between atoms: C_1  and  O_10
REMARK    2  A    between atoms: C_4  and  N_9
REMARK    3  A    between atoms: O_10  and  C_11
REMARK    4  A    between atoms: C_11  and  C_12
REMARK    5  A    between atoms: C_12  and  C_13
REMARK    6  A    between atoms: C_13  and  O_14
REMARK                            x       y       z     vdW  Elec       q    Type
REMARK                         _______ _______ _______ _____ _____    ______ ____
ROOT
ATOM      1  C   UNL     1       0.273   0.492  -0.420  0.00  0.00    +0.139 C 
ATOM      2  C   UNL     1      -0.581   1.528  -0.059  0.00  0.00    +0.039 C 
ATOM      3  C   UNL     1      -0.204  -0.806  -0.553  0.00  0.00    +0.039 C 
ATOM      4  C   UNL     1      -2.417  -0.038   0.041  0.00  0.00    +0.143 C 
ATOM      5  C   UNL     1      -1.931   1.262   0.172  0.00  0.00    +0.027 C 
ATOM      6  C   UNL     1      -1.554  -1.073  -0.322  0.00  0.00    +0.027 C 
ENDROOT
BRANCH   4   9
ATOM      7  O   UNL     1      -4.549   0.634   0.606  0.00  0.00    -0.126 OA
ATOM      8  O   UNL     1      -4.208  -1.487   0.154  0.00  0.00    -0.126 OA
ATOM      9  N   UNL     1      -3.791  -0.310   0.278  0.00  0.00    +0.058 N 
ENDBRANCH   4   9
BRANCH   1  10
ATOM     10  O   UNL     1       1.599   0.754  -0.648  0.00  0.00    -0.475 OA
BRANCH  10  11
ATOM     11  C   UNL     1       2.517  -0.293  -0.367  0.00  0.00    +0.208 C 
BRANCH  11  12
ATOM     12  C   UNL     1       3.864   0.293   0.028  0.00  0.00    +0.079 C 
BRANCH  12  13
ATOM     13  C   UNL     1       4.880  -0.788   0.359  0.00  0.00    +0.141 C 
BRANCH  13  14
ATOM     14  O   UNL     1       6.103  -0.169   0.731  0.00  0.00    -0.382 OA
ATOM     15  H   UNL     1       6.759  -0.852   0.944  0.00  0.00    +0.210 HD
ENDBRANCH  13  14
ENDBRANCH  12  13
ENDBRANCH  11  12
ENDBRANCH  10  11
ENDBRANCH   1  10
TORSDOF 6
