REMARK  Name = 25113137
REMARK  4 active torsions:
REMARK  status: ('A' for Active; 'I' for Inactive)
REMARK    1  A    between atoms: C_6  and  C_16
REMARK    2  A    between atoms: C_16  and  N_18
REMARK    3  A    between atoms: C_19  and  O_21
REMARK    4  A    between atoms: O_21  and  C_22
REMARK                            x       y       z     vdW  Elec       q    Type
REMARK                         _______ _______ _______ _____ _____    ______ ____
ROOT
ATOM      1  O   UNL     1       1.620  -1.705   1.666  0.00  0.00    -0.209 OA
ATOM      2  N   UNL     1       2.005   2.150  -0.773  0.00  0.00    -0.300 N 
ATOM      3  N   UNL     1       3.678   0.443  -1.085  0.00  0.00    -0.264 N 
ATOM      4  N   UNL     1       3.417  -1.548   0.221  0.00  0.00    -0.302 NA
ATOM      5  N   UNL     1       5.208  -1.276  -1.284  0.00  0.00    -0.320 N 
ATOM      6  C   UNL     1       0.752   1.100   0.758  0.00  0.00    +0.027 C 
ATOM      7  C   UNL     1       1.835   0.259   0.409  0.00  0.00    +0.121 C 
ATOM      8  C   UNL     1       2.569   0.941  -0.525  0.00  0.00    +0.116 C 
ATOM      9  C   UNL     1       0.881   2.261   0.014  0.00  0.00    +0.061 C 
ATOM     10  C   UNL     1       2.254  -1.068   0.832  0.00  0.00    +0.209 C 
ATOM     11  C   UNL     1       4.066  -0.827  -0.671  0.00  0.00    +0.248 C 
ATOM     12  H   UNL     1       2.341   2.828  -1.403  0.00  0.00    +0.153 HD
ATOM     13  H   UNL     1       4.193   0.949  -1.755  0.00  0.00    +0.157 HD
ATOM     14  H   UNL     1       5.666  -0.709  -1.946  0.00  0.00    +0.146 HD
ATOM     15  H   UNL     1       5.569  -2.164  -1.063  0.00  0.00    +0.146 HD
ENDROOT
BRANCH   6  16
ATOM     16  C   UNL     1      -0.322   0.811   1.728  0.00  0.00    +0.122 C 
BRANCH  16  18
ATOM     17  O   UNL     1      -2.689   1.402   0.152  0.00  0.00    -0.226 OA
ATOM     18  N   UNL     1      -1.304  -0.121   1.221  0.00  0.00    -0.266 N 
ATOM     19  C   UNL     1      -2.402   0.255   0.477  0.00  0.00    +0.402 C 
ATOM     20  H   UNL     1      -1.182  -1.078   1.418  0.00  0.00    +0.153 HD
BRANCH  19  21
ATOM     21  O   UNL     1      -3.135  -0.851   0.150  0.00  0.00    -0.442 OA
BRANCH  21  22
ATOM     22  C   UNL     1      -4.313  -0.611  -0.628  0.00  0.00    +0.138 C 
ATOM     23  C   UNL     1      -3.901   0.049  -1.943  0.00  0.00    +0.044 C 
ATOM     24  C   UNL     1      -4.975  -1.962  -0.889  0.00  0.00    +0.044 C 
ATOM     25  C   UNL     1      -5.245   0.299   0.170  0.00  0.00    +0.044 C 
ENDBRANCH  21  22
ENDBRANCH  19  21
ENDBRANCH  16  18
ENDBRANCH   6  16
TORSDOF 4
