REMARK  Name = 10089048
REMARK  4 active torsions:
REMARK  status: ('A' for Active; 'I' for Inactive)
REMARK    1  A    between atoms: C_1  and  C_23
REMARK    2  A    between atoms: C_3  and  C_8
REMARK    3  A    between atoms: C_12  and  C_18
REMARK    4  A    between atoms: N_22  and  C_25
REMARK                            x       y       z     vdW  Elec       q    Type
REMARK                         _______ _______ _______ _____ _____    ______ ____
ROOT
ATOM      1  C   UNL     1      -3.405   0.762   0.240  0.00  0.00    +0.053 C 
ATOM      2  C   UNL     1      -2.077   0.348   0.140  0.00  0.00    +0.004 C 
ATOM      3  C   UNL     1      -1.052   1.294   0.117  0.00  0.00    -0.004 C 
ATOM      4  C   UNL     1      -3.708   2.122   0.316  0.00  0.00    +0.004 C 
ATOM      5  C   UNL     1      -1.355   2.653   0.193  0.00  0.00    -0.022 C 
ATOM      6  C   UNL     1      -2.683   3.067   0.293  0.00  0.00    -0.004 C 
ATOM      7  C   UNL     1      -0.283   3.695   0.171  0.00  0.00    +0.031 C 
ENDROOT
BRANCH   3   8
ATOM      8  C   UNL     1       0.320   0.838   0.013  0.00  0.00    -0.004 C 
ATOM      9  C   UNL     1       0.928   0.662  -1.230  0.00  0.00    -0.022 C 
ATOM     10  C   UNL     1       1.034   0.574   1.182  0.00  0.00    -0.000 C 
ATOM     11  C   UNL     1       2.250   0.223  -1.304  0.00  0.00    +0.000 C 
ATOM     12  C   UNL     1       2.964  -0.041  -0.135  0.00  0.00    +0.055 C 
ATOM     13  C   UNL     1       2.356   0.135   1.108  0.00  0.00    +0.005 C 
ATOM     14  C   UNL     1       0.194   0.934  -2.504  0.00  0.00    +0.031 C 
BRANCH  12  18
ATOM     15  O   UNL     1       4.941  -0.725   0.981  0.00  0.00    -0.420 OA
ATOM     16  N   UNL     1       5.087  -0.724  -1.252  0.00  0.00    -0.107 NA
ATOM     17  N   UNL     1       6.303  -1.140  -0.744  0.00  0.00    -0.111 NA
ATOM     18  C   UNL     1       4.331  -0.496  -0.210  0.00  0.00    +0.250 A 
ATOM     19  C   UNL     1       6.172  -1.125   0.562  0.00  0.00    +0.227 A 
ATOM     20  C   UNL     1       7.146  -1.472   1.605  0.00  0.00    +0.097 C 
ENDBRANCH  12  18
ENDBRANCH   3   8
BRANCH   1  23
ATOM     21  O   UNL     1      -5.548   0.022   0.844  0.00  0.00    -0.270 OA
ATOM     22  N   UNL     1      -4.230  -1.446  -0.370  0.00  0.00    -0.302 N 
ATOM     23  C   UNL     1      -4.475  -0.222   0.265  0.00  0.00    +0.246 C 
ATOM     24  H   UNL     1      -3.359  -1.578  -0.811  0.00  0.00    +0.150 HD
BRANCH  22  25
ATOM     25  C   UNL     1      -5.183  -2.520  -0.409  0.00  0.00    +0.072 C 
ATOM     26  C   UNL     1      -5.291  -3.487   0.724  0.00  0.00    +0.021 C 
ATOM     27  C   UNL     1      -4.734  -3.932  -0.597  0.00  0.00    +0.021 C 
ENDBRANCH  22  25
ENDBRANCH   1  23
TORSDOF 4
