REMARK  Name = 831616
REMARK  6 active torsions:
REMARK  status: ('A' for Active; 'I' for Inactive)
REMARK    1  A    between atoms: C_1  and  O_2
REMARK    2  A    between atoms: C_1  and  C_4
REMARK    3  A    between atoms: C_1  and  C_12
REMARK    4  A    between atoms: C_4  and  N_6
REMARK    5  A    between atoms: C_12  and  O_13
REMARK    6  A    between atoms: O_13  and  C_14
REMARK                            x       y       z     vdW  Elec       q    Type
REMARK                         _______ _______ _______ _____ _____    ______ ____
ROOT
ATOM      1  C   UNL     1       1.303  -2.067   0.818  0.00  0.00    +0.133 C 
ENDROOT
BRANCH   1   2
ATOM      2  O   UNL     1       1.089  -3.454   0.541  0.00  0.00    -0.383 OA
ATOM      3  H   UNL     1       1.934  -3.872   0.312  0.00  0.00    +0.210 HD
ENDBRANCH   1   2
BRANCH   1   4
ATOM      4  C   UNL     1       1.969  -1.433  -0.405  0.00  0.00    -0.043 C 
BRANCH   4   6
ATOM      5  O   UNL     1       4.106   2.155   0.010  0.00  0.00    -0.358 OA
ATOM      6  N   UNL     1       2.284  -0.022  -0.189  0.00  0.00    +0.392 N 
ATOM      7  C   UNL     1       3.157   0.145   0.981  0.00  0.00    -0.045 C 
ATOM      8  C   UNL     1       2.921   0.558  -1.380  0.00  0.00    -0.045 C 
ATOM      9  C   UNL     1       3.481   1.623   1.178  0.00  0.00    +0.119 C 
ATOM     10  C   UNL     1       3.251   2.026  -1.127  0.00  0.00    +0.119 C 
ATOM     11  H   UNL     1       1.407   0.470  -0.015  0.00  0.00    -0.079 HD
ENDBRANCH   4   6
ENDBRANCH   1   4
BRANCH   1  12
ATOM     12  C   UNL     1      -0.037  -1.428   1.176  0.00  0.00    +0.232 C 
BRANCH  12  13
ATOM     13  O   UNL     1      -0.914  -1.543   0.059  0.00  0.00    -0.473 OA
BRANCH  13  14
ATOM     14  C   UNL     1      -1.863  -0.565  -0.081  0.00  0.00    +0.134 C 
ATOM     15  C   UNL     1      -2.325  -0.206  -1.344  0.00  0.00    +0.012 C 
ATOM     16  C   UNL     1      -2.357   0.064   1.057  0.00  0.00    +0.032 C 
ATOM     17  C   UNL     1      -3.324   1.062   0.931  0.00  0.00    -0.019 C 
ATOM     18  C   UNL     1      -3.291   0.792  -1.469  0.00  0.00    -0.002 C 
ATOM     19  C   UNL     1      -3.790   1.426  -0.332  0.00  0.00    -0.004 C 
ATOM     20  C   UNL     1      -1.800  -0.873  -2.572  0.00  0.00    +0.034 C 
ATOM     21  C   UNL     1      -3.858   1.740   2.147  0.00  0.00    +0.031 C 
ENDBRANCH  13  14
ENDBRANCH  12  13
ENDBRANCH   1  12
TORSDOF 6
