REMARK  Name = 24741806
REMARK  1 active torsions:
REMARK  status: ('A' for Active; 'I' for Inactive)
REMARK    1  A    between atoms: N_6  and  C_14
REMARK                            x       y       z     vdW  Elec       q    Type
REMARK                         _______ _______ _______ _____ _____    ______ ____
ROOT
ATOM      1  O   UNL     1      -2.101  -2.563   0.000  0.00  0.00    -0.209 OA
ATOM      2  N   UNL     1       2.913  -0.992   0.000  0.00  0.00    -0.305 N 
ATOM      3  N   UNL     1      -2.021   1.441   0.001  0.00  0.00    -0.275 N 
ATOM      4  N   UNL     1       2.924   1.230   0.000  0.00  0.00    -0.305 N 
ATOM      5  N   UNL     1      -3.262  -0.590  -0.001  0.00  0.00    -0.302 NA
ATOM      6  N   UNL     1      -4.314   1.504  -0.001  0.00  0.00    -0.320 N 
ATOM      7  C   UNL     1       1.592  -0.620   0.000  0.00  0.00    +0.061 C 
ATOM      8  C   UNL     1      -0.792   0.774   0.001  0.00  0.00    +0.064 C 
ATOM      9  C   UNL     1      -0.785  -0.629   0.000  0.00  0.00    +0.110 C 
ATOM     10  C   UNL     1       1.626   0.771   0.001  0.00  0.00    +0.061 C 
ATOM     11  C   UNL     1       0.411  -1.363   0.000  0.00  0.00    +0.030 C 
ATOM     12  C   UNL     1       0.417   1.488   0.001  0.00  0.00    +0.031 C 
ATOM     13  C   UNL     1       3.668   0.147   0.000  0.00  0.00    +0.204 C 
ATOM     14  C   UNL     1      -2.098  -1.336   0.000  0.00  0.00    +0.208 C 
ATOM     15  C   UNL     1      -3.191   0.715   0.000  0.00  0.00    +0.248 C 
ATOM     16  H   UNL     1       3.255  -1.915   0.000  0.00  0.00    +0.150 HD
ATOM     17  H   UNL     1      -2.050   2.425   0.001  0.00  0.00    +0.156 HD
ATOM     18  H   UNL     1       3.228   2.166  -0.001  0.00  0.00    +0.150 HD
ATOM     19  H   UNL     1      -4.227   2.485  -0.001  0.00  0.00    +0.146 HD
ATOM     20  H   UNL     1      -5.207   1.089  -0.002  0.00  0.00    +0.146 HD
ENDROOT
BRANCH  13  21
ATOM     21  N   UNL     1       5.014   0.024  -0.001  0.00  0.00    -0.291 NA
ATOM     22  H   UNL     1       5.426  -0.870  -0.001  0.00  0.00    +0.122 HD
ATOM     23  H   UNL     1       5.582   0.828  -0.003  0.00  0.00    +0.122 HD
ENDBRANCH  13  21
TORSDOF 1
