REMARK  Name = 16741237
REMARK  5 active torsions:
REMARK  status: ('A' for Active; 'I' for Inactive)
REMARK    1  A    between atoms: C_5  and  C_23
REMARK    2  A    between atoms: C_7  and  C_29
REMARK    3  A    between atoms: N_28  and  C_31
REMARK    4  A    between atoms: C_31  and  C_32
REMARK    5  A    between atoms: C_32  and  N_33
REMARK                            x       y       z     vdW  Elec       q    Type
REMARK                         _______ _______ _______ _____ _____    ______ ____
ROOT
ATOM      1  S   UNL     1       1.646  -2.880  -0.895  0.00  0.00    -0.059 S 
ATOM      2  O   UNL     1       0.884   1.475   0.559  0.00  0.00    -0.270 OA
ATOM      3  N   UNL     1       0.354  -0.654  -0.284  0.00  0.00    -0.251 N 
ATOM      4  N   UNL     1       2.765  -0.745   0.039  0.00  0.00    -0.380 NA
ATOM      5  C   UNL     1       0.059   0.648   0.140  0.00  0.00    +0.252 C 
ATOM      6  C   UNL     1       1.612  -1.264  -0.318  0.00  0.00    +0.213 C 
ATOM      7  C   UNL     1       3.757  -1.687  -0.154  0.00  0.00    +0.175 C 
ATOM      8  C   UNL     1       3.344  -2.904  -0.654  0.00  0.00    +0.129 C 
ATOM      9  H   UNL     1      -0.407  -1.199  -0.592  0.00  0.00    +0.158 HD
ENDROOT
BRANCH   5  23
ATOM     10  O   UNL     1      -8.241   1.209  -0.095  0.00  0.00    -0.269 OA
ATOM     11  N   UNL     1      -5.363   1.914  -0.204  0.00  0.00    -0.350 N 
ATOM     12  N   UNL     1      -7.612  -1.006  -0.186  0.00  0.00    -0.299 N 
ATOM     13  C   UNL     1      -5.227  -1.709   0.207  0.00  0.00    +0.044 C 
ATOM     14  C   UNL     1      -4.928  -0.251   0.040  0.00  0.00    +0.001 A 
ATOM     15  C   UNL     1      -6.585  -2.015  -0.461  0.00  0.00    +0.094 C 
ATOM     16  C   UNL     1      -5.941   0.677  -0.108  0.00  0.00    +0.107 A 
ATOM     17  C   UNL     1      -3.688   0.445   0.011  0.00  0.00    +0.013 A 
ATOM     18  C   UNL     1      -3.990   1.802  -0.144  0.00  0.00    +0.056 A 
ATOM     19  C   UNL     1      -5.244  -2.105   1.685  0.00  0.00    +0.007 C 
ATOM     20  C   UNL     1      -7.350   0.363  -0.133  0.00  0.00    +0.261 C 
ATOM     21  C   UNL     1      -2.336   0.060   0.108  0.00  0.00    +0.006 C 
ATOM     22  C   UNL     1      -3.003   2.791  -0.211  0.00  0.00    +0.017 C 
ATOM     23  C   UNL     1      -1.339   1.040   0.041  0.00  0.00    +0.054 C 
ATOM     24  C   UNL     1      -1.669   2.384  -0.117  0.00  0.00    +0.006 C 
ATOM     25  H   UNL     1      -5.856   2.761  -0.302  0.00  0.00    +0.166 HD
ATOM     26  H   UNL     1      -8.535  -1.310  -0.031  0.00  0.00    +0.150 HD
ENDBRANCH   5  23
BRANCH   7  29
ATOM     27  O   UNL     1       6.059  -2.181  -0.027  0.00  0.00    -0.268 OA
ATOM     28  N   UNL     1       5.379  -0.087   0.659  0.00  0.00    -0.301 N 
ATOM     29  C   UNL     1       5.123  -1.374   0.157  0.00  0.00    +0.272 C 
ATOM     30  H   UNL     1       4.617   0.523   0.791  0.00  0.00    +0.150 HD
BRANCH  28  31
ATOM     31  C   UNL     1       6.703   0.388   0.991  0.00  0.00    +0.067 C 
BRANCH  31  32
ATOM     32  C   UNL     1       7.366   1.054  -0.206  0.00  0.00    -0.056 C 
BRANCH  32  33
ATOM     33  N   UNL     1       8.687   1.551   0.158  0.00  0.00    +0.385 N 
ATOM     34  C   UNL     1       9.116   2.603  -0.766  0.00  0.00    -0.101 C 
ATOM     35  C   UNL     1       9.663   0.460   0.172  0.00  0.00    -0.101 C 
ATOM     36  H   UNL     1       8.629   1.947   1.096  0.00  0.00    -0.080 HD
ENDBRANCH  32  33
ENDBRANCH  31  32
ENDBRANCH  28  31
ENDBRANCH   7  29
TORSDOF 5
