REMARK  Name = 17173
REMARK  5 active torsions:
REMARK  status: ('A' for Active; 'I' for Inactive)
REMARK    1  A    between atoms: P_1  and  S_3
REMARK    2  A    between atoms: P_1  and  O_5
REMARK    3  A    between atoms: P_1  and  O_8
REMARK    4  A    between atoms: O_5  and  C_6
REMARK    5  A    between atoms: O_8  and  C_9
REMARK                            x       y       z     vdW  Elec       q    Type
REMARK                         _______ _______ _______ _____ _____    ______ ____
ROOT
ATOM      1  P   UNL     1      -0.044   1.025  -0.173  0.00  0.00    +0.390 P 
ATOM      2  O   UNL     1       0.381   1.816  -1.383  0.00  0.00    -0.246 OA
ENDROOT
BRANCH   1   3
ATOM      3  S   UNL     1      -0.809   2.314   1.299  0.00  0.00    -0.058 S 
ATOM      4  H   UNL     1      -1.188   1.588   2.385  0.00  0.00    +0.114 HD
ENDBRANCH   1   3
BRANCH   1   5
ATOM      5  O   UNL     1       1.180   0.159   0.457  0.00  0.00    -0.287 OA
BRANCH   5   6
ATOM      6  C   UNL     1       1.814  -0.816  -0.353  0.00  0.00    +0.152 C 
ATOM      7  C   UNL     1       2.912  -1.483   0.446  0.00  0.00    +0.035 C 
ENDBRANCH   5   6
ENDBRANCH   1   5
BRANCH   1   8
ATOM      8  O   UNL     1      -1.135  -0.118  -0.558  0.00  0.00    -0.287 OA
BRANCH   8   9
ATOM      9  C   UNL     1      -1.657  -0.968   0.448  0.00  0.00    +0.152 C 
ATOM     10  C   UNL     1      -2.643  -1.929  -0.182  0.00  0.00    +0.035 C 
ENDBRANCH   8   9
ENDBRANCH   1   8
TORSDOF 5
