REMARK  Name = 11616886
REMARK  5 active torsions:
REMARK  status: ('A' for Active; 'I' for Inactive)
REMARK    1  A    between atoms: C_4  and  C_21
REMARK    2  A    between atoms: C_7  and  O_12
REMARK    3  A    between atoms: O_12  and  C_13
REMARK    4  A    between atoms: C_13  and  C_15
REMARK    5  A    between atoms: C_21  and  N_22
REMARK                            x       y       z     vdW  Elec       q    Type
REMARK                         _______ _______ _______ _____ _____    ______ ____
ROOT
ATOM      1  O   UNL     1      -2.726  -2.263   0.242  0.00  0.00    -0.421 OA
ATOM      2  O   UNL     1      -4.806  -3.193   0.435  0.00  0.00    -0.244 OA
ATOM      3  C   UNL     1      -2.524   0.126  -0.231  0.00  0.00    +0.029 C 
ATOM      4  C   UNL     1      -3.990   0.221  -0.243  0.00  0.00    -0.034 C 
ATOM      5  C   UNL     1      -1.937  -1.117   0.011  0.00  0.00    +0.151 C 
ATOM      6  C   UNL     1      -1.671   1.215  -0.450  0.00  0.00    +0.006 C 
ATOM      7  C   UNL     1       0.277  -0.201  -0.179  0.00  0.00    +0.142 C 
ATOM      8  C   UNL     1      -0.553  -1.296   0.041  0.00  0.00    +0.074 C 
ATOM      9  C   UNL     1      -4.715  -0.884  -0.021  0.00  0.00    +0.076 C 
ATOM     10  C   UNL     1      -0.281   1.052  -0.424  0.00  0.00    +0.037 C 
ATOM     11  C   UNL     1      -4.111  -2.203   0.236  0.00  0.00    +0.346 C 
ENDROOT
BRANCH   7  12
ATOM     12  O   UNL     1       1.629  -0.353  -0.155  0.00  0.00    -0.471 OA
BRANCH  12  13
ATOM     13  C   UNL     1       2.418   0.812  -0.389  0.00  0.00    +0.232 C 
BRANCH  13  15
ATOM     14 CL   UNL     1       6.783   0.184   2.367  0.00  0.00    -0.082 Cl
ATOM     15  C   UNL     1       3.870   0.436  -0.353  0.00  0.00    +0.022 C 
ATOM     16  C   UNL     1       4.564   0.481   0.850  0.00  0.00    +0.011 C 
ATOM     17  C   UNL     1       4.508   0.044  -1.525  0.00  0.00    -0.001 C 
ATOM     18  C   UNL     1       5.914   0.130   0.882  0.00  0.00    +0.057 C 
ATOM     19  C   UNL     1       5.857  -0.307  -1.493  0.00  0.00    +0.001 C 
ATOM     20  C   UNL     1       6.561  -0.264  -0.289  0.00  0.00    +0.011 C 
ENDBRANCH  13  15
ENDBRANCH  12  13
ENDBRANCH   7  12
BRANCH   4  21
ATOM     21  C   UNL     1      -4.651   1.543  -0.502  0.00  0.00    -0.054 C 
BRANCH  21  22
ATOM     22  N   UNL     1      -4.883   2.280   0.729  0.00  0.00    +0.385 N 
ATOM     23  C   UNL     1      -5.534   3.556   0.462  0.00  0.00    -0.105 C 
ATOM     24  H   UNL     1      -3.988   2.452   1.188  0.00  0.00    -0.084 HD
ATOM     25  H   UNL     1      -5.492   1.724   1.330  0.00  0.00    -0.084 HD
ENDBRANCH  21  22
ENDBRANCH   4  21
TORSDOF 5
