REMARK  Name = 1933963
REMARK  3 active torsions:
REMARK  status: ('A' for Active; 'I' for Inactive)
REMARK    1  A    between atoms: N_3  and  C_13
REMARK    2  A    between atoms: C_13  and  C_16
REMARK    3  A    between atoms: C_16  and  O_17
REMARK                            x       y       z     vdW  Elec       q    Type
REMARK                         _______ _______ _______ _____ _____    ______ ____
ROOT
ATOM      1  O   UNL     1      -0.738  -2.022   0.285  0.00  0.00    -0.274 OA
ATOM      2  O   UNL     1      -0.012   2.537  -0.112  0.00  0.00    -0.274 OA
ATOM      3  N   UNL     1      -0.709   0.301  -0.019  0.00  0.00    -0.221 N 
ATOM      4  C   UNL     1       2.346  -1.294   0.279  0.00  0.00    +0.009 C 
ATOM      5  C   UNL     1       2.695   0.904   0.087  0.00  0.00    +0.009 C 
ATOM      6  C   UNL     1       1.136  -0.684   1.013  0.00  0.00    +0.086 C 
ATOM      7  C   UNL     1       1.378   0.830   0.881  0.00  0.00    +0.086 C 
ATOM      8  C   UNL     1       3.448  -0.300   0.669  0.00  0.00    +0.001 C 
ATOM      9  C   UNL     1       2.271  -1.060  -1.241  0.00  0.00    +0.001 C 
ATOM     10  C   UNL     1       2.510   0.450  -1.374  0.00  0.00    +0.001 C 
ATOM     11  C   UNL     1      -0.216  -0.921   0.396  0.00  0.00    +0.232 C 
ATOM     12  C   UNL     1       0.148   1.364   0.197  0.00  0.00    +0.232 C 
ENDROOT
BRANCH   3  13
ATOM     13  C   UNL     1      -1.993   0.446  -0.676  0.00  0.00    +0.181 C 
ATOM     14  C   UNL     1      -2.025  -0.351  -1.972  0.00  0.00    +0.034 C 
BRANCH  13  16
ATOM     15  O   UNL     1      -4.214  -0.380  -0.197  0.00  0.00    -0.248 OA
ATOM     16  C   UNL     1      -3.139   0.028   0.230  0.00  0.00    +0.332 C 
BRANCH  16  17
ATOM     17  O   UNL     1      -2.887   0.152   1.555  0.00  0.00    -0.479 OA
ATOM     18  H   UNL     1      -2.054   0.467   1.846  0.00  0.00    +0.295 HD
ENDBRANCH  16  17
ENDBRANCH  13  16
ENDBRANCH   3  13
TORSDOF 3
