REMARK  Name = 25263223
REMARK  9 active torsions:
REMARK  status: ('A' for Active; 'I' for Inactive)
REMARK    1  A    between atoms: N_2  and  C_5
REMARK    2  A    between atoms: N_2  and  C_34
REMARK    3  A    between atoms: C_3  and  C_20
REMARK    4  A    between atoms: N_4  and  C_11
REMARK    5  A    between atoms: C_11  and  C_12
REMARK    6  A    between atoms: C_12  and  C_17
REMARK    7  A    between atoms: C_25  and  C_26
REMARK    8  A    between atoms: C_26  and  C_31
REMARK    9  A    between atoms: C_26  and  O_32
REMARK                            x       y       z     vdW  Elec       q    Type
REMARK                         _______ _______ _______ _____ _____    ______ ____
ROOT
ATOM      1  O   UNL     1       0.552   1.251  -0.369  0.00  0.00    -0.270 OA
ATOM      2  N   UNL     1       0.338  -1.084  -0.344  0.00  0.00    -0.279 N 
ATOM      3  C   UNL     1      -0.140   0.235  -0.342  0.00  0.00    +0.249 C 
ENDROOT
BRANCH   2   5
ATOM      4  N   UNL     1       4.525  -0.464  -0.468  0.00  0.00    +0.387 N 
ATOM      5  C   UNL     1       1.748  -1.382  -0.380  0.00  0.00    +0.071 C 
ATOM      6  C   UNL     1       2.462  -0.819   0.850  0.00  0.00    -0.003 C 
ATOM      7  C   UNL     1       2.387  -0.837  -1.657  0.00  0.00    -0.003 C 
ATOM      8  C   UNL     1       3.973  -1.042   0.765  0.00  0.00    -0.076 C 
ATOM      9  C   UNL     1       3.901  -1.058  -1.659  0.00  0.00    -0.076 C 
ATOM     10  H   UNL     1       4.317   0.534  -0.469  0.00  0.00    -0.080 HD
BRANCH   4  11
ATOM     11  C   UNL     1       5.977  -0.640  -0.510  0.00  0.00    -0.069 C 
BRANCH  11  12
ATOM     12  C   UNL     1       6.674   0.404   0.299  0.00  0.00    +0.050 C 
ATOM     13  C   UNL     1       8.163   0.267   0.431  0.00  0.00    +0.007 C 
ATOM     14  C   UNL     1       7.274  -0.044   1.599  0.00  0.00    +0.007 C 
BRANCH  12  17
ATOM     15  O   UNL     1       5.320   2.155   1.087  0.00  0.00    -0.275 OA
ATOM     16  N   UNL     1       6.576   2.532  -0.811  0.00  0.00    -0.329 N 
ATOM     17  C   UNL     1       6.120   1.774   0.241  0.00  0.00    +0.216 C 
ATOM     18  H   UNL     1       6.259   3.457  -0.926  0.00  0.00    +0.145 HD
ATOM     19  H   UNL     1       7.221   2.150  -1.449  0.00  0.00    +0.145 HD
ENDBRANCH  12  17
ENDBRANCH  11  12
ENDBRANCH   4  11
ENDBRANCH   2   5
BRANCH   3  20
ATOM     20  C   UNL     1      -1.598   0.432  -0.311  0.00  0.00    +0.054 C 
ATOM     21  C   UNL     1      -2.393  -0.080  -1.337  0.00  0.00    +0.004 C 
ATOM     22  C   UNL     1      -2.186   1.130   0.744  0.00  0.00    +0.004 C 
ATOM     23  C   UNL     1      -3.774   0.106  -1.309  0.00  0.00    -0.002 C 
ATOM     24  C   UNL     1      -3.568   1.317   0.772  0.00  0.00    -0.002 C 
ATOM     25  C   UNL     1      -4.362   0.805  -0.254  0.00  0.00    +0.010 C 
BRANCH  25  26
ATOM     26  C   UNL     1      -5.840   1.003  -0.223  0.00  0.00    +0.194 C 
ATOM     27  C   UNL     1      -6.486   1.075  -1.631  0.00  0.00    +0.043 C 
BRANCH  26  31
ATOM     28  F   UNL     1      -6.111  -0.093   1.885  0.00  0.00    -0.167 F 
ATOM     29  F   UNL     1      -6.327  -1.329   0.106  0.00  0.00    -0.167 F 
ATOM     30  F   UNL     1      -7.881   0.107   0.624  0.00  0.00    -0.167 F 
ATOM     31  C   UNL     1      -6.544  -0.090   0.605  0.00  0.00    +0.423 C 
ENDBRANCH  26  31
BRANCH  26  32
ATOM     32  O   UNL     1      -6.184   2.261   0.403  0.00  0.00    -0.375 OA
ATOM     33  H   UNL     1      -5.810   2.290   1.297  0.00  0.00    +0.211 HD
ENDBRANCH  26  32
ENDBRANCH  25  26
ENDBRANCH   3  20
BRANCH   2  34
ATOM     34  C   UNL     1      -0.564  -2.230  -0.310  0.00  0.00    +0.076 C 
ATOM     35  C   UNL     1      -1.606  -2.367   0.762  0.00  0.00    +0.022 C 
ATOM     36  C   UNL     1      -0.426  -3.295   0.739  0.00  0.00    +0.022 C 
ENDBRANCH   2  34
TORSDOF 9
