REMARK  Name = 11395145
REMARK  8 active torsions:
REMARK  status: ('A' for Active; 'I' for Inactive)
REMARK    1  A    between atoms: N_1  and  S_10
REMARK    2  A    between atoms: C_2  and  C_23
REMARK    3  A    between atoms: C_8  and  O_21
REMARK    4  A    between atoms: S_10  and  C_13
REMARK    5  A    between atoms: C_18  and  O_19
REMARK    6  A    between atoms: C_23  and  C_24
REMARK    7  A    between atoms: C_24  and  C_26
REMARK    8  A    between atoms: C_26  and  O_27
REMARK                            x       y       z     vdW  Elec       q    Type
REMARK                         _______ _______ _______ _____ _____    ______ ____
ROOT
ATOM      1  N   UNL     1      -0.055   0.353  -1.395  0.00  0.00    -0.168 N 
ATOM      2  C   UNL     1       1.907  -0.534  -0.857  0.00  0.00    -0.004 C 
ATOM      3  C   UNL     1       1.845   0.775  -0.303  0.00  0.00    +0.016 C 
ATOM      4  C   UNL     1       0.603   1.310  -0.655  0.00  0.00    +0.074 C 
ATOM      5  C   UNL     1       0.725  -0.765  -1.522  0.00  0.00    +0.085 C 
ATOM      6  C   UNL     1       2.727   1.559   0.467  0.00  0.00    +0.038 C 
ATOM      7  C   UNL     1       0.199   2.594  -0.275  0.00  0.00    +0.020 C 
ATOM      8  C   UNL     1       2.336   2.846   0.854  0.00  0.00    +0.139 C 
ATOM      9  C   UNL     1       1.091   3.354   0.487  0.00  0.00    +0.038 C 
ENDROOT
BRANCH   1  10
ATOM     10  S   UNL     1      -1.578   0.505  -2.052  0.00  0.00    +0.080 S 
ATOM     11  O   UNL     1      -1.604  -0.411  -3.192  0.00  0.00    -0.149 OA
ATOM     12  O   UNL     1      -1.865   1.930  -2.232  0.00  0.00    -0.149 OA
BRANCH  10  13
ATOM     13  C   UNL     1      -2.731  -0.081  -0.838  0.00  0.00    +0.126 C 
ATOM     14  C   UNL     1      -3.251   0.814   0.077  0.00  0.00    +0.023 C 
ATOM     15  C   UNL     1      -3.080  -1.417  -0.836  0.00  0.00    +0.023 C 
ATOM     16  C   UNL     1      -4.158   0.353   1.032  0.00  0.00    +0.038 C 
ATOM     17  C   UNL     1      -3.987  -1.877   0.119  0.00  0.00    +0.038 C 
ATOM     18  C   UNL     1      -4.526  -0.992   1.053  0.00  0.00    +0.139 C 
BRANCH  18  19
ATOM     19  O   UNL     1      -5.411  -1.441   1.984  0.00  0.00    -0.471 OA
ATOM     20  C   UNL     1      -5.923  -0.482   2.908  0.00  0.00    +0.252 C 
ENDBRANCH  18  19
ENDBRANCH  10  13
ENDBRANCH   1  10
BRANCH   8  21
ATOM     21  O   UNL     1       3.184   3.610   1.597  0.00  0.00    -0.471 OA
ATOM     22  C   UNL     1       4.443   3.034   1.940  0.00  0.00    +0.252 C 
ENDBRANCH   8  21
BRANCH   2  23
ATOM     23  C   UNL     1       3.034  -1.483  -0.744  0.00  0.00    +0.039 C 
BRANCH  23  24
ATOM     24  C   UNL     1       2.962  -2.418   0.481  0.00  0.00    +0.114 C 
BRANCH  24  26
ATOM     25  O   UNL     1       5.040  -3.470  -0.241  0.00  0.00    -0.250 OA
ATOM     26  C   UNL     1       4.107  -3.406   0.548  0.00  0.00    +0.314 C 
BRANCH  26  27
ATOM     27  O   UNL     1       3.966  -4.261   1.595  0.00  0.00    -0.480 OA
ATOM     28  H   UNL     1       3.234  -4.174   2.175  0.00  0.00    +0.295 HD
ENDBRANCH  26  27
ENDBRANCH  24  26
ENDBRANCH  23  24
ENDBRANCH   2  23
TORSDOF 8
