REMARK  Name = 7060565
REMARK  3 active torsions:
REMARK  status: ('A' for Active; 'I' for Inactive)
REMARK    1  A    between atoms: C_1  and  C_12
REMARK    2  A    between atoms: C_2  and  C_8
REMARK    3  A    between atoms: C_12  and  N_13
REMARK                            x       y       z     vdW  Elec       q    Type
REMARK                         _______ _______ _______ _____ _____    ______ ____
ROOT
ATOM      1  C   UNL     1      -1.157  -0.463  -0.322  0.00  0.00    -0.043 C 
ATOM      2  C   UNL     1      -0.466   0.713  -0.028  0.00  0.00    +0.000 C 
ATOM      3  C   UNL     1      -2.551  -0.480  -0.282  0.00  0.00    -0.006 C 
ATOM      4  C   UNL     1      -1.169   1.871   0.305  0.00  0.00    +0.000 C 
ATOM      5  C   UNL     1      -3.254   0.677   0.051  0.00  0.00    -0.000 C 
ATOM      6  C   UNL     1      -2.563   1.853   0.345  0.00  0.00    -0.000 C 
ENDROOT
BRANCH   2   8
ATOM      7  S   UNL     1       1.850   0.395   1.366  0.00  0.00    -0.086 S 
ATOM      8  C   UNL     1       0.978   0.758  -0.062  0.00  0.00    +0.029 C 
ATOM      9  C   UNL     1       1.811   1.062  -1.115  0.00  0.00    +0.007 C 
ATOM     10  C   UNL     1       3.185   0.996  -0.745  0.00  0.00    +0.007 C 
ATOM     11  C   UNL     1       3.349   0.644   0.577  0.00  0.00    +0.035 C 
ENDBRANCH   2   8
BRANCH   1  12
ATOM     12  C   UNL     1      -0.438  -1.723  -0.683  0.00  0.00    -0.054 C 
BRANCH  12  13
ATOM     13  N   UNL     1      -0.131  -2.541   0.490  0.00  0.00    +0.385 N 
ATOM     14  C   UNL     1       0.558  -3.761   0.101  0.00  0.00    -0.105 C 
ATOM     15  H   UNL     1      -1.000  -2.784   0.966  0.00  0.00    -0.084 HD
ATOM     16  H   UNL     1       0.476  -2.007   1.112  0.00  0.00    -0.084 HD
ENDBRANCH  12  13
ENDBRANCH   1  12
TORSDOF 3
