REMARK  Name = 24866443
REMARK  3 active torsions:
REMARK  status: ('A' for Active; 'I' for Inactive)
REMARK    1  A    between atoms: N_3  and  C_10
REMARK    2  A    between atoms: C_5  and  C_18
REMARK    3  A    between atoms: C_18  and  C_19
REMARK                            x       y       z     vdW  Elec       q    Type
REMARK                         _______ _______ _______ _____ _____    ______ ____
ROOT
ATOM      1  S   UNL     1       1.951   1.024   1.329  0.00  0.00    -0.051 S 
ATOM      2  O   UNL     1       3.076   0.097  -2.222  0.00  0.00    -0.213 OA
ATOM      3  N   UNL     1      -0.562   0.780   0.560  0.00  0.00    -0.304 N 
ATOM      4  N   UNL     1       1.121   0.380  -1.044  0.00  0.00    -0.314 NA
ATOM      5  C   UNL     1       3.260   0.719   0.101  0.00  0.00    +0.150 C 
ATOM      6  C   UNL     1       0.708   0.689   0.143  0.00  0.00    +0.221 C 
ATOM      7  C   UNL     1       2.495   0.367  -1.174  0.00  0.00    +0.190 C 
ATOM      8  C   UNL     1       4.082   1.986  -0.106  0.00  0.00    +0.029 C 
ATOM      9  H   UNL     1      -0.735   1.026   1.497  0.00  0.00    +0.150 HD
ENDROOT
BRANCH   3  10
ATOM     10  C   UNL     1      -1.696   0.528  -0.317  0.00  0.00    +0.072 C 
ATOM     11  C   UNL     1      -1.980  -0.976  -0.295  0.00  0.00    +0.020 C 
ATOM     12  C   UNL     1      -2.846   1.460   0.093  0.00  0.00    +0.020 C 
ATOM     13  C   UNL     1      -3.026  -1.475  -1.288  0.00  0.00    +0.002 C 
ATOM     14  C   UNL     1      -3.653   1.018   1.319  0.00  0.00    +0.002 C 
ATOM     15  C   UNL     1      -4.465  -0.991  -1.111  0.00  0.00    +0.000 C 
ATOM     16  C   UNL     1      -5.008   0.386   0.994  0.00  0.00    +0.000 C 
ATOM     17  C   UNL     1      -4.982  -0.992   0.327  0.00  0.00    +0.000 C 
ENDBRANCH   3  10
BRANCH   5  18
ATOM     18  C   UNL     1       4.122  -0.458   0.544  0.00  0.00    +0.027 C 
BRANCH  18  19
ATOM     19  C   UNL     1       3.270  -1.681   0.865  0.00  0.00    +0.002 C 
ATOM     20  C   UNL     1       4.131  -2.862   1.282  0.00  0.00    +0.000 C 
ENDBRANCH  18  19
ENDBRANCH   5  18
TORSDOF 3
