REMARK  Name = 1722
REMARK  9 active torsions:
REMARK  status: ('A' for Active; 'I' for Inactive)
REMARK    1  A    between atoms: C_4  and  C_14
REMARK    2  A    between atoms: C_7  and  C_13
REMARK    3  A    between atoms: C_14  and  O_15
REMARK    4  A    between atoms: O_15  and  P_16
REMARK    5  A    between atoms: P_16  and  O_18
REMARK    6  A    between atoms: P_16  and  O_20
REMARK    7  A    between atoms: O_20  and  P_21
REMARK    8  A    between atoms: P_21  and  O_23
REMARK    9  A    between atoms: P_21  and  O_25
REMARK                            x       y       z     vdW  Elec       q    Type
REMARK                         _______ _______ _______ _____ _____    ______ ____
ROOT
ATOM      1  N   UNL     1      -2.883  -1.063  -0.159  0.00  0.00    -0.333 NA
ATOM      2  N   UNL     1      -2.294   1.271  -0.068  0.00  0.00    -0.179 NA
ATOM      3  N   UNL     1      -1.216  -2.702  -0.554  0.00  0.00    -0.332 N 
ATOM      4  C   UNL     1      -0.600  -0.385  -0.468  0.00  0.00    +0.072 C 
ATOM      5  C   UNL     1      -1.584  -1.345  -0.388  0.00  0.00    +0.188 C 
ATOM      6  C   UNL     1      -1.012   0.919  -0.299  0.00  0.00    +0.112 C 
ATOM      7  C   UNL     1      -3.164   0.245  -0.010  0.00  0.00    +0.161 C 
ATOM      8  H   UNL     1      -1.900  -3.408  -0.501  0.00  0.00    +0.145 HD
ATOM      9  H   UNL     1      -0.275  -2.940  -0.723  0.00  0.00    +0.145 HD
ENDROOT
BRANCH   7  13
ATOM     10  F   UNL     1      -4.809   1.937   0.385  0.00  0.00    -0.157 F 
ATOM     11  F   UNL     1      -5.437   0.200  -0.752  0.00  0.00    -0.157 F 
ATOM     12  F   UNL     1      -5.077   0.024   1.385  0.00  0.00    -0.157 F 
ATOM     13  C   UNL     1      -4.591   0.596   0.244  0.00  0.00    +0.489 C 
ENDBRANCH   7  13
BRANCH   4  14
ATOM     14  C   UNL     1       0.836  -0.700  -0.721  0.00  0.00    +0.186 C 
BRANCH  14  15
ATOM     15  O   UNL     1       1.550  -0.914   0.484  0.00  0.00    -0.268 OA
BRANCH  15  16
ATOM     16  P   UNL     1       3.128  -1.270   0.438  0.00  0.00    +0.484 P 
ATOM     17  O   UNL     1       3.767  -1.474   1.781  0.00  0.00    -0.227 OA
BRANCH  16  18
ATOM     18  O   UNL     1       3.223  -2.551  -0.547  0.00  0.00    -0.302 OA
ATOM     19  H   UNL     1       2.791  -2.343  -1.390  0.00  0.00    +0.222 HD
ENDBRANCH  16  18
BRANCH  16  20
ATOM     20  O   UNL     1       3.787  -0.081  -0.437  0.00  0.00    -0.186 OA
BRANCH  20  21
ATOM     21  P   UNL     1       3.939   1.499  -0.134  0.00  0.00    +0.481 P 
ATOM     22  O   UNL     1       2.641   2.225   0.067  0.00  0.00    -0.227 OA
BRANCH  21  23
ATOM     23  O   UNL     1       4.839   2.025  -1.369  0.00  0.00    -0.302 OA
ATOM     24  H   UNL     1       5.653   1.500  -1.421  0.00  0.00    +0.222 HD
ENDBRANCH  21  23
BRANCH  21  25
ATOM     25  O   UNL     1       4.956   1.543   1.122  0.00  0.00    -0.302 OA
ATOM     26  H   UNL     1       5.762   1.050   0.902  0.00  0.00    +0.222 HD
ENDBRANCH  21  25
ENDBRANCH  20  21
ENDBRANCH  16  20
ENDBRANCH  15  16
ENDBRANCH  14  15
ENDBRANCH   4  14
TORSDOF 9
