REMARK  Name = 16113377
REMARK  5 active torsions:
REMARK  status: ('A' for Active; 'I' for Inactive)
REMARK    1  A    between atoms: N_2  and  C_24
REMARK    2  A    between atoms: C_5  and  C_12
REMARK    3  A    between atoms: N_10  and  C_16
REMARK    4  A    between atoms: C_19  and  C_31
REMARK    5  A    between atoms: C_27  and  N_32
REMARK                            x       y       z     vdW  Elec       q    Type
REMARK                         _______ _______ _______ _____ _____    ______ ____
ROOT
ATOM      1  F   UNL     1      -5.900   0.398  -0.226  0.00  0.00    -0.200 F 
ATOM      2  N   UNL     1      -1.127   2.945  -0.737  0.00  0.00    -0.247 N 
ATOM      3  N   UNL     1      -2.349   1.107   0.059  0.00  0.00    -0.334 NA
ATOM      4  N   UNL     1      -3.436   2.888  -1.149  0.00  0.00    -0.167 NA
ATOM      5  C   UNL     1      -3.549   0.500   0.169  0.00  0.00    +0.188 C 
ATOM      6  C   UNL     1      -2.362   2.282  -0.603  0.00  0.00    +0.149 C 
ATOM      7  C   UNL     1      -4.720   1.016  -0.346  0.00  0.00    +0.192 C 
ATOM      8  C   UNL     1      -4.602   2.225  -1.002  0.00  0.00    +0.144 C 
ATOM      9  H   UNL     1      -1.186   3.798  -1.226  0.00  0.00    +0.165 HD
ENDROOT
BRANCH   5  12
ATOM     10  N   UNL     1      -3.325  -1.973   0.289  0.00  0.00    -0.274 N 
ATOM     11  N   UNL     1      -3.583  -2.381   2.457  0.00  0.00    -0.232 NA
ATOM     12  C   UNL     1      -3.524  -0.753   0.876  0.00  0.00    +0.105 C 
ATOM     13  C   UNL     1      -3.368  -2.917   1.276  0.00  0.00    +0.113 C 
ATOM     14  C   UNL     1      -3.681  -1.033   2.215  0.00  0.00    +0.117 C 
ATOM     15  C   UNL     1      -3.189  -4.357   0.998  0.00  0.00    +0.069 C 
BRANCH  10  16
ATOM     16  C   UNL     1      -3.106  -2.222  -1.119  0.00  0.00    +0.078 C 
ATOM     17  C   UNL     1      -4.313  -1.814  -1.966  0.00  0.00    +0.022 C 
ATOM     18  C   UNL     1      -1.817  -1.571  -1.623  0.00  0.00    +0.022 C 
ENDBRANCH  10  16
ENDBRANCH   5  12
BRANCH   2  24
ATOM     19  C   UNL     1       2.757   2.004   0.538  0.00  0.00    +0.054 C 
ATOM     20  C   UNL     1       2.572   2.753  -0.620  0.00  0.00    +0.006 C 
ATOM     21  C   UNL     1       1.661   1.564   1.275  0.00  0.00    +0.006 C 
ATOM     22  C   UNL     1       1.280   3.066  -1.044  0.00  0.00    +0.015 C 
ATOM     23  C   UNL     1       0.370   1.877   0.851  0.00  0.00    +0.015 C 
ATOM     24  C   UNL     1       0.179   2.628  -0.309  0.00  0.00    +0.058 C 
BRANCH  19  31
ATOM     25  O   UNL     1       4.667   2.462   1.755  0.00  0.00    -0.270 OA
ATOM     26  N   UNL     1       4.681   0.498   0.517  0.00  0.00    -0.278 N 
ATOM     27  C   UNL     1       4.947  -1.739  -0.179  0.00  0.00    -0.036 C 
ATOM     28  C   UNL     1       6.328  -1.114   0.021  0.00  0.00    +0.002 C 
ATOM     29  C   UNL     1       4.051  -0.510  -0.336  0.00  0.00    +0.073 C 
ATOM     30  C   UNL     1       6.020   0.080   0.914  0.00  0.00    +0.092 C 
ATOM     31  C   UNL     1       4.120   1.675   0.986  0.00  0.00    +0.249 C 
BRANCH  27  32
ATOM     32  N   UNL     1       4.891  -2.646  -1.311  0.00  0.00    +0.387 N 
ATOM     33  C   UNL     1       5.880  -3.720  -1.169  0.00  0.00    -0.101 C 
ATOM     34  C   UNL     1       3.549  -3.217  -1.458  0.00  0.00    -0.101 C 
ATOM     35  H   UNL     1       5.112  -2.110  -2.150  0.00  0.00    -0.080 HD
ENDBRANCH  27  32
ENDBRANCH  19  31
ENDBRANCH   2  24
TORSDOF 5
