REMARK  Name = 6102685
REMARK  5 active torsions:
REMARK  status: ('A' for Active; 'I' for Inactive)
REMARK    1  A    between atoms: C_7  and  C_12
REMARK    2  A    between atoms: C_9  and  N_15
REMARK    3  A    between atoms: C_12  and  O_13
REMARK    4  A    between atoms: N_15  and  S_17
REMARK    5  A    between atoms: S_17  and  C_20
REMARK                            x       y       z     vdW  Elec       q    Type
REMARK                         _______ _______ _______ _____ _____    ______ ____
ROOT
ATOM      1  C   UNL     1      -3.983   1.658  -0.081  0.00  0.00    +0.005 C 
ATOM      2  C   UNL     1      -2.885   1.151   0.853  0.00  0.00    +0.026 C 
ATOM      3  C   UNL     1      -4.772   0.490  -0.658  0.00  0.00    +0.005 C 
ATOM      4  C   UNL     1      -2.082   0.017   0.267  0.00  0.00    -0.019 C 
ATOM      5  C   UNL     1      -3.864  -0.405  -1.499  0.00  0.00    +0.026 C 
ATOM      6  C   UNL     1      -2.562  -0.742  -0.817  0.00  0.00    -0.026 C 
ATOM      7  C   UNL     1      -0.853  -0.323   0.854  0.00  0.00    +0.086 C 
ATOM      8  C   UNL     1      -1.787  -1.801  -1.313  0.00  0.00    -0.003 C 
ATOM      9  C   UNL     1      -0.098  -1.384   0.357  0.00  0.00    +0.071 C 
ATOM     10  C   UNL     1      -0.563  -2.122  -0.727  0.00  0.00    +0.016 C 
ENDROOT
BRANCH   7  12
ATOM     11  O   UNL     1       0.371   1.419   1.946  0.00  0.00    -0.245 OA
ATOM     12  C   UNL     1      -0.347   0.421   2.007  0.00  0.00    +0.339 C 
BRANCH  12  13
ATOM     13  O   UNL     1      -0.761  -0.115   3.184  0.00  0.00    -0.477 OA
ATOM     14  H   UNL     1      -1.307  -0.876   3.187  0.00  0.00    +0.295 HD
ENDBRANCH  12  13
ENDBRANCH   7  12
BRANCH   9  15
ATOM     15  N   UNL     1       1.158  -1.741   0.944  0.00  0.00    -0.215 N 
ATOM     16  H   UNL     1       1.200  -2.103   1.859  0.00  0.00    +0.174 HD
BRANCH  15  17
ATOM     17  S   UNL     1       2.594  -1.523   0.020  0.00  0.00    +0.074 S 
ATOM     18  O   UNL     1       3.741  -1.619   0.904  0.00  0.00    -0.150 OA
ATOM     19  O   UNL     1       2.540  -2.333  -1.182  0.00  0.00    -0.150 OA
BRANCH  17  20
ATOM     20  C   UNL     1       2.462   0.174  -0.466  0.00  0.00    +0.125 C 
ATOM     21  C   UNL     1       3.005   1.152   0.348  0.00  0.00    +0.020 C 
ATOM     22  C   UNL     1       1.819   0.487  -1.649  0.00  0.00    +0.020 C 
ATOM     23  C   UNL     1       2.900   2.489  -0.035  0.00  0.00    +0.001 C 
ATOM     24  C   UNL     1       1.714   1.825  -2.032  0.00  0.00    +0.001 C 
ATOM     25  C   UNL     1       2.255   2.825  -1.225  0.00  0.00    +0.000 C 
ENDBRANCH  17  20
ENDBRANCH  15  17
ENDBRANCH   9  15
TORSDOF 5
