REMARK  Name = 4292413
REMARK  13 active torsions:
REMARK  status: ('A' for Active; 'I' for Inactive)
REMARK    1  A    between atoms: C_1  and  C_2
REMARK    2  A    between atoms: C_1  and  C_11
REMARK    3  A    between atoms: C_2  and  C_3
REMARK    4  A    between atoms: C_3  and  N_4
REMARK    5  A    between atoms: N_4  and  C_7
REMARK    6  A    between atoms: C_7  and  C_10
REMARK    7  A    between atoms: C_11  and  C_12
REMARK    8  A    between atoms: C_12  and  C_13
REMARK    9  A    between atoms: C_13  and  C_14
REMARK   10  A    between atoms: C_14  and  C_15
REMARK   11  A    between atoms: C_15  and  C_16
REMARK   12  A    between atoms: C_16  and  C_17
REMARK   13  A    between atoms: C_17  and  C_18
REMARK                            x       y       z     vdW  Elec       q    Type
REMARK                         _______ _______ _______ _____ _____    ______ ____
ROOT
ATOM      1  C   UNL     1      -1.654  -1.929   0.553  0.00  0.00    -0.002 C 
ENDROOT
BRANCH   1   2
ATOM      2  C   UNL     1      -3.095  -1.408   0.505  0.00  0.00    -0.022 C 
BRANCH   2   3
ATOM      3  C   UNL     1      -3.498  -0.692  -0.778  0.00  0.00    -0.072 C 
BRANCH   3   4
ATOM      4  N   UNL     1      -4.889  -0.192  -0.683  0.00  0.00    +0.395 N 
ATOM      5  C   UNL     1      -5.872  -1.348  -0.445  0.00  0.00    -0.095 C 
ATOM      6  C   UNL     1      -5.303   0.526  -1.976  0.00  0.00    -0.095 C 
BRANCH   4   7
ATOM      7  C   UNL     1      -5.036   0.802   0.479  0.00  0.00    +0.044 C 
BRANCH   7  10
ATOM      8  O   UNL     1      -3.684   2.569  -0.335  0.00  0.00    -0.248 OA
ATOM      9  O   UNL     1      -3.306   1.734   1.758  0.00  0.00    -0.248 OA
ATOM     10  C   UNL     1      -3.900   1.802   0.644  0.00  0.00    +0.345 C 
ENDBRANCH   7  10
ENDBRANCH   4   7
ENDBRANCH   3   4
ENDBRANCH   2   3
ENDBRANCH   1   2
BRANCH   1  11
ATOM     11  C   UNL     1      -0.558  -0.879   0.347  0.00  0.00    -0.000 C 
BRANCH  11  12
ATOM     12  C   UNL     1       0.858  -1.442   0.486  0.00  0.00    -0.000 C 
BRANCH  12  13
ATOM     13  C   UNL     1       1.909  -0.371   0.182  0.00  0.00    -0.000 C 
BRANCH  13  14
ATOM     14  C   UNL     1       3.349  -0.886   0.279  0.00  0.00    +0.000 C 
BRANCH  14  15
ATOM     15  C   UNL     1       4.400   0.191  -0.001  0.00  0.00    +0.000 C 
BRANCH  15  16
ATOM     16  C   UNL     1       5.814  -0.393   0.036  0.00  0.00    +0.000 C 
BRANCH  16  17
ATOM     17  C   UNL     1       6.864   0.672  -0.281  0.00  0.00    +0.000 C 
BRANCH  17  18
ATOM     18  C   UNL     1       8.279   0.098  -0.211  0.00  0.00    +0.000 C 
ATOM     19  C   UNL     1       9.324   1.145  -0.559  0.00  0.00    +0.000 C 
ENDBRANCH  17  18
ENDBRANCH  16  17
ENDBRANCH  15  16
ENDBRANCH  14  15
ENDBRANCH  13  14
ENDBRANCH  12  13
ENDBRANCH  11  12
ENDBRANCH   1  11
TORSDOF 13
