REMARK  Name = 5288217
REMARK  5 active torsions:
REMARK  status: ('A' for Active; 'I' for Inactive)
REMARK    1  A    between atoms: C_7  and  C_14
REMARK    2  A    between atoms: C_8  and  O_24
REMARK    3  A    between atoms: C_11  and  O_26
REMARK    4  A    between atoms: C_15  and  O_20
REMARK    5  A    between atoms: C_19  and  O_22
REMARK                            x       y       z     vdW  Elec       q    Type
REMARK                         _______ _______ _______ _____ _____    ______ ____
ROOT
ATOM      1  O   UNL     1       0.783   0.506   0.022  0.00  0.00    -0.450 OA
ATOM      2  O   UNL     1       2.051  -2.742  -0.592  0.00  0.00    -0.283 OA
ATOM      3  C   UNL     1       2.846  -0.520  -0.147  0.00  0.00    +0.110 C 
ATOM      4  C   UNL     1       2.149   0.667   0.073  0.00  0.00    +0.155 C 
ATOM      5  C   UNL     1       0.572  -0.842  -0.243  0.00  0.00    +0.184 C 
ATOM      6  C   UNL     1       1.858  -1.569  -0.365  0.00  0.00    +0.236 C 
ATOM      7  C   UNL     1      -0.628  -1.410  -0.370  0.00  0.00    +0.044 C 
ATOM      8  C   UNL     1       4.223  -0.582  -0.139  0.00  0.00    +0.143 C 
ATOM      9  C   UNL     1       2.812   1.851   0.314  0.00  0.00    +0.074 C 
ATOM     10  C   UNL     1       4.909   0.611   0.103  0.00  0.00    +0.073 C 
ATOM     11  C   UNL     1       4.210   1.815   0.328  0.00  0.00    +0.140 C 
ENDROOT
BRANCH   7  14
ATOM     12 BR   UNL     1      -4.711   0.140   2.715  0.00  0.00    -0.043 Br
ATOM     13 BR   UNL     1      -4.435   1.249  -2.900  0.00  0.00    -0.046 Br
ATOM     14  C   UNL     1      -1.927  -0.721  -0.256  0.00  0.00    +0.038 C 
ATOM     15  C   UNL     1      -2.577  -0.639   0.966  0.00  0.00    +0.143 C 
ATOM     16  C   UNL     1      -2.475  -0.163  -1.400  0.00  0.00    +0.013 C 
ATOM     17  C   UNL     1      -3.805   0.018   1.045  0.00  0.00    +0.102 C 
ATOM     18  C   UNL     1      -3.703   0.494  -1.321  0.00  0.00    +0.069 C 
ATOM     19  C   UNL     1      -4.368   0.584  -0.098  0.00  0.00    +0.149 C 
BRANCH  15  20
ATOM     20  O   UNL     1      -2.018  -1.198   2.080  0.00  0.00    -0.505 OA
ATOM     21  H   UNL     1      -1.192  -1.638   2.020  0.00  0.00    +0.292 HD
ENDBRANCH  15  20
BRANCH  19  22
ATOM     22  O   UNL     1      -5.571   1.228  -0.025  0.00  0.00    -0.504 OA
ATOM     23  H   UNL     1      -6.019   1.290   0.796  0.00  0.00    +0.292 HD
ENDBRANCH  19  22
ENDBRANCH   7  14
BRANCH   8  24
ATOM     24  O   UNL     1       4.896  -1.738  -0.353  0.00  0.00    -0.505 OA
ATOM     25  H   UNL     1       4.424  -2.531  -0.515  0.00  0.00    +0.292 HD
ENDBRANCH   8  24
BRANCH  11  26
ATOM     26  O   UNL     1       4.910   2.961   0.562  0.00  0.00    -0.505 OA
ATOM     27  H   UNL     1       4.455   3.766   0.713  0.00  0.00    +0.292 HD
ENDBRANCH  11  26
TORSDOF 5
