REMARK  Name = 17756743
REMARK  5 active torsions:
REMARK  status: ('A' for Active; 'I' for Inactive)
REMARK    1  A    between atoms: C_6  and  C_10
REMARK    2  A    between atoms: C_7  and  C_16
REMARK    3  A    between atoms: N_22  and  C_24
REMARK    4  A    between atoms: C_24  and  C_25
REMARK    5  A    between atoms: C_25  and  N_26
REMARK                            x       y       z     vdW  Elec       q    Type
REMARK                         _______ _______ _______ _____ _____    ______ ____
ROOT
ATOM      1  O   UNL     1      -2.782   1.881  -0.448  0.00  0.00    -0.440 OA
ATOM      2  N   UNL     1       0.825   3.610   0.126  0.00  0.00    -0.233 NA
ATOM      3  N   UNL     1      -1.519   3.907  -0.466  0.00  0.00    -0.214 NA
ATOM      4  C   UNL     1      -0.598   1.713   0.087  0.00  0.00    +0.155 C 
ATOM      5  C   UNL     1       0.659   2.278   0.293  0.00  0.00    +0.115 C 
ATOM      6  C   UNL     1      -1.176   0.422   0.152  0.00  0.00    +0.028 C 
ATOM      7  C   UNL     1      -2.501   0.579  -0.181  0.00  0.00    +0.144 C 
ATOM      8  C   UNL     1      -1.621   2.579  -0.285  0.00  0.00    +0.214 C 
ATOM      9  C   UNL     1      -0.259   4.332  -0.238  0.00  0.00    +0.254 C 
ATOM     10  N   UNL     1       1.742   1.497   0.666  0.00  0.00    -0.323 N 
ATOM     11  H   UNL     1       1.599   0.530   0.783  0.00  0.00    +0.148 HD
ENDROOT
BRANCH   6  12
ATOM     12  C   UNL     1      -0.590  -0.845   0.485  0.00  0.00    -0.000 C 
ATOM     13  C   UNL     1      -0.576  -1.281   1.810  0.00  0.00    -0.000 C 
ATOM     14  C   UNL     1      -0.034  -1.641  -0.517  0.00  0.00    -0.000 C 
ATOM     15  C   UNL     1      -0.006  -2.512   2.133  0.00  0.00    -0.000 C 
ATOM     16  C   UNL     1       0.536  -2.872  -0.194  0.00  0.00    -0.000 C 
ATOM     17  C   UNL     1       0.550  -3.308   1.131  0.00  0.00    -0.000 C 
ENDBRANCH   6  12
BRANCH   7  18
ATOM     18  C   UNL     1      -3.623  -0.313  -0.305  0.00  0.00    +0.034 C 
ATOM     19  C   UNL     1      -3.578  -1.366  -1.220  0.00  0.00    +0.003 C 
ATOM     20  C   UNL     1      -4.755  -0.126   0.487  0.00  0.00    +0.003 C 
ATOM     21  C   UNL     1      -4.666  -2.231  -1.342  0.00  0.00    +0.000 C 
ATOM     22  C   UNL     1      -5.843  -0.991   0.365  0.00  0.00    +0.000 C 
ATOM     23  C   UNL     1      -5.798  -2.043  -0.550  0.00  0.00    +0.000 C 
ENDBRANCH   7  18
BRANCH  10  24
ATOM     24  C   UNL     1       3.067   2.022   0.894  0.00  0.00    +0.065 C 
BRANCH  24  25
ATOM     25  C   UNL     1       4.013   0.884   1.255  0.00  0.00    -0.056 C 
BRANCH  25  26
ATOM     26  N   UNL     1       4.064  -0.097   0.173  0.00  0.00    +0.385 N 
ATOM     27  N   UNL     1       5.444  -1.967  -1.559  0.00  0.00    +0.381 N 
ATOM     28  C   UNL     1       4.520  -1.400   0.671  0.00  0.00    -0.101 C 
ATOM     29  C   UNL     1       4.930   0.372  -0.917  0.00  0.00    -0.101 C 
ATOM     30  C   UNL     1       4.583  -2.424  -0.466  0.00  0.00    -0.105 C 
ATOM     31  C   UNL     1       4.990  -0.661  -2.044  0.00  0.00    -0.105 C 
ATOM     32  H   UNL     1       3.119  -0.209  -0.196  0.00  0.00    -0.080 HD
ATOM     33  H   UNL     1       5.408  -2.642  -2.322  0.00  0.00    -0.085 HD
ATOM     34  H   UNL     1       6.401  -1.881  -1.217  0.00  0.00    -0.085 HD
ENDBRANCH  25  26
ENDBRANCH  24  25
ENDBRANCH  10  24
TORSDOF 5
