REMARK  Name = 25113171
REMARK  6 active torsions:
REMARK  status: ('A' for Active; 'I' for Inactive)
REMARK    1  A    between atoms: N_1  and  C_28
REMARK    2  A    between atoms: N_2  and  C_16
REMARK    3  A    between atoms: C_17  and  C_24
REMARK    4  A    between atoms: C_27  and  C_35
REMARK    5  A    between atoms: C_30  and  O_33
REMARK    6  A    between atoms: C_35  and  S_36
REMARK                            x       y       z     vdW  Elec       q    Type
REMARK                         _______ _______ _______ _____ _____    ______ ____
ROOT
ATOM      1  N   UNL     1       0.711  -2.768  -0.532  0.00  0.00    -0.235 N 
ATOM      2  N   UNL     1      -2.697   0.372   0.403  0.00  0.00    -0.290 N 
ATOM      3  N   UNL     1      -3.775  -4.156   0.089  0.00  0.00    -0.289 N 
ATOM      4  N   UNL     1      -0.992  -1.232  -0.068  0.00  0.00    -0.316 NA
ATOM      5  N   UNL     1      -1.450  -3.616  -0.253  0.00  0.00    -0.316 NA
ATOM      6  C   UNL     1      -3.218  -2.000   0.231  0.00  0.00    +0.159 C 
ATOM      7  C   UNL     1      -2.293  -0.958   0.186  0.00  0.00    +0.186 C 
ATOM      8  C   UNL     1      -2.726  -3.280   0.005  0.00  0.00    +0.186 C 
ATOM      9  C   UNL     1      -0.656  -2.526  -0.269  0.00  0.00    +0.205 C 
ATOM     10  C   UNL     1      -4.612  -2.127   0.458  0.00  0.00    +0.006 C 
ATOM     11  C   UNL     1      -4.927  -3.466   0.366  0.00  0.00    +0.060 C 
ATOM     12  H   UNL     1       0.925  -3.719  -0.674  0.00  0.00    +0.166 HD
ATOM     13  H   UNL     1      -3.660   0.468   0.581  0.00  0.00    +0.154 HD
ATOM     14  H   UNL     1      -3.712  -5.131  -0.030  0.00  0.00    +0.154 HD
ENDROOT
BRANCH   2  16
ATOM     15  F   UNL     1      -2.500   5.134  -0.291  0.00  0.00    -0.204 F 
ATOM     16  C   UNL     1      -1.995   1.596   0.416  0.00  0.00    +0.056 C 
ATOM     17  C   UNL     1      -2.621   2.785   0.043  0.00  0.00    +0.094 C 
ATOM     18  C   UNL     1      -0.656   1.606   0.807  0.00  0.00    +0.015 C 
ATOM     19  C   UNL     1      -1.909   3.984   0.063  0.00  0.00    +0.146 C 
ATOM     20  C   UNL     1       0.056   2.805   0.827  0.00  0.00    +0.004 C 
ATOM     21  C   UNL     1      -0.570   3.994   0.455  0.00  0.00    +0.030 C 
BRANCH  17  24
ATOM     22  O   UNL     1      -4.932   2.988   0.451  0.00  0.00    -0.270 OA
ATOM     23  N   UNL     1      -4.293   2.627  -1.722  0.00  0.00    -0.325 N 
ATOM     24  C   UNL     1      -4.019   2.804  -0.370  0.00  0.00    +0.246 C 
ATOM     25  H   UNL     1      -5.225   2.634  -2.040  0.00  0.00    +0.145 HD
ATOM     26  H   UNL     1      -3.556   2.496  -2.361  0.00  0.00    +0.145 HD
ENDBRANCH  17  24
ENDBRANCH   2  16
BRANCH   1  28
ATOM     27  C   UNL     1       4.020  -0.206  -0.833  0.00  0.00    +0.004 C 
ATOM     28  C   UNL     1       1.826  -1.917  -0.630  0.00  0.00    +0.092 C 
ATOM     29  C   UNL     1       4.196  -1.516  -0.387  0.00  0.00    +0.036 C 
ATOM     30  C   UNL     1       3.099  -2.371  -0.285  0.00  0.00    +0.152 C 
ATOM     31  C   UNL     1       2.747   0.249  -1.177  0.00  0.00    -0.001 C 
ATOM     32  C   UNL     1       1.650  -0.607  -1.076  0.00  0.00    +0.018 C 
BRANCH  30  33
ATOM     33  O   UNL     1       3.292  -3.648   0.152  0.00  0.00    -0.470 OA
ATOM     34  C   UNL     1       3.196  -3.872   1.557  0.00  0.00    +0.253 C 
ENDBRANCH  30  33
BRANCH  27  35
ATOM     35  C   UNL     1       5.193   0.709  -0.943  0.00  0.00    +0.177 C 
BRANCH  35  36
ATOM     36  S   UNL     1       5.102   1.869   0.382  0.00  0.00    -0.004 S 
ATOM     37  O   UNL     1       3.933   2.707   0.175  0.00  0.00    -0.173 OA
ATOM     38  O   UNL     1       5.283   1.150   1.632  0.00  0.00    -0.173 OA
ATOM     39  C   UNL     1       6.540   2.887   0.137  0.00  0.00    +0.176 C 
ENDBRANCH  35  36
ENDBRANCH  27  35
ENDBRANCH   1  28
TORSDOF 6
