REMARK  Name = 253602
REMARK  6 active torsions:
REMARK  status: ('A' for Active; 'I' for Inactive)
REMARK    1  A    between atoms: C_2  and  C_14
REMARK    2  A    between atoms: C_3  and  O_10
REMARK    3  A    between atoms: C_4  and  O_8
REMARK    4  A    between atoms: O_10  and  C_12
REMARK    5  A    between atoms: C_14  and  C_15
REMARK    6  A    between atoms: C_20  and  O_21
REMARK                            x       y       z     vdW  Elec       q    Type
REMARK                         _______ _______ _______ _____ _____    ______ ____
ROOT
ATOM      1  N   UNL     1      -2.592   1.921  -0.784  0.00  0.00    +0.389 N 
ATOM      2  C   UNL     1      -1.305   1.454  -0.243  0.00  0.00    -0.014 C 
ATOM      3  C   UNL     1      -1.650   0.093   0.355  0.00  0.00    +0.174 C 
ATOM      4  C   UNL     1      -3.026   0.323   0.965  0.00  0.00    +0.127 C 
ATOM      5  C   UNL     1      -3.608   1.509   0.196  0.00  0.00    -0.048 C 
ATOM      6  H   UNL     1      -2.775   1.489  -1.690  0.00  0.00    -0.084 HD
ATOM      7  H   UNL     1      -2.595   2.931  -0.929  0.00  0.00    -0.084 HD
ENDROOT
BRANCH   4   8
ATOM      8  O   UNL     1      -2.871   0.675   2.335  0.00  0.00    -0.383 OA
ATOM      9  H   UNL     1      -2.502  -0.078   2.822  0.00  0.00    +0.210 HD
ENDBRANCH   4   8
BRANCH   3  10
ATOM     10  O   UNL     1      -1.734  -0.898  -0.663  0.00  0.00    -0.452 OA
BRANCH  10  12
ATOM     11  O   UNL     1      -2.352  -2.479   0.904  0.00  0.00    -0.250 OA
ATOM     12  C   UNL     1      -2.097  -2.148  -0.246  0.00  0.00    +0.317 C 
ATOM     13  C   UNL     1      -2.144  -3.081  -1.418  0.00  0.00    +0.121 C 
ENDBRANCH  10  12
ENDBRANCH   3  10
BRANCH   2  14
ATOM     14  C   UNL     1      -0.225   1.426  -1.315  0.00  0.00    +0.009 C 
BRANCH  14  15
ATOM     15  C   UNL     1       1.098   0.963  -0.764  0.00  0.00    -0.024 C 
ATOM     16  C   UNL     1       1.989   1.896  -0.251  0.00  0.00    -0.001 C 
ATOM     17  C   UNL     1       1.407  -0.390  -0.777  0.00  0.00    -0.001 C 
ATOM     18  C   UNL     1       3.214   1.466   0.260  0.00  0.00    +0.037 C 
ATOM     19  C   UNL     1       2.632  -0.819  -0.266  0.00  0.00    +0.037 C 
ATOM     20  C   UNL     1       3.535   0.109   0.252  0.00  0.00    +0.139 C 
BRANCH  20  21
ATOM     21  O   UNL     1       4.731  -0.309   0.750  0.00  0.00    -0.471 OA
ATOM     22  C   UNL     1       4.996  -1.711   0.711  0.00  0.00    +0.252 C 
ENDBRANCH  20  21
ENDBRANCH  14  15
ENDBRANCH   2  14
TORSDOF 6
