REMARK  Name = 447695
REMARK  7 active torsions:
REMARK  status: ('A' for Active; 'I' for Inactive)
REMARK    1  A    between atoms: N_2  and  C_4
REMARK    2  A    between atoms: N_2  and  C_16
REMARK    3  A    between atoms: C_3  and  C_27
REMARK    4  A    between atoms: C_12  and  O_14
REMARK    5  A    between atoms: C_17  and  C_23
REMARK    6  A    between atoms: C_23  and  O_24
REMARK    7  A    between atoms: C_27  and  O_28
REMARK                            x       y       z     vdW  Elec       q    Type
REMARK                         _______ _______ _______ _____ _____    ______ ____
ROOT
ATOM      1  O   UNL     1       1.480  -0.895  -2.563  0.00  0.00    -0.262 OA
ATOM      2  N   UNL     1       0.583  -0.264  -0.459  0.00  0.00    -0.228 N 
ATOM      3  C   UNL     1       0.680  -1.050  -1.646  0.00  0.00    +0.332 C 
ENDROOT
BRANCH   2   4
ATOM      4  C   UNL     1      -0.422  -0.525   0.481  0.00  0.00    +0.059 C 
ATOM      5  C   UNL     1      -1.678   0.101   0.413  0.00  0.00    +0.017 C 
ATOM      6  C   UNL     1      -2.655  -0.202   1.391  0.00  0.00    +0.001 C 
ATOM      7  C   UNL     1      -0.135  -1.435   1.498  0.00  0.00    +0.015 C 
ATOM      8  C   UNL     1      -1.985   1.020  -0.604  0.00  0.00    +0.038 C 
ATOM      9  C   UNL     1      -2.348  -1.121   2.408  0.00  0.00    +0.000 C 
ATOM     10  C   UNL     1      -3.911   0.424   1.323  0.00  0.00    +0.003 C 
ATOM     11  C   UNL     1      -1.096  -1.733   2.459  0.00  0.00    +0.001 C 
ATOM     12  C   UNL     1      -3.237   1.632  -0.656  0.00  0.00    +0.134 C 
ATOM     13  C   UNL     1      -4.199   1.334   0.306  0.00  0.00    +0.037 C 
BRANCH  12  14
ATOM     14  O   UNL     1      -3.520   2.521  -1.647  0.00  0.00    -0.506 OA
ATOM     15  H   UNL     1      -2.873   2.721  -2.295  0.00  0.00    +0.292 HD
ENDBRANCH  12  14
ENDBRANCH   2   4
BRANCH   2  16
ATOM     16  C   UNL     1       1.539   0.812  -0.233  0.00  0.00    +0.065 C 
ATOM     17  C   UNL     1       2.697   0.535   0.436  0.00  0.00    +0.089 C 
ATOM     18  C   UNL     1       1.204   2.047  -0.713  0.00  0.00    +0.015 C 
ATOM     19  C   UNL     1       3.597   1.580   0.641  0.00  0.00    +0.008 C 
ATOM     20  C   UNL     1       2.104   3.092  -0.507  0.00  0.00    +0.001 C 
ATOM     21  C   UNL     1       3.301   2.859   0.170  0.00  0.00    +0.000 C 
BRANCH  17  23
ATOM     22  O   UNL     1       2.679  -1.858   0.441  0.00  0.00    -0.245 OA
ATOM     23  C   UNL     1       3.038  -0.789   0.942  0.00  0.00    +0.339 C 
BRANCH  23  24
ATOM     24  O   UNL     1       3.817  -0.732   2.055  0.00  0.00    -0.477 OA
ATOM     25  H   UNL     1       4.071   0.098   2.408  0.00  0.00    +0.295 HD
ENDBRANCH  23  24
ENDBRANCH  17  23
ENDBRANCH   2  16
BRANCH   3  27
ATOM     26  O   UNL     1      -1.133  -2.466  -1.023  0.00  0.00    -0.240 OA
ATOM     27  C   UNL     1      -0.314  -2.154  -1.863  0.00  0.00    +0.393 C 
BRANCH  27  28
ATOM     28  O   UNL     1      -0.088  -2.735  -3.050  0.00  0.00    -0.474 OA
ATOM     29  H   UNL     1       0.579  -2.400  -3.617  0.00  0.00    +0.296 HD
ENDBRANCH  27  28
ENDBRANCH   3  27
TORSDOF 7
