REMARK  Name = 736259
REMARK  3 active torsions:
REMARK  status: ('A' for Active; 'I' for Inactive)
REMARK    1  A    between atoms: C_2  and  C_8
REMARK    2  A    between atoms: C_4  and  C_15
REMARK    3  A    between atoms: C_15  and  O_16
REMARK                            x       y       z     vdW  Elec       q    Type
REMARK                         _______ _______ _______ _____ _____    ______ ____
ROOT
ATOM      1  O   UNL     1       1.208   0.173  -0.380  0.00  0.00    -0.447 OA
ATOM      2  C   UNL     1       0.342  -0.128   0.617  0.00  0.00    +0.146 C 
ATOM      3  C   UNL     1       0.998  -0.334   1.799  0.00  0.00    +0.041 C 
ATOM      4  C   UNL     1       2.447   0.158   0.177  0.00  0.00    +0.220 C 
ATOM      5  C   UNL     1       2.372  -0.149   1.515  0.00  0.00    +0.047 C 
ENDROOT
BRANCH   2   8
ATOM      6 CL   UNL     1      -0.784  -2.824  -0.367  0.00  0.00    -0.082 Cl
ATOM      7 CL   UNL     1      -4.053   2.474   0.059  0.00  0.00    -0.082 Cl
ATOM      8  C   UNL     1      -1.050  -0.164   0.226  0.00  0.00    +0.046 C 
ATOM      9  C   UNL     1      -1.655  -1.335  -0.233  0.00  0.00    +0.061 C 
ATOM     10  C   UNL     1      -1.792   1.014   0.317  0.00  0.00    +0.015 C 
ATOM     11  C   UNL     1      -3.137   1.022  -0.052  0.00  0.00    +0.058 C 
ATOM     12  C   UNL     1      -3.000  -1.327  -0.601  0.00  0.00    +0.012 C 
ATOM     13  C   UNL     1      -3.741  -0.149  -0.511  0.00  0.00    +0.012 C 
ENDBRANCH   2   8
BRANCH   4  15
ATOM     14  O   UNL     1       3.519   0.716  -1.888  0.00  0.00    -0.242 OA
ATOM     15  C   UNL     1       3.558   0.445  -0.665  0.00  0.00    +0.373 C 
BRANCH  15  16
ATOM     16  O   UNL     1       4.767   0.408  -0.014  0.00  0.00    -0.475 OA
ATOM     17  H   UNL     1       4.801   0.206   0.901  0.00  0.00    +0.296 HD
ENDBRANCH  15  16
ENDBRANCH   4  15
TORSDOF 3
