REMARK  Name = 11840934
REMARK  13 active torsions:
REMARK  status: ('A' for Active; 'I' for Inactive)
REMARK    1  A    between atoms: C_1  and  C_4
REMARK    2  A    between atoms: C_1  and  N_14
REMARK    3  A    between atoms: C_1  and  C_30
REMARK    4  A    between atoms: N_3  and  C_6
REMARK    5  A    between atoms: C_6  and  C_9
REMARK    6  A    between atoms: C_9  and  N_10
REMARK    7  A    between atoms: N_14  and  C_17
REMARK    8  A    between atoms: C_17  and  C_18
REMARK    9  A    between atoms: C_17  and  C_29
REMARK   10  A    between atoms: C_23  and  O_24
REMARK   11  A    between atoms: C_30  and  S_31
REMARK   12  A    between atoms: S_31  and  C_34
REMARK   13  A    between atoms: C_34  and  C_35
REMARK                            x       y       z     vdW  Elec       q    Type
REMARK                         _______ _______ _______ _____ _____    ______ ____
ROOT
ATOM      1  C   UNL     1       0.348   0.206   0.786  0.00  0.00    +0.042 C 
ENDROOT
BRANCH   1   4
ATOM      2  O   UNL     1      -0.305   2.196   2.007  0.00  0.00    -0.277 OA
ATOM      3  N   UNL     1       1.025   2.436   0.122  0.00  0.00    -0.311 N 
ATOM      4  C   UNL     1       0.312   1.705   1.063  0.00  0.00    +0.204 C 
ATOM      5  H   UNL     1       1.489   1.953  -0.600  0.00  0.00    +0.149 HD
BRANCH   3   6
ATOM      6  C   UNL     1       1.110   3.868   0.162  0.00  0.00    +0.037 C 
ATOM      7  C   UNL     1       2.449   4.537   0.057  0.00  0.00    +0.017 C 
ATOM      8  C   UNL     1       1.708   4.543   1.362  0.00  0.00    +0.017 C 
BRANCH   6   9
ATOM      9  C   UNL     1      -0.038   4.559  -0.495  0.00  0.00    -0.068 C 
BRANCH   9  10
ATOM     10  N   UNL     1      -0.241   4.075  -1.855  0.00  0.00    +0.382 N 
ATOM     11  H   UNL     1      -1.030   4.565  -2.276  0.00  0.00    -0.089 HD
ATOM     12  H   UNL     1      -0.435   3.073  -1.834  0.00  0.00    -0.089 HD
ATOM     13  H   UNL     1       0.599   4.247  -2.407  0.00  0.00    -0.089 HD
ENDBRANCH   9  10
ENDBRANCH   6   9
ENDBRANCH   3   6
ENDBRANCH   1   4
BRANCH   1  14
ATOM     14  N   UNL     1       1.524  -0.303   1.491  0.00  0.00    +0.401 N 
ATOM     15  H   UNL     1       1.296  -0.425   2.478  0.00  0.00    -0.083 HD
ATOM     16  H   UNL     1       2.286   0.366   1.383  0.00  0.00    -0.083 HD
BRANCH  14  17
ATOM     17  C   UNL     1       1.942  -1.581   0.937  0.00  0.00    +0.059 C 
BRANCH  17  18
ATOM     18  C   UNL     1       2.744  -1.403  -0.338  0.00  0.00    -0.034 C 
ATOM     19  C   UNL     1       2.259  -1.909  -1.544  0.00  0.00    -0.003 C 
ATOM     20  C   UNL     1       3.967  -0.734  -0.304  0.00  0.00    -0.003 C 
ATOM     21  C   UNL     1       2.997  -1.746  -2.716  0.00  0.00    +0.036 C 
ATOM     22  C   UNL     1       4.706  -0.571  -1.476  0.00  0.00    +0.036 C 
ATOM     23  C   UNL     1       4.221  -1.077  -2.682  0.00  0.00    +0.134 C 
BRANCH  23  24
ATOM     24  O   UNL     1       4.941  -0.917  -3.826  0.00  0.00    -0.506 OA
ATOM     25  H   UNL     1       4.615  -1.257  -4.636  0.00  0.00    +0.292 HD
ENDBRANCH  23  24
ENDBRANCH  17  18
BRANCH  17  29
ATOM     26  F   UNL     1       2.992  -3.629   1.503  0.00  0.00    -0.172 F 
ATOM     27  F   UNL     1       3.854  -1.808   2.328  0.00  0.00    -0.172 F 
ATOM     28  F   UNL     1       1.967  -2.576   3.114  0.00  0.00    -0.172 F 
ATOM     29  C   UNL     1       2.687  -2.401   1.986  0.00  0.00    +0.384 C 
ENDBRANCH  17  29
ENDBRANCH  14  17
ENDBRANCH   1  14
BRANCH   1  30
ATOM     30  C   UNL     1      -0.896  -0.507   1.306  0.00  0.00    +0.139 C 
BRANCH  30  31
ATOM     31  S   UNL     1      -2.284  -0.271   0.236  0.00  0.00    -0.007 S 
ATOM     32  O   UNL     1      -2.662   1.130   0.291  0.00  0.00    -0.173 OA
ATOM     33  O   UNL     1      -1.990  -0.910  -1.034  0.00  0.00    -0.173 OA
BRANCH  31  34
ATOM     34  C   UNL     1      -3.572  -1.208   1.025  0.00  0.00    +0.177 C 
BRANCH  34  35
ATOM     35  C   UNL     1      -4.809  -1.075   0.192  0.00  0.00    +0.001 C 
ATOM     36  C   UNL     1      -5.063  -1.989  -0.830  0.00  0.00    -0.003 C 
ATOM     37  C   UNL     1      -5.707  -0.036   0.438  0.00  0.00    -0.003 C 
ATOM     38  C   UNL     1      -6.215  -1.865  -1.607  0.00  0.00    -0.000 C 
ATOM     39  C   UNL     1      -6.859   0.087  -0.338  0.00  0.00    -0.000 C 
ATOM     40  C   UNL     1      -7.113  -0.827  -1.361  0.00  0.00    -0.000 C 
ENDBRANCH  34  35
ENDBRANCH  31  34
ENDBRANCH  30  31
ENDBRANCH   1  30
TORSDOF 13
