445950
  -OEChem-10311712443D

 53 55  0     1  0  0  0  0  0999 V2000
    6.7750   -2.6450    0.3790 F   0  0  0  0  0  0  0  0  0  0  0  0
    5.2857    1.8521    0.0417 F   0  0  0  0  0  0  0  0  0  0  0  0
   -5.3469    1.2467   -0.0363 O   0  0  0  0  0  0  0  0  0  0  0  0
   -8.0672    1.9121   -0.2722 O   0  0  0  0  0  0  0  0  0  0  0  0
   -7.2882   -1.7067   -0.3349 N   0  0  0  0  0  0  0  0  0  0  0  0
   -0.0573   -0.2362    0.8280 N   0  0  0  0  0  0  0  0  0  0  0  0
    4.6588   -0.8405    0.3426 N   0  0  0  0  0  0  0  0  0  0  0  0
    1.0609    0.6506   -1.0781 N   0  0  0  0  0  0  0  0  0  0  0  0
    3.4388    0.3458   -1.3229 N   0  0  0  0  0  0  0  0  0  0  0  0
   -7.6532    0.6634    0.2895 C   0  0  1  0  0  0  0  0  0  0  0  0
   -7.6402   -0.3822   -0.8282 C   0  0  0  0  0  0  0  0  0  0  0  0
   -6.2916    0.8535    0.9544 C   0  0  0  0  0  0  0  0  0  0  0  0
   -7.3406   -2.6921   -1.4170 C   0  0  0  0  0  0  0  0  0  0  0  0
   -8.1794   -2.1056    0.7567 C   0  0  0  0  0  0  0  0  0  0  0  0
   -4.0444    0.8815    0.1764 C   0  0  0  0  0  0  0  0  0  0  0  0
   -1.3986    0.1402    0.6085 C   0  0  0  0  0  0  0  0  0  0  0  0
   -3.5688    0.7511    1.4768 C   0  0  0  0  0  0  0  0  0  0  0  0
   -3.2091    0.6446   -0.9098 C   0  0  0  0  0  0  0  0  0  0  0  0
   -2.2419    0.3793    1.6935 C   0  0  0  0  0  0  0  0  0  0  0  0
   -1.8822    0.2727   -0.6932 C   0  0  0  0  0  0  0  0  0  0  0  0
    1.1239   -0.0322    0.0885 C   0  0  0  0  0  0  0  0  0  0  0  0
    2.3012   -0.5474    0.6011 C   0  0  0  0  0  0  0  0  0  0  0  0
    3.4355   -0.3264   -0.1531 C   0  0  0  0  0  0  0  0  0  0  0  0
    5.9893   -0.4098    0.2143 C   0  0  0  0  0  0  0  0  0  0  0  0
    7.0349   -1.3376    0.2362 C   0  0  0  0  0  0  0  0  0  0  0  0
    6.2772    0.9501    0.0657 C   0  0  0  0  0  0  0  0  0  0  0  0
    2.2350    0.8002   -1.7203 C   0  0  0  0  0  0  0  0  0  0  0  0
    8.3565   -0.9093    0.1105 C   0  0  0  0  0  0  0  0  0  0  0  0
    7.5987    1.3784   -0.0599 C   0  0  0  0  0  0  0  0  0  0  0  0
    8.6384    0.4487   -0.0376 C   0  0  0  0  0  0  0  0  0  0  0  0
   -8.4050    0.4359    1.0505 H   0  0  0  0  0  0  0  0  0  0  0  0
   -8.6279   -0.3896   -1.3108 H   0  0  0  0  0  0  0  0  0  0  0  0
   -6.9379   -0.0724   -1.6133 H   0  0  0  0  0  0  0  0  0  0  0  0
   -6.0069   -0.0784    1.4569 H   0  0  0  0  0  0  0  0  0  0  0  0
   -6.3591    1.6594    1.6948 H   0  0  0  0  0  0  0  0  0  0  0  0
   -6.6561   -2.4113   -2.2254 H   0  0  0  0  0  0  0  0  0  0  0  0
   -8.3481   -2.7933   -1.8367 H   0  0  0  0  0  0  0  0  0  0  0  0
   -7.0145   -3.6751   -1.0593 H   0  0  0  0  0  0  0  0  0  0  0  0
   -7.9821   -1.5480    1.6771 H   0  0  0  0  0  0  0  0  0  0  0  0
   -8.0053   -3.1554    1.0235 H   0  0  0  0  0  0  0  0  0  0  0  0
   -9.2379   -2.0038    0.4908 H   0  0  0  0  0  0  0  0  0  0  0  0
   -7.3956    2.1811   -0.9223 H   0  0  0  0  0  0  0  0  0  0  0  0
   -4.1826    0.9577    2.3482 H   0  0  0  0  0  0  0  0  0  0  0  0
   -3.5848    0.7384   -1.9248 H   0  0  0  0  0  0  0  0  0  0  0  0
   -1.8760    0.2868    2.7130 H   0  0  0  0  0  0  0  0  0  0  0  0
   -1.2698    0.0599   -1.5633 H   0  0  0  0  0  0  0  0  0  0  0  0
    0.1229   -0.4884    1.7970 H   0  0  0  0  0  0  0  0  0  0  0  0
    2.3323   -1.0923    1.5381 H   0  0  0  0  0  0  0  0  0  0  0  0
    4.5659   -1.7724    0.7384 H   0  0  0  0  0  0  0  0  0  0  0  0
    2.2083    1.3440   -2.6565 H   0  0  0  0  0  0  0  0  0  0  0  0
    9.1657   -1.6333    0.1280 H   0  0  0  0  0  0  0  0  0  0  0  0
    7.8178    2.4358   -0.1754 H   0  0  0  0  0  0  0  0  0  0  0  0
    9.6674    0.7822   -0.1355 H   0  0  0  0  0  0  0  0  0  0  0  0
  1 25  1  0  0  0  0
  2 26  1  0  0  0  0
  3 12  1  0  0  0  0
  3 15  1  0  0  0  0
  4 10  1  0  0  0  0
  4 42  1  0  0  0  0
  5 11  1  0  0  0  0
  5 13  1  0  0  0  0
  5 14  1  0  0  0  0
  6 16  1  0  0  0  0
  6 21  1  0  0  0  0
  6 47  1  0  0  0  0
  7 23  1  0  0  0  0
  7 24  1  0  0  0  0
  7 49  1  0  0  0  0
  8 21  1  0  0  0  0
  8 27  2  0  0  0  0
  9 23  2  0  0  0  0
  9 27  1  0  0  0  0
 10 11  1  0  0  0  0
 10 12  1  0  0  0  0
 10 31  1  0  0  0  0
 11 32  1  0  0  0  0
 11 33  1  0  0  0  0
 12 34  1  0  0  0  0
 12 35  1  0  0  0  0
 13 36  1  0  0  0  0
 13 37  1  0  0  0  0
 13 38  1  0  0  0  0
 14 39  1  0  0  0  0
 14 40  1  0  0  0  0
 14 41  1  0  0  0  0
 15 17  2  0  0  0  0
 15 18  1  0  0  0  0
 16 19  2  0  0  0  0
 16 20  1  0  0  0  0
 17 19  1  0  0  0  0
 17 43  1  0  0  0  0
 18 20  2  0  0  0  0
 18 44  1  0  0  0  0
 19 45  1  0  0  0  0
 20 46  1  0  0  0  0
 21 22  2  0  0  0  0
 22 23  1  0  0  0  0
 22 48  1  0  0  0  0
 24 25  2  0  0  0  0
 24 26  1  0  0  0  0
 25 28  1  0  0  0  0
 26 29  2  0  0  0  0
 27 50  1  0  0  0  0
 28 30  2  0  0  0  0
 28 51  1  0  0  0  0
 29 30  1  0  0  0  0
 29 52  1  0  0  0  0
 30 53  1  0  0  0  0
M  END
> <DATABASE_ID>
DB07751

> <DATABASE_NAME>
drugbank

> <ORIGINAL_SOURCE>
PUBCHEM

> <ORIGINAL_SOURCE_URL>
https://pubchem.ncbi.nlm.nih.gov/rest/pug/compound/inchikey/ZVSBKYYVBCKDBO-HNNXBMFYSA-N/SDF?record_type=3d

> <SMILES>
[H]N(C1=CC=C(OC[C@@H](O)CN(C)C)C=C1)C1=CC(=NC=N1)N([H])C1=C(F)C=CC=C1F

> <INCHI_IDENTIFIER>
InChI=1S/C21H23F2N5O2/c1-28(2)11-15(29)12-30-16-8-6-14(7-9-16)26-19-10-20(25-13-24-19)27-21-17(22)4-3-5-18(21)23/h3-10,13,15,29H,11-12H2,1-2H3,(H2,24,25,26,27)/t15-/m0/s1

> <INCHI_KEY>
ZVSBKYYVBCKDBO-HNNXBMFYSA-N

> <FORMULA>
C21H23F2N5O2

> <MOLECULAR_WEIGHT>
415.4364

> <EXACT_MASS>
415.181981415

> <JCHEM_ACCEPTOR_COUNT>
7

> <JCHEM_ATOM_COUNT>
53

> <JCHEM_AVERAGE_POLARIZABILITY>
42.79442603469842

> <JCHEM_BIOAVAILABILITY>
1

> <JCHEM_DONOR_COUNT>
3

> <JCHEM_FORMAL_CHARGE>
0

> <JCHEM_GHOSE_FILTER>
1

> <JCHEM_IUPAC>
(2S)-1-[4-({6-[(2,6-difluorophenyl)amino]pyrimidin-4-yl}amino)phenoxy]-3-(dimethylamino)propan-2-ol

> <ALOGPS_LOGP>
3.45

> <JCHEM_LOGP>
3.634544254

> <ALOGPS_LOGS>
-4.06

> <JCHEM_MDDR_LIKE_RULE>
1

> <JCHEM_NUMBER_OF_RINGS>
3

> <JCHEM_PHYSIOLOGICAL_CHARGE>
1

> <JCHEM_PKA>
14.09017954135803

> <JCHEM_PKA_STRONGEST_ACIDIC>
12.416770750084979

> <JCHEM_PKA_STRONGEST_BASIC>
8.69770902382887

> <JCHEM_POLAR_SURFACE_AREA>
82.54

> <JCHEM_REFRACTIVITY>
111.19929999999998

> <JCHEM_ROTATABLE_BOND_COUNT>
9

> <JCHEM_RULE_OF_FIVE>
1

> <ALOGPS_SOLUBILITY>
3.60e-02 g/l

> <JCHEM_TRADITIONAL_IUPAC>
(2S)-1-[4-({6-[(2,6-difluorophenyl)amino]pyrimidin-4-yl}amino)phenoxy]-3-(dimethylamino)propan-2-ol

> <JCHEM_VEBER_RULE>
0

> <DRUGBANK_ID>
DB07751

> <DRUG_GROUPS>
experimental

> <GENERIC_NAME>
(2S)-1-[4-({6-[(2,6-Difluorophenyl)amino]-4-pyrimidinyl}amino)phenoxy]-3-(dimethylamino)-2-propanol

$$$$
