REMARK  Name = 448533
REMARK  4 active torsions:
REMARK  status: ('A' for Active; 'I' for Inactive)
REMARK    1  A    between atoms: N_3  and  C_12
REMARK    2  A    between atoms: C_6  and  C_20
REMARK    3  A    between atoms: C_17  and  C_19
REMARK    4  A    between atoms: C_20  and  C_24
REMARK                            x       y       z     vdW  Elec       q    Type
REMARK                         _______ _______ _______ _____ _____    ______ ____
ROOT
ATOM      1  N   UNL     1       1.114  -1.063   0.391  0.00  0.00    -0.264 NA
ATOM      2  N   UNL     1       3.464  -1.506   0.587  0.00  0.00    -0.264 NA
ATOM      3  N   UNL     1      -0.326  -2.792  -0.270  0.00  0.00    -0.237 N 
ATOM      4  N   UNL     1       1.966  -3.255  -0.089  0.00  0.00    -0.247 NA
ATOM      5  N   UNL     1       4.267  -3.658   0.113  0.00  0.00    -0.282 N 
ATOM      6  C   UNL     1       2.379  -0.734   0.650  0.00  0.00    +0.144 C 
ATOM      7  C   UNL     1       0.981  -2.348   0.024  0.00  0.00    +0.224 C 
ATOM      8  C   UNL     1       3.179  -2.763   0.207  0.00  0.00    +0.217 C 
ATOM      9  H   UNL     1      -0.373  -3.740  -0.533  0.00  0.00    +0.166 HD
ATOM     10  H   UNL     1       5.179  -3.349   0.319  0.00  0.00    +0.156 HD
ATOM     11  H   UNL     1       4.114  -4.592  -0.160  0.00  0.00    +0.156 HD
ENDROOT
BRANCH   3  12
ATOM     12  C   UNL     1      -1.576  -2.145  -0.261  0.00  0.00    +0.059 C 
ATOM     13  C   UNL     1      -2.737  -2.869   0.018  0.00  0.00    +0.016 C 
ATOM     14  C   UNL     1      -1.659  -0.778  -0.532  0.00  0.00    +0.016 C 
ATOM     15  C   UNL     1      -3.976  -2.228   0.027  0.00  0.00    +0.012 C 
ATOM     16  C   UNL     1      -2.897  -0.137  -0.523  0.00  0.00    +0.012 C 
ATOM     17  C   UNL     1      -4.056  -0.862  -0.244  0.00  0.00    +0.069 C 
BRANCH  17  19
ATOM     18  N   UNL     1      -6.357   0.329  -0.228  0.00  0.00    -0.191 NA
ATOM     19  C   UNL     1      -5.325  -0.205  -0.235  0.00  0.00    +0.100 C 
ENDBRANCH  17  19
ENDBRANCH   3  12
BRANCH   6  20
ATOM     20  C   UNL     1       2.614   0.699   1.073  0.00  0.00    +0.154 C 
BRANCH  20  24
ATOM     21 CL   UNL     1       3.739   1.231  -1.712  0.00  0.00    -0.083 Cl
ATOM     22  N   UNL     1      -0.992   3.761   0.621  0.00  0.00    -0.312 N 
ATOM     23  C   UNL     1       0.735   2.353   0.726  0.00  0.00    +0.013 C 
ATOM     24  C   UNL     1       1.883   1.702   0.233  0.00  0.00    +0.007 C 
ATOM     25  C   UNL     1       0.083   3.279  -0.091  0.00  0.00    +0.048 C 
ATOM     26  C   UNL     1       0.013   2.297   1.952  0.00  0.00    +0.017 C 
ATOM     27  C   UNL     1       2.336   2.001  -1.058  0.00  0.00    +0.055 C 
ATOM     28  C   UNL     1       0.524   3.588  -1.383  0.00  0.00    +0.015 C 
ATOM     29  C   UNL     1       1.665   2.930  -1.851  0.00  0.00    +0.012 C 
ATOM     30  C   UNL     1      -1.042   3.173   1.856  0.00  0.00    +0.062 C 
ATOM     31  H   UNL     1      -1.632   4.432   0.289  0.00  0.00    +0.152 HD
ENDBRANCH  20  24
ENDBRANCH   6  20
TORSDOF 4
