REMARK  Name = 5287739
REMARK  3 active torsions:
REMARK  status: ('A' for Active; 'I' for Inactive)
REMARK    1  A    between atoms: C_2  and  O_21
REMARK    2  A    between atoms: C_3  and  O_23
REMARK    3  A    between atoms: C_4  and  O_25
REMARK                            x       y       z     vdW  Elec       q    Type
REMARK                         _______ _______ _______ _____ _____    ______ ____
ROOT
ATOM      1  C   UNL     1      -1.417   0.441   0.087  0.00  0.00    -0.021 C 
ATOM      2  C   UNL     1      -4.224  -0.244  -0.335  0.00  0.00    +0.168 C 
ATOM      3  C   UNL     1      -3.238  -1.367  -0.007  0.00  0.00    +0.162 C 
ATOM      4  C   UNL     1      -3.885   1.001   0.480  0.00  0.00    +0.144 C 
ATOM      5  C   UNL     1      -2.486   1.517   0.147  0.00  0.00    +0.058 C 
ATOM      6  C   UNL     1      -1.791  -0.917   0.004  0.00  0.00    +0.003 C 
ATOM      7  C   UNL     1      -0.035   0.800   0.066  0.00  0.00    -0.004 C 
ATOM      8  C   UNL     1       0.948  -0.222   0.007  0.00  0.00    -0.000 C 
ATOM      9  C   UNL     1       0.560  -1.578  -0.045  0.00  0.00    -0.000 C 
ATOM     10  C   UNL     1      -0.798  -1.907  -0.049  0.00  0.00    -0.002 C 
ATOM     11  C   UNL     1       2.334   0.100  -0.005  0.00  0.00    -0.000 C 
ATOM     12  C   UNL     1       0.423   2.135   0.097  0.00  0.00    -0.000 C 
ATOM     13  C   UNL     1       2.750   1.449   0.035  0.00  0.00    -0.000 C 
ATOM     14  C   UNL     1       3.308  -0.926  -0.059  0.00  0.00    -0.000 C 
ATOM     15  C   UNL     1       1.536  -2.582  -0.099  0.00  0.00    -0.000 C 
ATOM     16  C   UNL     1       1.783   2.454   0.083  0.00  0.00    -0.000 C 
ATOM     17  C   UNL     1       2.893  -2.261  -0.104  0.00  0.00    -0.000 C 
ATOM     18  C   UNL     1       4.118   1.756   0.024  0.00  0.00    -0.000 C 
ATOM     19  C   UNL     1       4.670  -0.591  -0.069  0.00  0.00    -0.000 C 
ATOM     20  C   UNL     1       5.071   0.742  -0.027  0.00  0.00    +0.000 C 
ENDROOT
BRANCH   2  21
ATOM     21  O   UNL     1      -4.161   0.061  -1.728  0.00  0.00    -0.379 OA
ATOM     22  H   UNL     1      -4.377  -0.732  -2.242  0.00  0.00    +0.211 HD
ENDBRANCH   2  21
BRANCH   3  23
ATOM     23  O   UNL     1      -3.532  -1.896   1.285  0.00  0.00    -0.377 OA
ATOM     24  H   UNL     1      -4.455  -2.194   1.309  0.00  0.00    +0.211 HD
ENDBRANCH   3  23
BRANCH   4  25
ATOM     25  O   UNL     1      -4.827   2.035   0.210  0.00  0.00    -0.382 OA
ATOM     26  H   UNL     1      -5.721   1.721   0.417  0.00  0.00    +0.210 HD
ENDBRANCH   4  25
TORSDOF 3
