REMARK  Name = 24748051
REMARK  5 active torsions:
REMARK  status: ('A' for Active; 'I' for Inactive)
REMARK    1  A    between atoms: C_1  and  C_7
REMARK    2  A    between atoms: C_3  and  O_13
REMARK    3  A    between atoms: C_4  and  C_15
REMARK    4  A    between atoms: C_15  and  C_16
REMARK    5  A    between atoms: C_16  and  N_17
REMARK                            x       y       z     vdW  Elec       q    Type
REMARK                         _______ _______ _______ _____ _____    ______ ____
ROOT
ATOM      1  C   UNL     1      -0.279  -0.687  -0.015  0.00  0.00    +0.011 C 
ATOM      2  C   UNL     1       0.710   0.250  -0.312  0.00  0.00    -0.006 C 
ATOM      3  C   UNL     1       0.067  -2.021   0.202  0.00  0.00    +0.130 C 
ATOM      4  C   UNL     1       2.045  -0.146  -0.392  0.00  0.00    -0.024 C 
ATOM      5  C   UNL     1       1.402  -2.418   0.122  0.00  0.00    +0.036 C 
ATOM      6  C   UNL     1       2.391  -1.480  -0.175  0.00  0.00    -0.001 C 
ENDROOT
BRANCH   1   7
ATOM      7  C   UNL     1      -1.727  -0.239   0.067  0.00  0.00    +0.025 C 
ATOM      8  C   UNL     1      -1.946   0.786   1.193  0.00  0.00    +0.004 C 
ATOM      9  C   UNL     1      -2.234   0.307  -1.280  0.00  0.00    +0.004 C 
ATOM     10  C   UNL     1      -3.408   1.224   1.273  0.00  0.00    +0.000 C 
ATOM     11  C   UNL     1      -3.694   0.746  -1.190  0.00  0.00    +0.000 C 
ATOM     12  C   UNL     1      -3.910   1.755  -0.066  0.00  0.00    +0.000 C 
ENDBRANCH   1   7
BRANCH   3  13
ATOM     13  O   UNL     1      -0.887  -2.950   0.491  0.00  0.00    -0.506 OA
ATOM     14  H   UNL     1      -1.787  -2.695   0.547  0.00  0.00    +0.292 HD
ENDBRANCH   3  13
BRANCH   4  15
ATOM     15  C   UNL     1       3.103   0.856  -0.708  0.00  0.00    +0.002 C 
BRANCH  15  16
ATOM     16  C   UNL     1       3.676   1.511   0.557  0.00  0.00    -0.081 C 
BRANCH  16  17
ATOM     17  N   UNL     1       4.691   2.507   0.233  0.00  0.00    +0.381 N 
ATOM     18  H   UNL     1       5.048   2.921   1.094  0.00  0.00    -0.089 HD
ATOM     19  H   UNL     1       4.278   3.236  -0.348  0.00  0.00    -0.089 HD
ATOM     20  H   UNL     1       5.456   2.061  -0.273  0.00  0.00    -0.089 HD
ENDBRANCH  16  17
ENDBRANCH  15  16
ENDBRANCH   4  15
TORSDOF 5
