REMARK  Name = 11586735
REMARK  3 active torsions:
REMARK  status: ('A' for Active; 'I' for Inactive)
REMARK    1  A    between atoms: C_1  and  C_3
REMARK    2  A    between atoms: C_1  and  C_12
REMARK    3  A    between atoms: C_12  and  C_14
REMARK                            x       y       z     vdW  Elec       q    Type
REMARK                         _______ _______ _______ _____ _____    ______ ____
ROOT
ATOM      1  C   UNL     1      -0.508  -2.513  -0.510  0.00  0.00    +0.034 C 
ENDROOT
BRANCH   1   3
ATOM      2  N   UNL     1       2.351   1.542  -1.183  0.00  0.00    -0.312 N 
ATOM      3  C   UNL     1       0.666  -1.636  -0.223  0.00  0.00    -0.021 C 
ATOM      4  C   UNL     1       1.942   0.343  -0.644  0.00  0.00    +0.048 C 
ATOM      5  C   UNL     1       2.876  -0.008   0.334  0.00  0.00    +0.015 C 
ATOM      6  C   UNL     1       0.829  -0.450  -0.945  0.00  0.00    +0.010 C 
ATOM      7  C   UNL     1       1.582  -2.012   0.758  0.00  0.00    -0.004 C 
ATOM      8  C   UNL     1       2.691  -1.209   1.047  0.00  0.00    +0.001 C 
ATOM      9  C   UNL     1       3.857   1.022   0.363  0.00  0.00    +0.017 C 
ATOM     10  C   UNL     1       3.508   1.960  -0.581  0.00  0.00    +0.062 C 
ATOM     11  H   UNL     1       1.880   2.028  -1.897  0.00  0.00    +0.152 HD
ENDBRANCH   1   3
BRANCH   1  12
ATOM     12  C   UNL     1      -1.753  -2.189   0.338  0.00  0.00    +0.064 C 
BRANCH  12  14
ATOM     13  N   UNL     1      -1.761   0.158   0.933  0.00  0.00    -0.396 NA
ATOM     14  C   UNL     1      -2.270  -0.787   0.125  0.00  0.00    +0.110 C 
ATOM     15  C   UNL     1      -3.209  -0.570  -0.860  0.00  0.00    +0.023 C 
ATOM     16  C   UNL     1      -3.666   0.732  -1.030  0.00  0.00    -0.015 C 
ATOM     17  C   UNL     1      -2.228   1.412   0.739  0.00  0.00    +0.158 C 
ATOM     18  C   UNL     1      -3.171   1.748  -0.219  0.00  0.00    +0.100 C 
ATOM     19  N   UNL     1      -1.734   2.458   1.557  0.00  0.00    -0.336 N 
ATOM     20  H   UNL     1      -1.063   2.265   2.251  0.00  0.00    +0.144 HD
ATOM     21  H   UNL     1      -2.063   3.378   1.432  0.00  0.00    +0.144 HD
ENDBRANCH  12  14
ENDBRANCH   1  12
TORSDOF 3
