REMARK  Name = 44129627
REMARK  8 active torsions:
REMARK  status: ('A' for Active; 'I' for Inactive)
REMARK    1  A    between atoms: N_1  and  C_2
REMARK    2  A    between atoms: N_1  and  O_11
REMARK    3  A    between atoms: C_2  and  C_3
REMARK    4  A    between atoms: C_4  and  O_9
REMARK    5  A    between atoms: O_11  and  C_12
REMARK    6  A    between atoms: C_12  and  C_13
REMARK    7  A    between atoms: C_13  and  C_15
REMARK    8  A    between atoms: C_15  and  O_16
REMARK                            x       y       z     vdW  Elec       q    Type
REMARK                         _______ _______ _______ _____ _____    ______ ____
ROOT
ATOM      1  C   UNL     1       0.819   1.854  -1.063  0.00  0.00    +0.151 C 
ENDROOT
BRANCH   1   2
ATOM      2  C   UNL     1       1.434   0.912  -0.137  0.00  0.00    +0.032 C 
ATOM      3  C   UNL     1       1.665  -0.412  -0.511  0.00  0.00    +0.136 C 
ATOM      4  C   UNL     1       1.792   1.350   1.138  0.00  0.00    +0.000 C 
ATOM      5  C   UNL     1       2.253  -1.298   0.391  0.00  0.00    +0.037 C 
ATOM      6  C   UNL     1       2.380   0.463   2.040  0.00  0.00    -0.000 C 
ATOM      7  C   UNL     1       2.611  -0.861   1.667  0.00  0.00    +0.003 C 
BRANCH   3   8
ATOM      8  O   UNL     1       1.320  -0.859  -1.751  0.00  0.00    -0.472 OA
ATOM      9  C   UNL     1       1.594  -2.227  -2.045  0.00  0.00    +0.252 C 
ENDBRANCH   3   8
ENDBRANCH   1   2
BRANCH   1  10
ATOM     10  N   UNL     1      -0.468   2.031  -1.138  0.00  0.00    -0.079 NA
BRANCH  10  11
ATOM     11  O   UNL     1      -1.104   1.192  -0.212  0.00  0.00    -0.265 OA
BRANCH  11  12
ATOM     12  C   UNL     1      -2.504   1.404  -0.314  0.00  0.00    +0.180 C 
BRANCH  12  13
ATOM     13  C   UNL     1      -3.221   0.507   0.679  0.00  0.00    +0.144 C 
BRANCH  13  15
ATOM     14  O   UNL     1      -2.636  -1.398  -0.688  0.00  0.00    -0.250 OA
ATOM     15  C   UNL     1      -2.927  -0.949   0.413  0.00  0.00    +0.316 C 
BRANCH  15  16
ATOM     16  O   UNL     1      -3.007  -1.710   1.533  0.00  0.00    -0.480 OA
ATOM     17  H   UNL     1      -3.234  -1.316   2.352  0.00  0.00    +0.295 HD
ENDBRANCH  15  16
ENDBRANCH  13  15
ENDBRANCH  12  13
ENDBRANCH  11  12
ENDBRANCH  10  11
ENDBRANCH   1  10
TORSDOF 8
