REMARK  Name = 654376
REMARK  2 active torsions:
REMARK  status: ('A' for Active; 'I' for Inactive)
REMARK    1  A    between atoms: N_4  and  C_16
REMARK    2  A    between atoms: C_16  and  C_18
REMARK                            x       y       z     vdW  Elec       q    Type
REMARK                         _______ _______ _______ _____ _____    ______ ____
ROOT
ATOM      1  S   UNL     1       4.111  -1.844   0.382  0.00  0.00    -0.090 S 
ATOM      2  O   UNL     1      -0.593   2.154  -0.926  0.00  0.00    -0.267 OA
ATOM      3  N   UNL     1       2.168   1.400  -0.125  0.00  0.00    -0.321 N 
ATOM      4  N   UNL     1      -1.062  -0.121  -1.109  0.00  0.00    -0.171 N 
ATOM      5  N   UNL     1      -0.659  -1.452  -1.018  0.00  0.00    -0.173 NA
ATOM      6  C   UNL     1       1.107   0.605  -0.455  0.00  0.00    +0.118 A 
ATOM      7  C   UNL     1       3.233   0.575   0.172  0.00  0.00    +0.066 A 
ATOM      8  C   UNL     1       1.482  -0.705  -0.371  0.00  0.00    +0.048 A 
ATOM      9  C   UNL     1       2.836  -0.729   0.028  0.00  0.00    +0.048 A 
ATOM     10  C   UNL     1      -0.225   0.984  -0.840  0.00  0.00    +0.284 C 
ATOM     11  C   UNL     1       4.587   0.718   0.575  0.00  0.00    +0.020 C 
ATOM     12  C   UNL     1       0.557  -1.741  -0.665  0.00  0.00    +0.120 C 
ATOM     13  C   UNL     1       5.165  -0.525   0.721  0.00  0.00    +0.009 C 
ATOM     14  C   UNL     1       2.228   2.840  -0.078  0.00  0.00    +0.131 C 
ATOM     15  C   UNL     1       6.558  -0.827   1.125  0.00  0.00    +0.038 C 
ENDROOT
BRANCH   4  16
ATOM     16  C   UNL     1      -2.446   0.059  -1.514  0.00  0.00    +0.148 C 
BRANCH  16  18
ATOM     17  F   UNL     1      -3.663  -2.253  -0.436  0.00  0.00    -0.204 F 
ATOM     18  C   UNL     1      -3.375   0.101  -0.335  0.00  0.00    +0.027 C 
ATOM     19  C   UNL     1      -3.938  -1.076   0.144  0.00  0.00    +0.138 C 
ATOM     20  C   UNL     1      -3.661   1.321   0.268  0.00  0.00    -0.000 C 
ATOM     21  C   UNL     1      -4.799  -1.034   1.240  0.00  0.00    +0.029 C 
ATOM     22  C   UNL     1      -4.521   1.363   1.365  0.00  0.00    -0.000 C 
ATOM     23  C   UNL     1      -5.091   0.186   1.851  0.00  0.00    +0.002 C 
ENDBRANCH  16  18
ENDBRANCH   4  16
TORSDOF 2
