REMARK  Name = 6852125
REMARK  4 active torsions:
REMARK  status: ('A' for Active; 'I' for Inactive)
REMARK    1  A    between atoms: C_4  and  C_6
REMARK    2  A    between atoms: C_5  and  C_11
REMARK    3  A    between atoms: C_11  and  C_12
REMARK    4  A    between atoms: C_12  and  N_14
REMARK                            x       y       z     vdW  Elec       q    Type
REMARK                         _______ _______ _______ _____ _____    ______ ____
ROOT
ATOM      1  O   UNL     1      -0.510   0.648   0.081  0.00  0.00    -0.417 OA
ATOM      2  N   UNL     1      -1.025  -1.497  -0.292  0.00  0.00    -0.111 NA
ATOM      3  N   UNL     1       0.353  -1.381  -0.301  0.00  0.00    -0.104 NA
ATOM      4  C   UNL     1      -1.411  -0.315  -0.072  0.00  0.00    +0.226 A 
ATOM      5  C   UNL     1       0.607  -0.112  -0.080  0.00  0.00    +0.283 A 
ENDROOT
BRANCH   4   6
ATOM      6  C   UNL     1      -2.874   0.176   0.049  0.00  0.00    +0.070 C 
ATOM      7  C   UNL     1      -3.843  -1.010  -0.143  0.00  0.00    +0.009 C 
ATOM      8  C   UNL     1      -3.157   1.248  -1.027  0.00  0.00    +0.009 C 
ATOM      9  C   UNL     1      -3.195   0.811   1.420  0.00  0.00    +0.009 C 
ENDBRANCH   4   6
BRANCH   5  11
ATOM     10  O   UNL     1       2.079   1.722   0.202  0.00  0.00    -0.289 OA
ATOM     11  C   UNL     1       1.891   0.488  -0.001  0.00  0.00    +0.207 C 
BRANCH  11  12
ATOM     12  C   UNL     1       3.182  -0.367  -0.182  0.00  0.00    +0.003 C 
ATOM     13  C   UNL     1       3.686  -0.859   1.169  0.00  0.00    -0.016 C 
BRANCH  12  14
ATOM     14  N   UNL     1       4.217   0.449  -0.822  0.00  0.00    +0.387 N 
ATOM     15  H   UNL     1       3.880   0.778  -1.726  0.00  0.00    -0.089 HD
ATOM     16  H   UNL     1       5.058  -0.112  -0.956  0.00  0.00    -0.089 HD
ATOM     17  H   UNL     1       4.434   1.250  -0.228  0.00  0.00    -0.089 HD
ENDBRANCH  12  14
ENDBRANCH  11  12
ENDBRANCH   5  11
TORSDOF 4
