REMARK  Name = 449582
REMARK  4 active torsions:
REMARK  status: ('A' for Active; 'I' for Inactive)
REMARK    1  A    between atoms: N_2  and  C_12
REMARK    2  A    between atoms: N_4  and  C_18
REMARK    3  A    between atoms: C_12  and  C_15
REMARK    4  A    between atoms: C_12  and  C_16
REMARK                            x       y       z     vdW  Elec       q    Type
REMARK                         _______ _______ _______ _____ _____    ______ ____
ROOT
ATOM      1 CL   UNL     1      -3.050  -3.296   0.199  0.00  0.00    +0.026 Cl
ATOM      2  N   UNL     1       1.452  -1.246   0.168  0.00  0.00    -0.248 N 
ATOM      3  N   UNL     1      -0.394   0.192   0.004  0.00  0.00    -0.247 NA
ATOM      4  N   UNL     1      -2.280   1.578  -0.157  0.00  0.00    -0.258 N 
ATOM      5  N   UNL     1      -0.698  -2.182   0.178  0.00  0.00    -0.249 NA
ATOM      6  N   UNL     1      -2.606  -0.737   0.012  0.00  0.00    -0.249 NA
ATOM      7  C   UNL     1       0.082  -1.073   0.115  0.00  0.00    +0.222 C 
ATOM      8  C   UNL     1      -1.733   0.281  -0.041  0.00  0.00    +0.221 C 
ATOM      9  C   UNL     1      -2.017  -1.939   0.121  0.00  0.00    +0.227 C 
ATOM     10  H   UNL     1       1.804  -2.161   0.250  0.00  0.00    +0.161 HD
ATOM     11  H   UNL     1      -3.259   1.675  -0.193  0.00  0.00    +0.160 HD
ENDROOT
BRANCH   2  12
ATOM     12  C   UNL     1       2.399  -0.147   0.110  0.00  0.00    +0.144 C 
ATOM     13  C   UNL     1       3.810  -0.739   0.229  0.00  0.00    +0.036 C 
BRANCH  12  15
ATOM     14  N   UNL     1       1.978   1.498   2.127  0.00  0.00    -0.194 NA
ATOM     15  C   UNL     1       2.163   0.774   1.239  0.00  0.00    +0.090 C 
ENDBRANCH  12  15
BRANCH  12  16
ATOM     16  C   UNL     1       2.262   0.588  -1.242  0.00  0.00    +0.033 C 
ATOM     17  C   UNL     1       2.456  -0.294  -2.474  0.00  0.00    +0.003 C 
ENDBRANCH  12  16
ENDBRANCH   2  12
BRANCH   4  18
ATOM     18  C   UNL     1      -1.473   2.756  -0.224  0.00  0.00    +0.099 C 
ATOM     19  C   UNL     1      -2.352   3.984  -0.366  0.00  0.00    +0.024 C 
ENDBRANCH   4  18
TORSDOF 4
