REMARK  Name = 16224058
REMARK  5 active torsions:
REMARK  status: ('A' for Active; 'I' for Inactive)
REMARK    1  A    between atoms: C_7  and  N_26
REMARK    2  A    between atoms: C_17  and  C_21
REMARK    3  A    between atoms: C_21  and  C_23
REMARK    4  A    between atoms: C_23  and  O_24
REMARK    5  A    between atoms: N_26  and  C_28
REMARK                            x       y       z     vdW  Elec       q    Type
REMARK                         _______ _______ _______ _____ _____    ______ ____
ROOT
ATOM      1  N   UNL     1      -2.902  -0.994   0.126  0.00  0.00    -0.164 N 
ATOM      2  N   UNL     1      -4.162  -1.436   0.276  0.00  0.00    -0.170 NA
ATOM      3  N   UNL     1      -0.595  -1.450  -0.086  0.00  0.00    -0.370 NA
ATOM      4  N   UNL     1      -1.158  -4.191   0.111  0.00  0.00    -0.256 NA
ATOM      5  C   UNL     1      -2.792   0.368   0.045  0.00  0.00    +0.079 C 
ATOM      6  C   UNL     1      -4.093   0.848   0.153  0.00  0.00    +0.036 C 
ATOM      7  C   UNL     1      -1.927   2.579  -0.155  0.00  0.00    +0.046 C 
ATOM      8  C   UNL     1      -1.683   1.203  -0.110  0.00  0.00    +0.031 C 
ATOM      9  C   UNL     1      -4.322   2.233   0.107  0.00  0.00    +0.004 C 
ATOM     10  C   UNL     1      -3.223   3.088  -0.048  0.00  0.00    +0.014 C 
ATOM     11  C   UNL     1      -1.853  -1.911   0.065  0.00  0.00    +0.209 C 
ATOM     12  C   UNL     1      -4.883  -0.313   0.293  0.00  0.00    +0.120 C 
ATOM     13  C   UNL     1       0.376  -2.384  -0.136  0.00  0.00    +0.211 C 
ATOM     14  C   UNL     1      -2.129  -3.257   0.161  0.00  0.00    +0.202 C 
ATOM     15  C   UNL     1       0.099  -3.730  -0.040  0.00  0.00    +0.142 C 
ATOM     16  N   UNL     1       1.689  -1.974  -0.290  0.00  0.00    -0.238 N 
ATOM     17  C   UNL     1       3.473  -0.676  -0.541  0.00  0.00    +0.005 C 
ATOM     18  C   UNL     1       2.103  -0.673  -0.401  0.00  0.00    +0.068 C 
ATOM     19  C   UNL     1       2.774  -2.809  -0.358  0.00  0.00    +0.072 C 
ATOM     20  C   UNL     1       3.898  -2.028  -0.514  0.00  0.00    +0.014 C 
ENDROOT
BRANCH   7  21
ATOM     21  N   UNL     1      -0.841   3.470  -0.311  0.00  0.00    -0.334 N 
ATOM     22  H   UNL     1      -1.024   4.437  -0.343  0.00  0.00    +0.147 HD
BRANCH  21  23
ATOM     23  C   UNL     1       0.513   3.027  -0.425  0.00  0.00    +0.069 C 
ATOM     24  C   UNL     1       1.046   2.682   0.959  0.00  0.00    +0.021 C 
ATOM     25  C   UNL     1       1.350   4.114  -1.087  0.00  0.00    +0.021 C 
ENDBRANCH  21  23
ENDBRANCH   7  21
BRANCH  17  26
ATOM     26  C   UNL     1       4.338   0.509  -0.694  0.00  0.00    +0.137 C 
BRANCH  26  28
ATOM     27  O   UNL     1       4.436   0.587   1.724  0.00  0.00    -0.250 OA
ATOM     28  C   UNL     1       4.810   1.033   0.646  0.00  0.00    +0.318 C 
BRANCH  28  29
ATOM     29  O   UNL     1       5.658   2.085   0.531  0.00  0.00    -0.480 OA
ATOM     30  H   UNL     1       5.915   2.389  -0.318  0.00  0.00    +0.295 HD
ENDBRANCH  28  29
ENDBRANCH  26  28
ENDBRANCH  17  26
TORSDOF 5
