REMARK  Name = 24812717
REMARK  2 active torsions:
REMARK  status: ('A' for Active; 'I' for Inactive)
REMARK    1  A    between atoms: N_2  and  C_31
REMARK    2  A    between atoms: C_4  and  C_12
REMARK                            x       y       z     vdW  Elec       q    Type
REMARK                         _______ _______ _______ _____ _____    ______ ____
ROOT
ATOM      1  O   UNL     1      -0.109   0.540   0.017  0.00  0.00    -0.269 OA
ATOM      2  N   UNL     1      -1.381  -1.442   0.065  0.00  0.00    -0.233 N 
ATOM      3  C   UNL     1      -0.187  -0.689  -0.037  0.00  0.00    +0.256 C 
ATOM      4  C   UNL     1       1.107  -1.469  -0.171  0.00  0.00    +0.050 C 
ATOM      5  C   UNL     1      -1.318  -2.829   0.122  0.00  0.00    +0.072 C 
ATOM      6  C   UNL     1       1.089  -2.816  -0.120  0.00  0.00    -0.016 C 
ATOM      7  C   UNL     1      -0.169  -3.505   0.044  0.00  0.00    +0.012 C 
ATOM      8  C   UNL     1       2.285  -3.724  -0.231  0.00  0.00    +0.031 C 
ENDROOT
BRANCH   4  12
ATOM      9  N   UNL     1       5.914   1.409  -0.836  0.00  0.00    -0.338 NA
ATOM     10  N   UNL     1       6.218   1.517   1.553  0.00  0.00    -0.170 NA
ATOM     11  N   UNL     1       7.778   2.487   0.098  0.00  0.00    -0.293 N 
ATOM     12  C   UNL     1       2.363  -0.716  -0.337  0.00  0.00    +0.004 C 
ATOM     13  C   UNL     1       3.093  -0.316   0.778  0.00  0.00    +0.004 C 
ATOM     14  C   UNL     1       2.827  -0.402  -1.610  0.00  0.00    +0.003 C 
ATOM     15  C   UNL     1       4.291   0.401   0.613  0.00  0.00    +0.051 C 
ATOM     16  C   UNL     1       4.770   0.724  -0.667  0.00  0.00    +0.146 C 
ATOM     17  C   UNL     1       4.019   0.311  -1.765  0.00  0.00    +0.033 C 
ATOM     18  C   UNL     1       5.068   0.830   1.685  0.00  0.00    +0.114 C 
ATOM     19  C   UNL     1       6.576   1.768   0.283  0.00  0.00    +0.141 C 
ATOM     20  H   UNL     1       8.089   2.699  -0.812  0.00  0.00    +0.155 HD
ATOM     21  H   UNL     1       8.304   2.775   0.878  0.00  0.00    +0.155 HD
ENDBRANCH   4  12
BRANCH   2  31
ATOM     22  N   UNL     1      -4.439   2.278  -1.052  0.00  0.00    -0.333 N 
ATOM     23  C   UNL     1      -6.348   1.366   0.142  0.00  0.00    +0.038 C 
ATOM     24  C   UNL     1      -5.738   2.650  -0.503  0.00  0.00    +0.091 C 
ATOM     25  C   UNL     1      -5.118   0.502   0.273  0.00  0.00    -0.008 C 
ATOM     26  C   UNL     1      -4.061   1.092  -0.427  0.00  0.00    +0.042 C 
ATOM     27  C   UNL     1      -6.994   1.681   1.493  0.00  0.00    +0.006 C 
ATOM     28  C   UNL     1      -7.366   0.710  -0.801  0.00  0.00    +0.006 C 
ATOM     29  C   UNL     1      -4.959  -0.712   0.924  0.00  0.00    -0.002 C 
ATOM     30  C   UNL     1      -2.834   0.458  -0.522  0.00  0.00    +0.029 C 
ATOM     31  C   UNL     1      -2.661  -0.762   0.135  0.00  0.00    +0.060 C 
ATOM     32  C   UNL     1      -3.715  -1.342   0.856  0.00  0.00    +0.015 C 
ATOM     33  H   UNL     1      -3.927   2.771  -1.734  0.00  0.00    +0.147 HD
ENDBRANCH   2  31
TORSDOF 2
