REMARK  Name = 1792
REMARK  2 active torsions:
REMARK  status: ('A' for Active; 'I' for Inactive)
REMARK    1  A    between atoms: C_3  and  N_15
REMARK    2  A    between atoms: C_4  and  S_11
REMARK                            x       y       z     vdW  Elec       q    Type
REMARK                         _______ _______ _______ _____ _____    ______ ____
ROOT
ATOM      1  C   UNL     1       0.880   0.347  -0.010  0.00  0.00    +0.015 C 
ATOM      2  C   UNL     1      -0.387  -0.283  -0.031  0.00  0.00    +0.019 C 
ATOM      3  C   UNL     1       2.040  -0.443   0.004  0.00  0.00    +0.048 C 
ATOM      4  C   UNL     1      -1.548   0.507  -0.045  0.00  0.00    +0.112 C 
ATOM      5  C   UNL     1       0.949   1.750  -0.004  0.00  0.00    +0.001 C 
ATOM      6  C   UNL     1      -0.456  -1.686  -0.038  0.00  0.00    +0.001 C 
ATOM      7  C   UNL     1       1.953  -1.836  -0.003  0.00  0.00    +0.015 C 
ATOM      8  C   UNL     1      -1.461   1.900  -0.039  0.00  0.00    +0.019 C 
ATOM      9  C   UNL     1       0.708  -2.456  -0.024  0.00  0.00    +0.001 C 
ATOM     10  C   UNL     1      -0.215   2.520  -0.018  0.00  0.00    +0.001 C 
ENDROOT
BRANCH   4  11
ATOM     11  S   UNL     1      -3.166  -0.177  -0.071  0.00  0.00    +0.042 S 
ATOM     12  O   UNL     1      -3.361  -0.843   1.407  0.00  0.00    -0.065 OA
ATOM     13  O   UNL     1      -4.106   0.925  -0.175  0.00  0.00    -0.065 OA
ATOM     14  O   UNL     1      -3.148  -1.243  -1.055  0.00  0.00    -0.065 OA
ENDBRANCH   4  11
BRANCH   3  15
ATOM     15  N   UNL     1       3.333   0.137   0.026  0.00  0.00    -0.304 N 
ATOM     16  C   UNL     1       4.016   0.439  -1.212  0.00  0.00    +0.112 C 
ATOM     17  C   UNL     1       3.971   0.443   1.287  0.00  0.00    +0.112 C 
ENDBRANCH   3  15
TORSDOF 2
