REMARK  Name = 10343728
REMARK  7 active torsions:
REMARK  status: ('A' for Active; 'I' for Inactive)
REMARK    1  A    between atoms: N_2  and  C_20
REMARK    2  A    between atoms: C_3  and  N_7
REMARK    3  A    between atoms: N_7  and  S_9
REMARK    4  A    between atoms: S_9  and  C_12
REMARK    5  A    between atoms: C_12  and  C_13
REMARK    6  A    between atoms: C_13  and  C_16
REMARK    7  A    between atoms: C_20  and  C_25
REMARK                            x       y       z     vdW  Elec       q    Type
REMARK                         _______ _______ _______ _____ _____    ______ ____
ROOT
ATOM      1  O   UNL     1      -2.119  -1.957   0.094  0.00  0.00    -0.273 OA
ATOM      2  N   UNL     1      -1.918   0.059   1.289  0.00  0.00    -0.272 N 
ATOM      3  C   UNL     1       0.040  -1.117   0.828  0.00  0.00    +0.153 C 
ATOM      4  C   UNL     1       0.382   0.329   1.168  0.00  0.00    +0.048 C 
ATOM      5  C   UNL     1      -0.854   0.825   1.894  0.00  0.00    +0.096 C 
ATOM      6  C   UNL     1      -1.458  -1.096   0.656  0.00  0.00    +0.242 C 
ENDROOT
BRANCH   3   7
ATOM      7  N   UNL     1       0.670  -1.526  -0.433  0.00  0.00    -0.176 NA
ATOM      8  H   UNL     1       0.020  -2.160  -0.898  0.00  0.00    +0.149 HD
BRANCH   7   9
ATOM      9  S   UNL     1       2.187  -2.309  -0.392  0.00  0.00    +0.041 S 
ATOM     10  O   UNL     1       2.431  -2.973  -1.657  0.00  0.00    -0.157 OA
ATOM     11  O   UNL     1       2.298  -3.034   0.860  0.00  0.00    -0.157 OA
BRANCH   9  12
ATOM     12  C   UNL     1       3.274  -0.906  -0.291  0.00  0.00    +0.174 C 
BRANCH  12  13
ATOM     13  C   UNL     1       4.746  -1.298  -0.238  0.00  0.00    +0.060 C 
BRANCH  13  16
ATOM     14 CL   UNL     1       8.083   3.001  -1.365  0.00  0.00    -0.075 Cl
ATOM     15  S   UNL     1       6.264   0.658  -1.513  0.00  0.00    -0.080 S 
ATOM     16  C   UNL     1       5.668  -0.110  -0.103  0.00  0.00    +0.010 C 
ATOM     17  C   UNL     1       6.133   0.488   1.047  0.00  0.00    +0.004 C 
ATOM     18  C   UNL     1       6.990   1.592   0.768  0.00  0.00    +0.018 C 
ATOM     19  C   UNL     1       7.147   1.795  -0.586  0.00  0.00    +0.087 C 
ENDBRANCH  13  16
ENDBRANCH  12  13
ENDBRANCH   9  12
ENDBRANCH   7   9
ENDBRANCH   3   7
BRANCH   2  20
ATOM     20  C   UNL     1      -3.307   0.425   1.460  0.00  0.00    +0.152 C 
ATOM     21  C   UNL     1      -3.520   1.329   2.652  0.00  0.00    +0.031 C 
BRANCH  20  25
ATOM     22  O   UNL     1      -7.268   0.072  -1.651  0.00  0.00    -0.350 OA
ATOM     23  O   UNL     1      -2.817   1.823  -0.391  0.00  0.00    -0.273 OA
ATOM     24  N   UNL     1      -4.970   0.959  -0.283  0.00  0.00    -0.273 N 
ATOM     25  C   UNL     1      -3.668   1.136   0.180  0.00  0.00    +0.244 C 
ATOM     26  C   UNL     1      -6.040   0.257   0.433  0.00  0.00    +0.126 C 
ATOM     27  C   UNL     1      -5.401   1.609  -1.520  0.00  0.00    +0.126 C 
ATOM     28  C   UNL     1      -6.796  -0.662  -0.518  0.00  0.00    +0.164 C 
ATOM     29  C   UNL     1      -6.179   0.631  -2.389  0.00  0.00    +0.164 C 
ENDBRANCH  20  25
ENDBRANCH   2  20
TORSDOF 7
