REMARK  Name = 25049750
REMARK  7 active torsions:
REMARK  status: ('A' for Active; 'I' for Inactive)
REMARK    1  A    between atoms: C_1  and  C_14
REMARK    2  A    between atoms: C_6  and  O_20
REMARK    3  A    between atoms: C_10  and  C_17
REMARK    4  A    between atoms: C_17  and  O_18
REMARK    5  A    between atoms: O_20  and  C_21
REMARK    6  A    between atoms: C_21  and  C_23
REMARK    7  A    between atoms: C_27  and  C_32
REMARK                            x       y       z     vdW  Elec       q    Type
REMARK                         _______ _______ _______ _____ _____    ______ ____
ROOT
ATOM      1  C   UNL     1       3.600  -0.846   1.196  0.00  0.00    -0.004 C 
ATOM      2  C   UNL     1       2.993  -0.405   0.019  0.00  0.00    +0.000 C 
ATOM      3  C   UNL     1       2.818  -1.333   2.243  0.00  0.00    +0.000 C 
ATOM      4  C   UNL     1       1.605  -0.451  -0.109  0.00  0.00    +0.037 C 
ATOM      5  C   UNL     1       1.430  -1.379   2.114  0.00  0.00    +0.037 C 
ATOM      6  C   UNL     1       0.823  -0.939   0.938  0.00  0.00    +0.139 C 
ENDROOT
BRANCH   1  14
ATOM      7  O   UNL     1       7.137  -1.322  -1.534  0.00  0.00    -0.275 OA
ATOM      8  N   UNL     1       5.767  -1.626   0.340  0.00  0.00    -0.302 N 
ATOM      9  C   UNL     1       6.403   0.491  -0.179  0.00  0.00    +0.081 C 
ATOM     10  C   UNL     1       6.155   1.524  -1.223  0.00  0.00    +0.108 C 
ATOM     11  C   UNL     1       7.481   1.459  -0.512  0.00  0.00    +0.021 C 
ATOM     12  C   UNL     1       5.703   0.611   1.125  0.00  0.00    +0.033 C 
ATOM     13  C   UNL     1       6.508  -0.903  -0.575  0.00  0.00    +0.222 C 
ATOM     14  C   UNL     1       5.105  -0.797   1.334  0.00  0.00    +0.095 C 
ATOM     15  H   UNL     1       5.695  -2.608   0.321  0.00  0.00    +0.150 HD
BRANCH  10  17
ATOM     16  O   UNL     1       5.866   3.692  -0.378  0.00  0.00    -0.250 OA
ATOM     17  C   UNL     1       5.381   2.708  -0.917  0.00  0.00    +0.314 C 
BRANCH  17  18
ATOM     18  O   UNL     1       4.084   2.596  -1.294  0.00  0.00    -0.480 OA
ATOM     19  H   UNL     1       3.781   1.810  -1.703  0.00  0.00    +0.295 HD
ENDBRANCH  17  18
ENDBRANCH  10  17
ENDBRANCH   1  14
BRANCH   6  20
ATOM     20  O   UNL     1      -0.541  -0.984   0.812  0.00  0.00    -0.471 OA
BRANCH  20  21
ATOM     21  C   UNL     1      -1.087  -0.518  -0.414  0.00  0.00    +0.229 C 
BRANCH  21  23
ATOM     22  N   UNL     1      -5.359  -0.672  -0.229  0.00  0.00    -0.406 NA
ATOM     23  C   UNL     1      -2.580  -0.609  -0.354  0.00  0.00    +0.012 C 
ATOM     24  C   UNL     1      -3.259  -1.830  -0.466  0.00  0.00    +0.096 C 
ATOM     25  C   UNL     1      -3.289   0.571  -0.180  0.00  0.00    +0.028 C 
ATOM     26  C   UNL     1      -4.668  -1.815  -0.397  0.00  0.00    +0.117 C 
ATOM     27  C   UNL     1      -4.666   0.485  -0.125  0.00  0.00    +0.130 C 
ATOM     28  C   UNL     1      -2.569  -3.042  -0.642  0.00  0.00    -0.015 C 
ATOM     29  C   UNL     1      -5.341  -3.028  -0.509  0.00  0.00    +0.028 C 
ATOM     30  C   UNL     1      -3.268  -4.240  -0.751  0.00  0.00    -0.004 C 
ATOM     31  C   UNL     1      -4.656  -4.233  -0.684  0.00  0.00    +0.002 C 
BRANCH  27  32
ATOM     32  C   UNL     1      -5.478   1.665   0.053  0.00  0.00    +0.030 C 
ATOM     33  C   UNL     1      -5.323   2.453   1.194  0.00  0.00    +0.003 C 
ATOM     34  C   UNL     1      -6.418   2.018  -0.915  0.00  0.00    +0.003 C 
ATOM     35  C   UNL     1      -6.107   3.594   1.366  0.00  0.00    +0.000 C 
ATOM     36  C   UNL     1      -7.202   3.159  -0.743  0.00  0.00    +0.000 C 
ATOM     37  C   UNL     1      -7.047   3.946   0.398  0.00  0.00    +0.000 C 
ENDBRANCH  27  32
ENDBRANCH  21  23
ENDBRANCH  20  21
ENDBRANCH   6  20
TORSDOF 7
