REMARK  Name = 11531308
REMARK  8 active torsions:
REMARK  status: ('A' for Active; 'I' for Inactive)
REMARK    1  A    between atoms: C_4  and  C_8
REMARK    2  A    between atoms: C_5  and  C_16
REMARK    3  A    between atoms: C_6  and  C_25
REMARK    4  A    between atoms: C_7  and  C_29
REMARK    5  A    between atoms: C_13  and  O_14
REMARK    6  A    between atoms: C_21  and  O_22
REMARK    7  A    between atoms: C_25  and  O_26
REMARK    8  A    between atoms: C_29  and  O_30
REMARK                            x       y       z     vdW  Elec       q    Type
REMARK                         _______ _______ _______ _____ _____    ______ ____
ROOT
ATOM      1  O   UNL     1      -1.269  -0.198  -2.304  0.00  0.00    -0.341 OA
ATOM      2  C   UNL     1      -0.836  -1.260  -1.393  0.00  0.00    +0.166 C 
ATOM      3  C   UNL     1      -1.381   0.836  -1.271  0.00  0.00    +0.166 C 
ATOM      4  C   UNL     1       0.371  -0.560  -0.795  0.00  0.00    +0.008 C 
ATOM      5  C   UNL     1       0.041   0.755  -0.743  0.00  0.00    +0.008 C 
ATOM      6  C   UNL     1      -1.990  -1.190  -0.425  0.00  0.00    +0.089 C 
ATOM      7  C   UNL     1      -2.326   0.107  -0.348  0.00  0.00    +0.089 C 
ENDROOT
BRANCH   4   8
ATOM      8  C   UNL     1       1.572  -1.283  -0.381  0.00  0.00    -0.001 C 
ATOM      9  C   UNL     1       1.679  -1.798   0.919  0.00  0.00    +0.003 C 
ATOM     10  C   UNL     1       2.634  -1.470  -1.276  0.00  0.00    +0.003 C 
ATOM     11  C   UNL     1       2.825  -2.487   1.314  0.00  0.00    +0.037 C 
ATOM     12  C   UNL     1       3.780  -2.160  -0.881  0.00  0.00    +0.037 C 
ATOM     13  C   UNL     1       3.876  -2.668   0.415  0.00  0.00    +0.134 C 
BRANCH  13  14
ATOM     14  O   UNL     1       4.994  -3.341   0.801  0.00  0.00    -0.506 OA
ATOM     15  H   UNL     1       5.058  -3.682   1.671  0.00  0.00    +0.292 HD
ENDBRANCH  13  14
ENDBRANCH   4   8
BRANCH   5  16
ATOM     16  C   UNL     1       0.779   1.936  -0.296  0.00  0.00    -0.001 C 
ATOM     17  C   UNL     1       2.176   1.984  -0.400  0.00  0.00    +0.003 C 
ATOM     18  C   UNL     1       0.099   3.036   0.245  0.00  0.00    +0.003 C 
ATOM     19  C   UNL     1       2.879   3.111   0.027  0.00  0.00    +0.037 C 
ATOM     20  C   UNL     1       0.802   4.162   0.673  0.00  0.00    +0.037 C 
ATOM     21  C   UNL     1       2.192   4.200   0.564  0.00  0.00    +0.134 C 
BRANCH  21  22
ATOM     22  O   UNL     1       2.879   5.298   0.982  0.00  0.00    -0.506 OA
ATOM     23  H   UNL     1       3.813   5.323   0.908  0.00  0.00    +0.292 HD
ENDBRANCH  21  22
ENDBRANCH   5  16
BRANCH   6  25
ATOM     24  O   UNL     1      -3.749  -2.404   0.599  0.00  0.00    -0.245 OA
ATOM     25  C   UNL     1      -2.571  -2.330   0.255  0.00  0.00    +0.340 C 
BRANCH  25  26
ATOM     26  O   UNL     1      -1.612  -3.280   0.442  0.00  0.00    -0.441 OA
ATOM     27  C   UNL     1      -2.035  -4.476   1.105  0.00  0.00    +0.256 C 
ENDBRANCH  25  26
ENDBRANCH   6  25
BRANCH   7  29
ATOM     28  O   UNL     1      -3.774   0.313   1.516  0.00  0.00    -0.245 OA
ATOM     29  C   UNL     1      -3.370   0.737   0.435  0.00  0.00    +0.340 C 
BRANCH  29  30
ATOM     30  O   UNL     1      -3.813   1.848  -0.215  0.00  0.00    -0.441 OA
ATOM     31  C   UNL     1      -4.853   2.585   0.438  0.00  0.00    +0.256 C 
ENDBRANCH  29  30
ENDBRANCH   7  29
TORSDOF 8
