REMARK  Name = 439940
REMARK  5 active torsions:
REMARK  status: ('A' for Active; 'I' for Inactive)
REMARK    1  A    between atoms: C_1  and  C_9
REMARK    2  A    between atoms: C_6  and  O_7
REMARK    3  A    between atoms: C_9  and  O_10
REMARK    4  A    between atoms: C_9  and  C_13
REMARK    5  A    between atoms: C_13  and  O_14
REMARK                            x       y       z     vdW  Elec       q    Type
REMARK                         _______ _______ _______ _____ _____    ______ ____
ROOT
ATOM      1  C   UNL     1      -0.101  -0.344   0.264  0.00  0.00    +0.015 C 
ATOM      2  C   UNL     1       0.779  -0.289   1.345  0.00  0.00    +0.002 C 
ATOM      3  C   UNL     1       0.374  -0.148  -1.033  0.00  0.00    +0.002 C 
ATOM      4  C   UNL     1       2.134  -0.040   1.129  0.00  0.00    +0.036 C 
ATOM      5  C   UNL     1       1.729   0.101  -1.249  0.00  0.00    +0.036 C 
ATOM      6  C   UNL     1       2.609   0.156  -0.168  0.00  0.00    +0.134 C 
ENDROOT
BRANCH   6   7
ATOM      7  O   UNL     1       3.931   0.400  -0.378  0.00  0.00    -0.506 OA
ATOM      8  H   UNL     1       4.522   0.436   0.348  0.00  0.00    +0.292 HD
ENDBRANCH   6   7
BRANCH   1   9
ATOM      9  C   UNL     1      -1.550  -0.611   0.495  0.00  0.00    +0.232 C 
BRANCH   9  10
ATOM     10  O   UNL     1      -1.931  -1.824  -0.148  0.00  0.00    -0.371 OA
ATOM     11  H   UNL     1      -1.361  -2.546   0.158  0.00  0.00    +0.211 HD
ENDBRANCH   9  10
BRANCH   9  13
ATOM     12  O   UNL     1      -3.306   0.387  -0.871  0.00  0.00    -0.247 OA
ATOM     13  C   UNL     1      -2.457   0.513   0.001  0.00  0.00    +0.345 C 
BRANCH  13  14
ATOM     14  O   UNL     1      -2.209   1.700   0.614  0.00  0.00    -0.478 OA
ATOM     15  H   UNL     1      -1.550   1.756   1.278  0.00  0.00    +0.295 HD
ENDBRANCH  13  14
ENDBRANCH   9  13
ENDBRANCH   1   9
TORSDOF 5
