REMARK  Name = 6420129
REMARK  2 active torsions:
REMARK  status: ('A' for Active; 'I' for Inactive)
REMARK    1  A    between atoms: C_1  and  N_11
REMARK    2  A    between atoms: C_2  and  O_15
REMARK                            x       y       z     vdW  Elec       q    Type
REMARK                         _______ _______ _______ _____ _____    ______ ____
ROOT
ATOM      1  C   UNL     1       2.229  -0.004  -0.154  0.00  0.00    -0.034 C 
ATOM      2  C   UNL     1       1.110   0.981  -0.543  0.00  0.00    +0.113 C 
ATOM      3  C   UNL     1       1.880  -1.399  -0.674  0.00  0.00    -0.015 C 
ATOM      4  C   UNL     1       0.572  -1.922  -0.075  0.00  0.00    +0.024 C 
ATOM      5  C   UNL     1      -0.284   0.478  -0.226  0.00  0.00    -0.002 C 
ATOM      6  C   UNL     1      -0.535  -0.897  -0.048  0.00  0.00    -0.024 C 
ATOM      7  C   UNL     1      -1.363   1.377  -0.187  0.00  0.00    -0.002 C 
ATOM      8  C   UNL     1      -1.844  -1.333   0.213  0.00  0.00    -0.005 C 
ATOM      9  C   UNL     1      -2.660   0.929   0.064  0.00  0.00    -0.000 C 
ATOM     10  C   UNL     1      -2.900  -0.425   0.269  0.00  0.00    -0.000 C 
ENDROOT
BRANCH   1  11
ATOM     11  N   UNL     1       2.445  -0.032   1.296  0.00  0.00    +0.384 N 
ATOM     12  H   UNL     1       2.676   0.906   1.624  0.00  0.00    -0.089 HD
ATOM     13  H   UNL     1       3.213  -0.667   1.513  0.00  0.00    -0.089 HD
ATOM     14  H   UNL     1       1.596  -0.354   1.760  0.00  0.00    -0.089 HD
ENDBRANCH   1  11
BRANCH   2  15
ATOM     15  O   UNL     1       1.352   2.249   0.065  0.00  0.00    -0.382 OA
ATOM     16  H   UNL     1       2.249   2.546  -0.153  0.00  0.00    +0.211 HD
ENDBRANCH   2  15
TORSDOF 2
