REMARK  Name = 3457
REMARK  6 active torsions:
REMARK  status: ('A' for Active; 'I' for Inactive)
REMARK    1  A    between atoms: N_3  and  C_22
REMARK    2  A    between atoms: C_5  and  C_13
REMARK    3  A    between atoms: C_6  and  C_10
REMARK    4  A    between atoms: C_13  and  C_14
REMARK    5  A    between atoms: C_22  and  O_23
REMARK    6  A    between atoms: O_23  and  C_24
REMARK                            x       y       z     vdW  Elec       q    Type
REMARK                         _______ _______ _______ _____ _____    ______ ____
ROOT
ATOM      1  O   UNL     1       2.894  -3.037   0.101  0.00  0.00    -0.267 OA
ATOM      2  O   UNL     1       3.182   1.102   2.015  0.00  0.00    -0.246 OA
ATOM      3  N   UNL     1       1.469   0.729   0.470  0.00  0.00    -0.259 N 
ATOM      4  N   UNL     1       3.005  -0.958   1.058  0.00  0.00    -0.275 N 
ATOM      5  C   UNL     1       0.830  -0.161  -0.407  0.00  0.00    +0.048 A 
ATOM      6  C   UNL     1       1.250  -1.438  -0.545  0.00  0.00    +0.046 A 
ATOM      7  C   UNL     1       2.445  -1.899   0.221  0.00  0.00    +0.258 A 
ATOM      8  C   UNL     1       2.586   0.355   1.236  0.00  0.00    +0.332 A 
ATOM      9  H   UNL     1       3.784  -1.247   1.587  0.00  0.00    +0.173 HD
ENDROOT
BRANCH   6  10
ATOM     10  C   UNL     1       0.604  -2.493  -1.403  0.00  0.00    +0.028 C 
ATOM     11  C   UNL     1       1.581  -2.967  -2.472  0.00  0.00    +0.005 C 
ATOM     12  C   UNL     1       0.120  -3.657  -0.547  0.00  0.00    +0.005 C 
ENDBRANCH   6  10
BRANCH   5  13
ATOM     13  C   UNL     1      -0.340   0.381  -1.200  0.00  0.00    +0.070 C 
BRANCH  13  14
ATOM     14  C   UNL     1      -1.640   0.186  -0.483  0.00  0.00    -0.017 C 
ATOM     15  C   UNL     1      -1.656  -0.432   0.764  0.00  0.00    -0.008 C 
ATOM     16  C   UNL     1      -2.824   0.627  -1.067  0.00  0.00    -0.008 C 
ATOM     17  C   UNL     1      -2.867  -0.612   1.432  0.00  0.00    -0.022 C 
ATOM     18  C   UNL     1      -4.035   0.447  -0.398  0.00  0.00    -0.022 C 
ATOM     19  C   UNL     1      -4.056  -0.172   0.851  0.00  0.00    -0.009 C 
ATOM     20  C   UNL     1      -2.890  -1.274   2.769  0.00  0.00    +0.031 C 
ATOM     21  C   UNL     1      -5.307   0.918  -1.020  0.00  0.00    +0.031 C 
ENDBRANCH  13  14
ENDBRANCH   5  13
BRANCH   3  22
ATOM     22  C   UNL     1       0.954   2.094   0.591  0.00  0.00    +0.259 C 
BRANCH  22  23
ATOM     23  O   UNL     1       1.609   2.913  -0.366  0.00  0.00    -0.332 OA
BRANCH  23  24
ATOM     24  C   UNL     1       1.177   4.264  -0.279  0.00  0.00    +0.145 C 
ATOM     25  C   UNL     1       1.909   5.084  -1.321  0.00  0.00    +0.035 C 
ENDBRANCH  23  24
ENDBRANCH  22  23
ENDBRANCH   3  22
TORSDOF 6
