REMARK  Name = 11840911
REMARK  2 active torsions:
REMARK  status: ('A' for Active; 'I' for Inactive)
REMARK    1  A    between atoms: C_2  and  C_13
REMARK    2  A    between atoms: C_4  and  C_24
REMARK                            x       y       z     vdW  Elec       q    Type
REMARK                         _______ _______ _______ _____ _____    ______ ____
ROOT
ATOM      1  N   UNL     1      -1.464  -0.848  -1.435  0.00  0.00    -0.357 N 
ATOM      2  C   UNL     1      -0.960  -0.757  -0.184  0.00  0.00    +0.053 A 
ATOM      3  C   UNL     1      -1.946  -0.539   0.710  0.00  0.00    -0.001 A 
ATOM      4  C   UNL     1      -3.151  -0.491  -0.035  0.00  0.00    +0.062 A 
ATOM      5  C   UNL     1      -2.823  -0.685  -1.359  0.00  0.00    +0.038 A 
ATOM      6  C   UNL     1      -1.816  -0.380   2.174  0.00  0.00    +0.033 C 
ATOM      7  C   UNL     1      -3.663  -0.734  -2.572  0.00  0.00    +0.050 C 
ATOM      8  H   UNL     1      -0.946  -1.004  -2.258  0.00  0.00    +0.166 HD
ENDROOT
BRANCH   2  13
ATOM      9 CL   UNL     1       6.155  -2.227   0.545  0.00  0.00    -0.082 Cl
ATOM     10  O   UNL     1      -0.020   1.993  -0.462  0.00  0.00    -0.270 OA
ATOM     11  N   UNL     1       2.333   2.133  -0.299  0.00  0.00    -0.280 N 
ATOM     12  C   UNL     1       1.403   0.050  -0.106  0.00  0.00    +0.056 C 
ATOM     13  C   UNL     1       0.471  -0.904  -0.056  0.00  0.00    +0.021 C 
ATOM     14  C   UNL     1       2.850  -0.085   0.022  0.00  0.00    +0.019 C 
ATOM     15  C   UNL     1       3.365   1.209  -0.103  0.00  0.00    +0.051 C 
ATOM     16  C   UNL     1       1.084   1.502  -0.315  0.00  0.00    +0.250 C 
ATOM     17  C   UNL     1       3.692  -1.163   0.223  0.00  0.00    +0.013 C 
ATOM     18  C   UNL     1       4.718   1.476  -0.034  0.00  0.00    +0.016 C 
ATOM     19  C   UNL     1       5.066  -0.914   0.296  0.00  0.00    +0.058 C 
ATOM     20  C   UNL     1       5.575   0.392   0.169  0.00  0.00    +0.013 C 
ATOM     21  H   UNL     1       2.468   3.101  -0.412  0.00  0.00    +0.155 HD
ENDBRANCH   2  13
BRANCH   4  24
ATOM     22  O   UNL     1      -5.219  -1.218   0.830  0.00  0.00    -0.270 OA
ATOM     23  N   UNL     1      -4.932   1.048   0.521  0.00  0.00    -0.299 N 
ATOM     24  C   UNL     1      -4.485  -0.281   0.453  0.00  0.00    +0.247 C 
ATOM     25  C   UNL     1      -6.236   1.424   1.018  0.00  0.00    +0.111 C 
ATOM     26  H   UNL     1      -4.325   1.761   0.216  0.00  0.00    +0.150 HD
ENDBRANCH   4  24
TORSDOF 2
