REMARK  Name = 25150856
REMARK  7 active torsions:
REMARK  status: ('A' for Active; 'I' for Inactive)
REMARK    1  A    between atoms: C_2  and  C_10
REMARK    2  A    between atoms: C_3  and  C_18
REMARK    3  A    between atoms: C_5  and  O_26
REMARK    4  A    between atoms: N_17  and  C_20
REMARK    5  A    between atoms: C_20  and  C_21
REMARK    6  A    between atoms: C_21  and  C_23
REMARK    7  A    between atoms: C_23  and  O_24
REMARK                            x       y       z     vdW  Elec       q    Type
REMARK                         _______ _______ _______ _____ _____    ______ ____
ROOT
ATOM      1  I   UNL     1       0.611  -4.266   0.436  0.00  0.00    -0.039 I 
ATOM      2  C   UNL     1      -1.519  -0.510   0.018  0.00  0.00    +0.003 C 
ATOM      3  C   UNL     1       0.810   0.096   0.237  0.00  0.00    +0.087 C 
ATOM      4  C   UNL     1      -0.525   0.467   0.076  0.00  0.00    +0.008 C 
ATOM      5  C   UNL     1       1.151  -1.253   0.341  0.00  0.00    +0.143 C 
ATOM      6  C   UNL     1      -1.178  -1.859   0.122  0.00  0.00    +0.009 C 
ATOM      7  C   UNL     1       0.157  -2.230   0.283  0.00  0.00    +0.064 C 
ENDROOT
BRANCH   2  10
ATOM      8  F   UNL     1      -2.848   1.135   1.868  0.00  0.00    -0.204 F 
ATOM      9  F   UNL     1      -6.855   0.969  -0.638  0.00  0.00    -0.204 F 
ATOM     10  C   UNL     1      -2.903  -0.124  -0.149  0.00  0.00    +0.028 C 
ATOM     11  C   UNL     1      -3.522   0.694   0.795  0.00  0.00    +0.142 C 
ATOM     12  C   UNL     1      -3.619  -0.574  -1.259  0.00  0.00    +0.005 C 
ATOM     13  C   UNL     1      -4.857   1.064   0.630  0.00  0.00    +0.059 C 
ATOM     14  C   UNL     1      -4.954  -0.204  -1.424  0.00  0.00    +0.030 C 
ATOM     15  C   UNL     1      -5.573   0.615  -0.480  0.00  0.00    +0.142 C 
ENDBRANCH   2  10
BRANCH   3  18
ATOM     16  O   UNL     1       1.802   1.991   1.197  0.00  0.00    -0.270 OA
ATOM     17  N   UNL     1       2.832   1.104  -0.682  0.00  0.00    -0.300 N 
ATOM     18  C   UNL     1       1.849   1.156   0.298  0.00  0.00    +0.249 C 
ATOM     19  H   UNL     1       2.784   0.395  -1.363  0.00  0.00    +0.150 HD
BRANCH  17  20
ATOM     20  C   UNL     1       3.918   2.045  -0.742  0.00  0.00    +0.101 C 
BRANCH  20  21
ATOM     21  C   UNL     1       5.127   1.576   0.058  0.00  0.00    +0.131 C 
BRANCH  21  23
ATOM     22  O   UNL     1       5.624  -0.147  -1.592  0.00  0.00    -0.250 OA
ATOM     23  C   UNL     1       5.694   0.266  -0.444  0.00  0.00    +0.316 C 
BRANCH  23  24
ATOM     24  O   UNL     1       6.316  -0.417   0.553  0.00  0.00    -0.480 OA
ATOM     25  H   UNL     1       6.345  -0.060   1.419  0.00  0.00    +0.295 HD
ENDBRANCH  23  24
ENDBRANCH  21  23
ENDBRANCH  20  21
ENDBRANCH  17  20
ENDBRANCH   3  18
BRANCH   5  26
ATOM     26  O   UNL     1       2.463  -1.594   0.499  0.00  0.00    -0.505 OA
ATOM     27  H   UNL     1       3.120  -0.927   0.536  0.00  0.00    +0.292 HD
ENDBRANCH   5  26
TORSDOF 7
