REMARK  Name = 23644582
REMARK  5 active torsions:
REMARK  status: ('A' for Active; 'I' for Inactive)
REMARK    1  A    between atoms: C_3  and  N_18
REMARK    2  A    between atoms: C_5  and  C_13
REMARK    3  A    between atoms: C_15  and  C_17
REMARK    4  A    between atoms: N_18  and  C_20
REMARK    5  A    between atoms: C_24  and  O_27
REMARK                            x       y       z     vdW  Elec       q    Type
REMARK                         _______ _______ _______ _____ _____    ______ ____
ROOT
ATOM      1  N   UNL     1      -0.436  -2.250  -1.285  0.00  0.00    -0.248 NA
ATOM      2  C   UNL     1       0.132  -0.052  -0.477  0.00  0.00    +0.010 C 
ATOM      3  C   UNL     1       1.490  -0.338  -0.671  0.00  0.00    +0.047 C 
ATOM      4  C   UNL     1      -0.810  -1.051  -0.801  0.00  0.00    +0.061 C 
ATOM      5  C   UNL     1      -2.584   0.467  -0.108  0.00  0.00    +0.006 C 
ATOM      6  C   UNL     1      -0.295   1.189   0.026  0.00  0.00    +0.055 C 
ATOM      7  C   UNL     1      -2.159  -0.766  -0.608  0.00  0.00    +0.074 C 
ATOM      8  C   UNL     1      -1.650   1.446   0.209  0.00  0.00    -0.023 C 
ATOM      9  C   UNL     1       1.879  -1.573  -1.169  0.00  0.00    +0.035 C 
ATOM     10  C   UNL     1       0.885  -2.486  -1.458  0.00  0.00    +0.100 C 
ENDROOT
BRANCH   5  13
ATOM     11  S   UNL     1      -6.218   1.909   0.258  0.00  0.00    -0.071 S 
ATOM     12  N   UNL     1      -4.872  -0.294   0.375  0.00  0.00    -0.396 NA
ATOM     13  C   UNL     1      -3.984   0.722   0.078  0.00  0.00    +0.117 C 
ATOM     14  C   UNL     1      -4.528   1.985  -0.025  0.00  0.00    +0.123 C 
ATOM     15  C   UNL     1      -6.078   0.215   0.491  0.00  0.00    +0.199 C 
BRANCH  15  17
ATOM     16  O   UNL     1      -7.258  -1.801   0.989  0.00  0.00    -0.280 OA
ATOM     17  C   UNL     1      -7.226  -0.570   0.796  0.00  0.00    +0.272 C 
ENDBRANCH  15  17
ENDBRANCH   5  13
BRANCH   3  18
ATOM     18  N   UNL     1       2.500   0.607  -0.370  0.00  0.00    -0.313 N 
ATOM     19  H   UNL     1       2.213   1.542  -0.478  0.00  0.00    +0.152 HD
BRANCH  18  20
ATOM     20  C   UNL     1       3.833   0.469   0.051  0.00  0.00    +0.047 C 
ATOM     21  C   UNL     1       4.792   1.422  -0.292  0.00  0.00    -0.008 C 
ATOM     22  C   UNL     1       4.193  -0.637   0.821  0.00  0.00    +0.051 C 
ATOM     23  C   UNL     1       6.112   1.269   0.135  0.00  0.00    +0.000 C 
ATOM     24  C   UNL     1       5.512  -0.790   1.248  0.00  0.00    +0.135 C 
ATOM     25  C   UNL     1       4.434   2.617  -1.114  0.00  0.00    +0.032 C 
ATOM     26  C   UNL     1       6.471   0.163   0.905  0.00  0.00    +0.036 C 
BRANCH  24  27
ATOM     27  O   UNL     1       5.864  -1.870   1.997  0.00  0.00    -0.505 OA
ATOM     28  H   UNL     1       5.220  -2.510   2.228  0.00  0.00    +0.292 HD
ENDBRANCH  24  27
ENDBRANCH  18  20
ENDBRANCH   3  18
TORSDOF 5
