REMARK  Name = 444721
REMARK  8 active torsions:
REMARK  status: ('A' for Active; 'I' for Inactive)
REMARK    1  A    between atoms: C_1  and  S_2
REMARK    2  A    between atoms: C_1  and  C_11
REMARK    3  A    between atoms: S_2  and  C_3
REMARK    4  A    between atoms: C_4  and  O_9
REMARK    5  A    between atoms: C_11  and  C_12
REMARK    6  A    between atoms: C_13  and  P_14
REMARK    7  A    between atoms: P_14  and  O_16
REMARK    8  A    between atoms: P_14  and  O_18
REMARK                            x       y       z     vdW  Elec       q    Type
REMARK                         _______ _______ _______ _____ _____    ______ ____
ROOT
ATOM      1  C   UNL     1      -0.030   0.580   0.171  0.00  0.00    +0.067 C 
ENDROOT
BRANCH   1   2
ATOM      2  S   UNL     1      -1.494   1.321   0.952  0.00  0.00    -0.110 S 
BRANCH   2   3
ATOM      3  C   UNL     1      -2.786   0.209   0.408  0.00  0.00    +0.059 C 
ATOM      4  C   UNL     1      -3.862   0.666  -0.351  0.00  0.00    +0.139 C 
ATOM      5  C   UNL     1      -2.699  -1.137   0.759  0.00  0.00    +0.009 C 
ATOM      6  C   UNL     1      -4.854  -0.225  -0.759  0.00  0.00    +0.037 C 
ATOM      7  C   UNL     1      -3.691  -2.029   0.351  0.00  0.00    +0.001 C 
ATOM      8  C   UNL     1      -4.769  -1.573  -0.408  0.00  0.00    +0.003 C 
BRANCH   4   9
ATOM      9  O   UNL     1      -3.977   1.976  -0.714  0.00  0.00    -0.505 OA
ATOM     10  H   UNL     1      -3.323   2.593  -0.451  0.00  0.00    +0.292 HD
ENDBRANCH   4   9
ENDBRANCH   2   3
ENDBRANCH   1   2
BRANCH   1  11
ATOM     11  C   UNL     1       1.223   1.384   0.507  0.00  0.00    +0.038 C 
BRANCH  11  12
ATOM     12  C   UNL     1       2.436   0.775  -0.137  0.00  0.00    -0.018 C 
ATOM     13  C   UNL     1       3.518   0.365   0.538  0.00  0.00    +0.083 C 
BRANCH  13  14
ATOM     14  P   UNL     1       4.900  -0.331  -0.271  0.00  0.00    +0.359 P 
ATOM     15  O   UNL     1       5.273   0.062  -1.676  0.00  0.00    -0.253 OA
BRANCH  14  16
ATOM     16  O   UNL     1       4.684  -1.937  -0.138  0.00  0.00    -0.321 OA
ATOM     17  H   UNL     1       5.420  -2.399  -0.569  0.00  0.00    +0.220 HD
ENDBRANCH  14  16
BRANCH  14  18
ATOM     18  O   UNL     1       6.128  -0.105   0.769  0.00  0.00    -0.321 OA
ATOM     19  H   UNL     1       6.943  -0.469   0.390  0.00  0.00    +0.220 HD
ENDBRANCH  14  18
ENDBRANCH  13  14
ENDBRANCH  11  12
ENDBRANCH   1  11
TORSDOF 8
