REMARK  Name = 6914595
REMARK  5 active torsions:
REMARK  status: ('A' for Active; 'I' for Inactive)
REMARK    1  A    between atoms: C_1  and  C_15
REMARK    2  A    between atoms: C_2  and  N_9
REMARK    3  A    between atoms: C_4  and  O_10
REMARK    4  A    between atoms: C_5  and  O_12
REMARK    5  A    between atoms: C_15  and  C_16
REMARK                            x       y       z     vdW  Elec       q    Type
REMARK                         _______ _______ _______ _____ _____    ______ ____
ROOT
ATOM      1  C   UNL     1       0.541   0.445   0.658  0.00  0.00    +0.065 C 
ATOM      2  C   UNL     1       1.320  -0.544   0.101  0.00  0.00    +0.182 C 
ATOM      3  C   UNL     1       0.974   1.747   0.787  0.00  0.00    +0.008 C 
ATOM      4  C   UNL     1       2.598  -0.215  -0.350  0.00  0.00    +0.190 C 
ATOM      5  C   UNL     1       3.064   1.094  -0.233  0.00  0.00    +0.169 C 
ATOM      6  C   UNL     1       2.252   2.075   0.336  0.00  0.00    +0.040 C 
ENDROOT
BRANCH   2   9
ATOM      7  O   UNL     1      -0.300  -2.159   0.391  0.00  0.00    -0.126 OA
ATOM      8  O   UNL     1       1.602  -2.742  -0.536  0.00  0.00    -0.126 OA
ATOM      9  N   UNL     1       0.850  -1.883  -0.021  0.00  0.00    +0.061 N 
ENDBRANCH   2   9
BRANCH   4  10
ATOM     10  O   UNL     1       3.404  -1.165  -0.909  0.00  0.00    -0.502 OA
ATOM     11  H   UNL     1       3.100  -2.047  -0.992  0.00  0.00    +0.292 HD
ENDBRANCH   4  10
BRANCH   5  12
ATOM     12  O   UNL     1       4.311   1.429  -0.669  0.00  0.00    -0.503 OA
ATOM     13  H   UNL     1       4.864   0.778  -1.053  0.00  0.00    +0.292 HD
ENDBRANCH   5  12
BRANCH   1  15
ATOM     14  O   UNL     1      -0.946  -0.218   2.338  0.00  0.00    -0.287 OA
ATOM     15  C   UNL     1      -0.834   0.135   1.155  0.00  0.00    +0.197 C 
BRANCH  15  16
ATOM     16  C   UNL     1      -2.011   0.236   0.306  0.00  0.00    +0.039 C 
ATOM     17  C   UNL     1      -1.879   0.634  -1.024  0.00  0.00    +0.003 C 
ATOM     18  C   UNL     1      -3.271  -0.065   0.822  0.00  0.00    +0.003 C 
ATOM     19  C   UNL     1      -3.007   0.732  -1.839  0.00  0.00    +0.000 C 
ATOM     20  C   UNL     1      -4.399   0.032   0.008  0.00  0.00    +0.000 C 
ATOM     21  C   UNL     1      -4.268   0.431  -1.322  0.00  0.00    +0.000 C 
ENDBRANCH  15  16
ENDBRANCH   1  15
TORSDOF 5
