REMARK  Name = 5288002
REMARK  0 active torsions:
REMARK  status: ('A' for Active; 'I' for Inactive)
REMARK                            x       y       z     vdW  Elec       q    Type
REMARK                         _______ _______ _______ _____ _____    ______ ____
ROOT
ATOM      1  O   UNL     1      -1.330   1.552   0.199  0.00  0.00    -0.460 OA
ATOM      2  O   UNL     1       3.353  -1.371  -0.171  0.00  0.00    -0.468 OA
ATOM      3  O   UNL     1       3.389   1.498   0.094  0.00  0.00    -0.468 OA
ATOM      4  O   UNL     1      -1.546  -2.520   0.305  0.00  0.00    -0.270 OA
ATOM      5  N   UNL     1      -2.574  -0.470  -0.014  0.00  0.00    -0.244 N 
ATOM      6  C   UNL     1      -2.429   0.908  -0.437  0.00  0.00    +0.247 C 
ATOM      7  C   UNL     1      -3.760   1.536  -0.043  0.00  0.00    +0.067 C 
ATOM      8  C   UNL     1      -4.745   0.391  -0.266  0.00  0.00    +0.027 C 
ATOM      9  C   UNL     1      -3.964  -0.837   0.190  0.00  0.00    +0.097 C 
ATOM     10  C   UNL     1      -1.495  -1.313   0.104  0.00  0.00    +0.254 C 
ATOM     11  C   UNL     1      -0.199  -0.600   0.025  0.00  0.00    +0.091 C 
ATOM     12  C   UNL     1      -0.183   0.801   0.100  0.00  0.00    +0.148 C 
ATOM     13  C   UNL     1       0.998  -1.315  -0.057  0.00  0.00    +0.048 C 
ATOM     14  C   UNL     1       1.031   1.486   0.128  0.00  0.00    +0.077 C 
ATOM     15  C   UNL     1       2.210  -0.622  -0.064  0.00  0.00    +0.173 C 
ATOM     16  C   UNL     1       2.227   0.772   0.053  0.00  0.00    +0.175 C 
ATOM     17  C   UNL     1       4.488  -0.569  -0.508  0.00  0.00    +0.253 C 
ATOM     18  C   UNL     1       4.527   0.674   0.360  0.00  0.00    +0.253 C 
ENDROOT
TORSDOF 0
