REMARK  Name = 5288573
REMARK  4 active torsions:
REMARK  status: ('A' for Active; 'I' for Inactive)
REMARK    1  A    between atoms: C_4  and  C_15
REMARK    2  A    between atoms: C_12  and  O_13
REMARK    3  A    between atoms: C_15  and  C_16
REMARK    4  A    between atoms: C_16  and  O_17
REMARK                            x       y       z     vdW  Elec       q    Type
REMARK                         _______ _______ _______ _____ _____    ______ ____
ROOT
ATOM      1  O   UNL     1       0.024   1.621   0.211  0.00  0.00    -0.421 OA
ATOM      2  O   UNL     1      -2.176   2.103   0.495  0.00  0.00    -0.245 OA
ATOM      3  C   UNL     1      -0.633  -1.132   0.258  0.00  0.00    -0.017 A 
ATOM      4  C   UNL     1      -1.604  -0.208   0.420  0.00  0.00    +0.052 A 
ATOM      5  C   UNL     1       0.768  -0.692   0.097  0.00  0.00    +0.031 A 
ATOM      6  C   UNL     1       1.048   0.671   0.077  0.00  0.00    +0.151 A 
ATOM      7  C   UNL     1      -1.299   1.251   0.384  0.00  0.00    +0.341 A 
ATOM      8  C   UNL     1      -0.890  -2.618   0.215  0.00  0.00    +0.031 C 
ATOM      9  C   UNL     1       1.857  -1.569  -0.030  0.00  0.00    +0.006 C 
ATOM     10  C   UNL     1       2.344   1.172  -0.071  0.00  0.00    +0.074 C 
ATOM     11  C   UNL     1       3.163  -1.086  -0.179  0.00  0.00    +0.037 C 
ATOM     12  C   UNL     1       3.405   0.285  -0.201  0.00  0.00    +0.137 C 
ENDROOT
BRANCH  12  13
ATOM     13  O   UNL     1       4.674   0.752  -0.346  0.00  0.00    -0.505 OA
ATOM     14  H   UNL     1       4.835   1.675  -0.361  0.00  0.00    +0.292 HD
ENDBRANCH  12  13
BRANCH   4  15
ATOM     15  C   UNL     1      -3.059  -0.521   0.657  0.00  0.00    +0.064 C 
BRANCH  15  16
ATOM     16  C   UNL     1      -3.833  -0.634  -0.644  0.00  0.00    +0.142 C 
BRANCH  16  17
ATOM     17  O   UNL     1      -3.789   0.605  -1.340  0.00  0.00    -0.382 OA
ATOM     18  H   UNL     1      -4.285   0.527  -2.171  0.00  0.00    +0.210 HD
ENDBRANCH  16  17
ENDBRANCH  15  16
ENDBRANCH   4  15
TORSDOF 4
