REMARK  Name = 5327155
REMARK  5 active torsions:
REMARK  status: ('A' for Active; 'I' for Inactive)
REMARK    1  A    between atoms: C_3  and  C_15
REMARK    2  A    between atoms: C_9  and  O_24
REMARK    3  A    between atoms: C_11  and  N_18
REMARK    4  A    between atoms: N_18  and  S_20
REMARK    5  A    between atoms: O_24  and  C_25
REMARK                            x       y       z     vdW  Elec       q    Type
REMARK                         _______ _______ _______ _____ _____    ______ ____
ROOT
ATOM      1  O   UNL     1      -4.010  -0.476   0.506  0.00  0.00    -0.226 OA
ATOM      2  N   UNL     1      -1.692  -0.245   0.408  0.00  0.00    -0.235 N 
ATOM      3  C   UNL     1      -1.439  -1.674   0.590  0.00  0.00    +0.159 C 
ATOM      4  C   UNL     1      -0.297  -1.947   1.564  0.00  0.00    +0.055 C 
ATOM      5  C   UNL     1      -0.546   0.638   0.144  0.00  0.00    +0.124 C 
ATOM      6  C   UNL     1       0.910  -1.083   1.317  0.00  0.00    -0.022 C 
ATOM      7  C   UNL     1       0.781   0.149   0.659  0.00  0.00    -0.005 C 
ATOM      8  C   UNL     1       1.920   0.946   0.465  0.00  0.00    +0.013 C 
ATOM      9  C   UNL     1      -3.014   0.215   0.298  0.00  0.00    +0.405 C 
ATOM     10  C   UNL     1       2.165  -1.487   1.794  0.00  0.00    -0.003 C 
ATOM     11  C   UNL     1       3.167   0.530   0.930  0.00  0.00    +0.065 C 
ATOM     12  C   UNL     1       3.289  -0.686   1.596  0.00  0.00    +0.016 C 
ENDROOT
BRANCH   3  15
ATOM     13  O   UNL     1      -1.161  -1.545  -1.780  0.00  0.00    -0.273 OA
ATOM     14  N   UNL     1      -1.018  -3.623  -0.741  0.00  0.00    -0.301 N 
ATOM     15  C   UNL     1      -1.187  -2.250  -0.775  0.00  0.00    +0.241 C 
ATOM     16  C   UNL     1      -0.784  -4.420  -1.924  0.00  0.00    +0.111 C 
ATOM     17  H   UNL     1      -1.059  -4.079   0.130  0.00  0.00    +0.150 HD
ENDBRANCH   3  15
BRANCH  11  18
ATOM     18  N   UNL     1       4.316   1.352   0.726  0.00  0.00    -0.213 N 
ATOM     19  H   UNL     1       4.716   1.872   1.460  0.00  0.00    +0.174 HD
BRANCH  18  20
ATOM     20  S   UNL     1       4.971   1.390  -0.878  0.00  0.00    +0.091 S 
ATOM     21  O   UNL     1       5.748  -0.036  -1.034  0.00  0.00    -0.050 OA
ATOM     22  O   UNL     1       3.875   1.403  -1.830  0.00  0.00    -0.050 OA
ATOM     23  O   UNL     1       5.980   2.433  -0.922  0.00  0.00    -0.050 OA
ENDBRANCH  18  20
ENDBRANCH  11  18
BRANCH   9  24
ATOM     24  O   UNL     1      -3.081   1.531  -0.078  0.00  0.00    -0.442 OA
BRANCH  24  25
ATOM     25  C   UNL     1      -4.396   2.079  -0.222  0.00  0.00    +0.138 C 
ATOM     26  C   UNL     1      -5.137   1.291  -1.302  0.00  0.00    +0.044 C 
ATOM     27  C   UNL     1      -4.243   3.542  -0.634  0.00  0.00    +0.044 C 
ATOM     28  C   UNL     1      -5.117   1.972   1.121  0.00  0.00    +0.044 C 
ENDBRANCH  24  25
ENDBRANCH   9  24
TORSDOF 5
