REMARK  Name = 199994
REMARK  2 active torsions:
REMARK  status: ('A' for Active; 'I' for Inactive)
REMARK    1  A    between atoms: C_1  and  S_13
REMARK    2  A    between atoms: C_4  and  C_9
REMARK                            x       y       z     vdW  Elec       q    Type
REMARK                         _______ _______ _______ _____ _____    ______ ____
ROOT
ATOM      1  C   UNL     1       1.086   0.001   0.070  0.00  0.00    +0.106 C 
ATOM      2  C   UNL     1       0.384   1.206   0.052  0.00  0.00    +0.018 C 
ATOM      3  C   UNL     1       0.394  -1.210   0.056  0.00  0.00    +0.018 C 
ATOM      4  C   UNL     1      -1.703  -0.010   0.005  0.00  0.00    +0.031 C 
ATOM      5  C   UNL     1      -1.010   1.201   0.020  0.00  0.00    +0.004 C 
ATOM      6  C   UNL     1      -1.001  -1.215   0.023  0.00  0.00    +0.004 C 
ENDROOT
BRANCH   4   9
ATOM      7  N   UNL     1      -3.886   1.172  -0.047  0.00  0.00    -0.343 N 
ATOM      8  N   UNL     1      -3.810  -1.163  -0.037  0.00  0.00    -0.285 NA
ATOM      9  C   UNL     1      -3.157  -0.015  -0.028  0.00  0.00    +0.117 C 
ATOM     10  H   UNL     1      -4.870   1.145  -0.069  0.00  0.00    +0.144 HD
ATOM     11  H   UNL     1      -3.417   2.038  -0.037  0.00  0.00    +0.144 HD
ATOM     12  H   UNL     1      -4.795  -1.169  -0.060  0.00  0.00    +0.188 HD
ENDBRANCH   4   9
BRANCH   1  13
ATOM     13  S   UNL     1       2.832   0.007   0.111  0.00  0.00    +0.010 S 
ATOM     14  O   UNL     1       3.262   1.269   0.696  0.00  0.00    -0.169 OA
ATOM     15  O   UNL     1       3.295  -1.250   0.682  0.00  0.00    -0.169 OA
ATOM     16  C   UNL     1       3.313   0.007  -1.602  0.00  0.00    +0.182 C 
ENDBRANCH   1  13
TORSDOF 2
