REMARK  Name = 25243853
REMARK  6 active torsions:
REMARK  status: ('A' for Active; 'I' for Inactive)
REMARK    1  A    between atoms: N_1  and  C_6
REMARK    2  A    between atoms: N_1  and  C_21
REMARK    3  A    between atoms: C_3  and  C_16
REMARK    4  A    between atoms: C_11  and  C_18
REMARK    5  A    between atoms: C_18  and  O_19
REMARK    6  A    between atoms: C_21  and  C_28
REMARK                            x       y       z     vdW  Elec       q    Type
REMARK                         _______ _______ _______ _____ _____    ______ ____
ROOT
ATOM      1  N   UNL     1      -1.654  -1.134   0.177  0.00  0.00    -0.327 N 
ATOM      2  H   UNL     1      -2.064  -1.096   1.071  0.00  0.00    +0.147 HD
ENDROOT
BRANCH   1   6
ATOM      3  C   UNL     1       2.495  -1.728  -0.102  0.00  0.00    +0.054 C 
ATOM      4  C   UNL     1       1.731  -1.590  -1.261  0.00  0.00    +0.006 C 
ATOM      5  C   UNL     1       1.881  -1.668   1.149  0.00  0.00    +0.006 C 
ATOM      6  C   UNL     1      -0.260  -1.333   0.083  0.00  0.00    +0.045 C 
ATOM      7  C   UNL     1       0.353  -1.392  -1.168  0.00  0.00    +0.014 C 
ATOM      8  C   UNL     1       0.504  -1.471   1.242  0.00  0.00    +0.014 C 
BRANCH   3  16
ATOM      9  O   UNL     1       4.322  -3.105  -0.263  0.00  0.00    -0.270 OA
ATOM     10  N   UNL     1       4.772  -0.810  -0.215  0.00  0.00    -0.276 N 
ATOM     11  C   UNL     1       6.479   1.127   1.115  0.00  0.00    +0.102 C 
ATOM     12  C   UNL     1       6.905  -0.331   0.915  0.00  0.00    +0.033 C 
ATOM     13  C   UNL     1       4.958   1.296   1.056  0.00  0.00    +0.033 C 
ATOM     14  C   UNL     1       6.221  -0.979  -0.287  0.00  0.00    +0.094 C 
ATOM     15  C   UNL     1       4.320   0.584  -0.138  0.00  0.00    +0.094 C 
ATOM     16  C   UNL     1       3.945  -1.936  -0.199  0.00  0.00    +0.249 C 
BRANCH  11  18
ATOM     17  O   UNL     1       6.570   2.737  -0.676  0.00  0.00    -0.250 OA
ATOM     18  C   UNL     1       7.162   2.011   0.111  0.00  0.00    +0.317 C 
BRANCH  18  19
ATOM     19  O   UNL     1       8.513   1.869   0.224  0.00  0.00    -0.444 OA
ATOM     20  C   UNL     1       9.291   2.659  -0.681  0.00  0.00    +0.256 C 
ENDBRANCH  18  19
ENDBRANCH  11  18
ENDBRANCH   3  16
ENDBRANCH   1   6
BRANCH   1  21
ATOM     21  C   UNL     1      -2.496  -0.987  -0.969  0.00  0.00    +0.145 C 
BRANCH  21  28
ATOM     22  N   UNL     1      -4.404   0.495  -0.636  0.00  0.00    -0.392 NA
ATOM     23  N   UNL     1      -5.976  -1.589   0.285  0.00  0.00    -0.200 NA
ATOM     24  N   UNL     1      -7.754  -0.136   0.581  0.00  0.00    -0.271 NA
ATOM     25  N   UNL     1      -7.543   2.195   0.057  0.00  0.00    -0.310 NA
ATOM     26  N   UNL     1      -5.492   3.024  -0.772  0.00  0.00    -0.329 N 
ATOM     27  N   UNL     1      -9.558   1.335   0.883  0.00  0.00    -0.283 N 
ATOM     28  C   UNL     1      -3.921  -0.754  -0.550  0.00  0.00    +0.133 C 
ATOM     29  C   UNL     1      -4.699  -1.784  -0.095  0.00  0.00    +0.193 C 
ATOM     30  C   UNL     1      -5.682   0.688  -0.256  0.00  0.00    +0.248 C 
ATOM     31  C   UNL     1      -6.487  -0.354   0.210  0.00  0.00    +0.131 C 
ATOM     32  C   UNL     1      -6.274   1.935  -0.307  0.00  0.00    +0.231 C 
ATOM     33  C   UNL     1      -8.220   1.124   0.487  0.00  0.00    +0.207 C 
ATOM     34  H   UNL     1      -5.883   3.926  -0.820  0.00  0.00    +0.145 HD
ATOM     35  H   UNL     1      -4.558   2.878  -1.046  0.00  0.00    +0.145 HD
ATOM     36  H   UNL     1     -10.100   0.580   1.208  0.00  0.00    +0.156 HD
ATOM     37  H   UNL     1      -9.950   2.237   0.835  0.00  0.00    +0.156 HD
ENDBRANCH  21  28
ENDBRANCH   1  21
TORSDOF 6
