REMARK  Name = 154048
REMARK  3 active torsions:
REMARK  status: ('A' for Active; 'I' for Inactive)
REMARK    1  A    between atoms: C_6  and  C_16
REMARK    2  A    between atoms: C_10  and  O_18
REMARK    3  A    between atoms: O_18  and  C_19
REMARK                            x       y       z     vdW  Elec       q    Type
REMARK                         _______ _______ _______ _____ _____    ______ ____
ROOT
ATOM      1  F   UNL     1      -3.596   2.869   0.530  0.00  0.00    -0.204 F 
ATOM      2  O   UNL     1       0.241  -3.568  -0.793  0.00  0.00    -0.273 OA
ATOM      3  O   UNL     1       0.876   2.274  -0.707  0.00  0.00    -0.226 OA
ATOM      4  N   UNL     1       0.280   0.038  -0.267  0.00  0.00    -0.217 N 
ATOM      5  N   UNL     1      -1.506  -2.136  -0.478  0.00  0.00    -0.282 N 
ATOM      6  C   UNL     1       0.783  -1.339  -0.089  0.00  0.00    +0.159 C 
ATOM      7  C   UNL     1      -1.131   0.243  -0.108  0.00  0.00    +0.073 C 
ATOM      8  C   UNL     1      -0.170  -2.434  -0.538  0.00  0.00    +0.245 C 
ATOM      9  C   UNL     1      -1.998  -0.854  -0.210  0.00  0.00    +0.064 C 
ATOM     10  C   UNL     1       1.178   1.095  -0.541  0.00  0.00    +0.409 C 
ATOM     11  C   UNL     1      -1.699   1.501   0.150  0.00  0.00    +0.046 C 
ATOM     12  C   UNL     1      -3.386  -0.697  -0.093  0.00  0.00    +0.018 C 
ATOM     13  C   UNL     1      -3.083   1.657   0.278  0.00  0.00    +0.141 C 
ATOM     14  C   UNL     1      -3.927   0.561   0.150  0.00  0.00    +0.031 C 
ATOM     15  H   UNL     1      -2.154  -2.861  -0.632  0.00  0.00    +0.155 HD
ENDROOT
BRANCH   6  16
ATOM     16  C   UNL     1       1.163  -1.584   1.375  0.00  0.00    +0.030 C 
ATOM     17  C   UNL     1       1.871  -2.913   1.541  0.00  0.00    +0.002 C 
ENDBRANCH   6  16
BRANCH  10  18
ATOM     18  O   UNL     1       2.478   0.660  -0.633  0.00  0.00    -0.438 OA
BRANCH  18  19
ATOM     19  C   UNL     1       3.493   1.605  -0.271  0.00  0.00    +0.171 C 
ATOM     20  C   UNL     1       3.272   2.052   1.166  0.00  0.00    +0.047 C 
ATOM     21  C   UNL     1       4.861   0.970  -0.463  0.00  0.00    +0.047 C 
ENDBRANCH  18  19
ENDBRANCH  10  18
TORSDOF 3
