REMARK  Name = 16043304
REMARK  7 active torsions:
REMARK  status: ('A' for Active; 'I' for Inactive)
REMARK    1  A    between atoms: N_2  and  C_19
REMARK    2  A    between atoms: C_3  and  C_6
REMARK    3  A    between atoms: C_8  and  C_13
REMARK    4  A    between atoms: C_19  and  C_20
REMARK    5  A    between atoms: C_19  and  C_29
REMARK    6  A    between atoms: C_20  and  C_23
REMARK    7  A    between atoms: C_29  and  N_30
REMARK                            x       y       z     vdW  Elec       q    Type
REMARK                         _______ _______ _______ _____ _____    ______ ____
ROOT
ATOM      1  O   UNL     1       1.134  -0.849  -1.774  0.00  0.00    -0.270 OA
ATOM      2  N   UNL     1       2.042  -1.737   0.139  0.00  0.00    -0.304 N 
ATOM      3  C   UNL     1       0.986  -1.234  -0.613  0.00  0.00    +0.252 C 
ATOM      4  H   UNL     1       1.873  -2.031   1.063  0.00  0.00    +0.150 HD
ENDROOT
BRANCH   3   6
ATOM      5  S   UNL     1      -1.648  -0.624  -0.807  0.00  0.00    -0.080 S 
ATOM      6  C   UNL     1      -0.322  -1.224   0.056  0.00  0.00    +0.083 C 
ATOM      7  C   UNL     1      -0.607  -1.644   1.308  0.00  0.00    +0.012 C 
ATOM      8  C   UNL     1      -2.675  -0.925   0.529  0.00  0.00    +0.060 C 
ATOM      9  C   UNL     1      -1.992  -1.471   1.593  0.00  0.00    +0.010 C 
BRANCH   8  13
ATOM     10  N   UNL     1      -4.348   0.437  -0.399  0.00  0.00    -0.337 NA
ATOM     11  N   UNL     1      -6.684   0.133   0.112  0.00  0.00    -0.170 NA
ATOM     12  N   UNL     1      -5.981   1.825  -1.354  0.00  0.00    -0.266 N 
ATOM     13  C   UNL     1      -4.077  -0.598   0.419  0.00  0.00    +0.152 C 
ATOM     14  C   UNL     1      -5.035  -1.308   1.110  0.00  0.00    +0.055 C 
ATOM     15  C   UNL     1      -5.655   0.745  -0.505  0.00  0.00    +0.145 C 
ATOM     16  C   UNL     1      -6.336  -0.894   0.915  0.00  0.00    +0.114 C 
ATOM     17  C   UNL     1      -4.996   2.601  -2.099  0.00  0.00    +0.120 C 
ATOM     18  H   UNL     1      -6.931   2.070  -1.448  0.00  0.00    +0.159 HD
ENDBRANCH   8  13
ENDBRANCH   3   6
BRANCH   2  19
ATOM     19  C   UNL     1       3.385  -1.839  -0.395  0.00  0.00    +0.055 C 
BRANCH  19  20
ATOM     20  C   UNL     1       4.368  -0.985   0.428  0.00  0.00    +0.045 C 
BRANCH  20  23
ATOM     21 CL   UNL     1       5.416   0.922  -1.754  0.00  0.00    -0.083 Cl
ATOM     22 CL   UNL     1       2.688   4.765   0.845  0.00  0.00    -0.082 Cl
ATOM     23  C   UNL     1       3.962   0.469   0.506  0.00  0.00    -0.010 C 
ATOM     24  C   UNL     1       4.396   1.384  -0.440  0.00  0.00    +0.055 C 
ATOM     25  C   UNL     1       3.142   0.855   1.555  0.00  0.00    -0.003 C 
ATOM     26  C   UNL     1       4.001   2.718  -0.335  0.00  0.00    +0.022 C 
ATOM     27  C   UNL     1       2.747   2.189   1.661  0.00  0.00    +0.011 C 
ATOM     28  C   UNL     1       3.176   3.120   0.715  0.00  0.00    +0.058 C 
ENDBRANCH  20  23
ENDBRANCH  19  20
BRANCH  19  29
ATOM     29  C   UNL     1       3.789  -3.321  -0.431  0.00  0.00    -0.066 C 
BRANCH  29  30
ATOM     30  N   UNL     1       5.125  -3.511  -0.985  0.00  0.00    +0.382 N 
ATOM     31  H   UNL     1       5.352  -4.505  -0.990  0.00  0.00    -0.089 HD
ATOM     32  H   UNL     1       5.805  -3.010  -0.413  0.00  0.00    -0.089 HD
ATOM     33  H   UNL     1       5.152  -3.151  -1.939  0.00  0.00    -0.089 HD
ENDBRANCH  29  30
ENDBRANCH  19  29
ENDBRANCH   2  19
TORSDOF 7
