REMARK  Name = 25174099
REMARK  5 active torsions:
REMARK  status: ('A' for Active; 'I' for Inactive)
REMARK    1  A    between atoms: C_5  and  C_33
REMARK    2  A    between atoms: C_14  and  C_18
REMARK    3  A    between atoms: N_17  and  C_20
REMARK    4  A    between atoms: C_20  and  C_24
REMARK    5  A    between atoms: C_33  and  C_36
REMARK                            x       y       z     vdW  Elec       q    Type
REMARK                         _______ _______ _______ _____ _____    ______ ____
ROOT
ATOM      1  S   UNL     1      -3.914  -2.866   0.492  0.00  0.00    -0.064 S 
ATOM      2  O   UNL     1      -2.030   1.599  -0.474  0.00  0.00    -0.274 OA
ATOM      3  N   UNL     1      -1.302  -2.307   0.670  0.00  0.00    -0.379 NA
ATOM      4  N   UNL     1      -0.580  -0.083   0.167  0.00  0.00    -0.255 N 
ATOM      5  C   UNL     1      -5.073   0.844  -0.557  0.00  0.00    +0.028 C 
ATOM      6  C   UNL     1      -6.467   0.488  -1.131  0.00  0.00    +0.005 C 
ATOM      7  C   UNL     1      -4.318  -0.407  -0.176  0.00  0.00    -0.027 C 
ATOM      8  C   UNL     1      -7.210  -0.541  -0.267  0.00  0.00    +0.006 C 
ATOM      9  C   UNL     1      -6.433  -1.859  -0.155  0.00  0.00    +0.032 C 
ATOM     10  C   UNL     1      -4.968  -1.611   0.034  0.00  0.00    +0.002 C 
ATOM     11  C   UNL     1      -2.904  -0.551   0.017  0.00  0.00    +0.154 C 
ATOM     12  C   UNL     1      -2.554  -1.840   0.397  0.00  0.00    +0.152 C 
ATOM     13  C   UNL     1      -1.839   0.438  -0.126  0.00  0.00    +0.239 C 
ATOM     14  C   UNL     1      -0.380  -1.403   0.543  0.00  0.00    +0.240 C 
ATOM     15  H   UNL     1       0.202   0.512   0.105  0.00  0.00    +0.157 HD
ENDROOT
BRANCH  14  18
ATOM     16  O   UNL     1       1.449  -1.641   1.952  0.00  0.00    -0.266 OA
ATOM     17  N   UNL     1       1.697  -2.229  -0.305  0.00  0.00    -0.294 N 
ATOM     18  C   UNL     1       1.029  -1.772   0.810  0.00  0.00    +0.290 C 
ATOM     19  H   UNL     1       1.208  -2.274  -1.158  0.00  0.00    +0.150 HD
BRANCH  17  20
ATOM     20  C   UNL     1       3.080  -2.647  -0.281  0.00  0.00    +0.117 C 
BRANCH  20  24
ATOM     21  O   UNL     1       6.550   1.672  -1.421  0.00  0.00    -0.464 OA
ATOM     22  O   UNL     1       7.819   2.355   1.893  0.00  0.00    -0.271 OA
ATOM     23  N   UNL     1       6.304   0.751   1.242  0.00  0.00    -0.279 N 
ATOM     24  C   UNL     1       4.015  -1.508  -0.568  0.00  0.00    -0.001 C 
ATOM     25  C   UNL     1       5.608   0.135   0.198  0.00  0.00    +0.085 C 
ATOM     26  C   UNL     1       4.735  -0.919   0.472  0.00  0.00    +0.015 C 
ATOM     27  C   UNL     1       5.755   0.606  -1.106  0.00  0.00    +0.153 C 
ATOM     28  C   UNL     1       4.158  -1.036  -1.873  0.00  0.00    +0.001 C 
ATOM     29  C   UNL     1       5.022   0.026  -2.142  0.00  0.00    +0.038 C 
ATOM     30  C   UNL     1       7.555   1.947  -0.464  0.00  0.00    +0.290 C 
ATOM     31  C   UNL     1       7.233   1.738   1.006  0.00  0.00    +0.271 C 
ATOM     32  H   UNL     1       6.126   0.472   2.169  0.00  0.00    +0.155 HD
ENDBRANCH  20  24
ENDBRANCH  17  20
ENDBRANCH  14  18
BRANCH   5  33
ATOM     33  C   UNL     1      -5.206   1.796   0.637  0.00  0.00    +0.089 C 
BRANCH  33  36
ATOM     34  O   UNL     1      -5.652   3.561  -0.966  0.00  0.00    -0.275 OA
ATOM     35  N   UNL     1      -5.656   4.056   1.280  0.00  0.00    -0.329 N 
ATOM     36  C   UNL     1      -5.524   3.206   0.203  0.00  0.00    +0.220 C 
ATOM     37  H   UNL     1      -5.864   5.007   1.134  0.00  0.00    +0.145 HD
ATOM     38  H   UNL     1      -5.542   3.712   2.195  0.00  0.00    +0.145 HD
ENDBRANCH  33  36
ENDBRANCH   5  33
TORSDOF 5
