REMARK  Name = 4474224
REMARK  2 active torsions:
REMARK  status: ('A' for Active; 'I' for Inactive)
REMARK    1  A    between atoms: C_3  and  N_15
REMARK    2  A    between atoms: C_5  and  S_11
REMARK                            x       y       z     vdW  Elec       q    Type
REMARK                         _______ _______ _______ _____ _____    ______ ____
ROOT
ATOM      1  C   UNL     1       0.933   0.035   0.012  0.00  0.00    +0.013 C 
ATOM      2  C   UNL     1       0.169  -1.156   0.018  0.00  0.00    +0.002 C 
ATOM      3  C   UNL     1       2.335  -0.047  -0.009  0.00  0.00    +0.048 C 
ATOM      4  C   UNL     1      -1.232  -1.073   0.039  0.00  0.00    +0.019 C 
ATOM      5  C   UNL     1      -1.872   0.167   0.052  0.00  0.00    +0.112 C 
ATOM      6  C   UNL     1       0.272   1.275   0.025  0.00  0.00    +0.003 C 
ATOM      7  C   UNL     1       0.830  -2.395   0.005  0.00  0.00    +0.000 C 
ATOM      8  C   UNL     1       2.974  -1.287  -0.022  0.00  0.00    +0.015 C 
ATOM      9  C   UNL     1      -1.121   1.339   0.045  0.00  0.00    +0.019 C 
ATOM     10  C   UNL     1       2.224  -2.459  -0.015  0.00  0.00    +0.001 C 
ENDROOT
BRANCH   5  11
ATOM     11  S   UNL     1      -3.616   0.249   0.080  0.00  0.00    +0.042 S 
ATOM     12  O   UNL     1      -4.069   0.276  -1.491  0.00  0.00    -0.065 OA
ATOM     13  O   UNL     1      -4.116  -0.995   0.645  0.00  0.00    -0.065 OA
ATOM     14  O   UNL     1      -3.971   1.529   0.673  0.00  0.00    -0.065 OA
ENDBRANCH   5  11
BRANCH   3  15
ATOM     15  N   UNL     1       3.146   1.114  -0.016  0.00  0.00    -0.304 N 
ATOM     16  C   UNL     1       3.546   1.714  -1.270  0.00  0.00    +0.112 C 
ATOM     17  C   UNL     1       3.569   1.714   1.230  0.00  0.00    +0.112 C 
ENDBRANCH   3  15
TORSDOF 2
