REMARK  Name = 216454
REMARK  6 active torsions:
REMARK  status: ('A' for Active; 'I' for Inactive)
REMARK    1  A    between atoms: N_2  and  C_16
REMARK    2  A    between atoms: N_3  and  C_10
REMARK    3  A    between atoms: C_16  and  C_19
REMARK    4  A    between atoms: N_17  and  C_22
REMARK    5  A    between atoms: C_22  and  C_23
REMARK    6  A    between atoms: C_28  and  C_30
REMARK                            x       y       z     vdW  Elec       q    Type
REMARK                         _______ _______ _______ _____ _____    ______ ____
ROOT
ATOM      1  O   UNL     1       3.372  -1.765  -0.307  0.00  0.00    -0.277 OA
ATOM      2  N   UNL     1       0.663   0.255   0.688  0.00  0.00    +0.398 N 
ATOM      3  N   UNL     1       3.426   0.521   0.218  0.00  0.00    -0.262 N 
ATOM      4  C   UNL     1       1.185   1.603   0.488  0.00  0.00    -0.054 C 
ATOM      5  C   UNL     1       2.660   1.600   0.854  0.00  0.00    +0.075 C 
ATOM      6  C   UNL     1       1.289  -0.648  -0.276  0.00  0.00    +0.011 C 
ATOM      7  C   UNL     1       2.796  -0.693  -0.100  0.00  0.00    +0.208 C 
ATOM      8  H   UNL     1       0.881  -0.055   1.635  0.00  0.00    -0.078 HD
ENDROOT
BRANCH   3  10
ATOM      9 CL   UNL     1       7.857  -0.831  -2.042  0.00  0.00    -0.082 Cl
ATOM     10  C   UNL     1       4.861   0.673   0.130  0.00  0.00    +0.054 C 
ATOM     11  C   UNL     1       5.578  -0.067  -0.804  0.00  0.00    +0.026 C 
ATOM     12  C   UNL     1       5.513   1.561   0.980  0.00  0.00    +0.015 C 
ATOM     13  C   UNL     1       6.962   0.082  -0.889  0.00  0.00    +0.059 C 
ATOM     14  C   UNL     1       6.897   1.710   0.895  0.00  0.00    +0.002 C 
ATOM     15  C   UNL     1       7.622   0.970  -0.039  0.00  0.00    +0.011 C 
ENDBRANCH   3  10
BRANCH   2  16
ATOM     16  C   UNL     1      -0.790   0.240   0.524  0.00  0.00    -0.032 C 
BRANCH  16  19
ATOM     17  N   UNL     1      -2.290  -1.668  -0.086  0.00  0.00    -0.270 N 
ATOM     18  N   UNL     1      -1.880  -3.175   1.493  0.00  0.00    -0.225 NA
ATOM     19  C   UNL     1      -1.365  -1.135   0.738  0.00  0.00    +0.029 C 
ATOM     20  C   UNL     1      -1.116  -2.054   1.701  0.00  0.00    +0.109 C 
ATOM     21  C   UNL     1      -2.576  -2.910   0.410  0.00  0.00    +0.168 C 
BRANCH  17  22
ATOM     22  C   UNL     1      -2.881  -1.075  -1.262  0.00  0.00    +0.123 C 
BRANCH  22  23
ATOM     23  C   UNL     1      -4.125  -0.300  -0.920  0.00  0.00    -0.002 C 
ATOM     24  C   UNL     1      -4.026   1.047  -0.597  0.00  0.00    -0.002 C 
ATOM     25  C   UNL     1      -5.356  -0.942  -0.933  0.00  0.00    -0.002 C 
ATOM     26  C   UNL     1      -5.179   1.765  -0.281  0.00  0.00    +0.010 C 
ATOM     27  C   UNL     1      -6.509  -0.224  -0.617  0.00  0.00    +0.010 C 
ATOM     28  C   UNL     1      -6.421   1.130  -0.291  0.00  0.00    +0.068 C 
BRANCH  28  30
ATOM     29  N   UNL     1      -8.563   2.464   0.294  0.00  0.00    -0.191 NA
ATOM     30  C   UNL     1      -7.602   1.866   0.032  0.00  0.00    +0.100 C 
ENDBRANCH  28  30
ENDBRANCH  22  23
ENDBRANCH  17  22
ENDBRANCH  16  19
ENDBRANCH   2  16
TORSDOF 6
