REMARK  Name = 5327045
REMARK  6 active torsions:
REMARK  status: ('A' for Active; 'I' for Inactive)
REMARK    1  A    between atoms: C_4  and  O_14
REMARK    2  A    between atoms: C_6  and  C_11
REMARK    3  A    between atoms: C_11  and  O_12
REMARK    4  A    between atoms: O_14  and  C_15
REMARK    5  A    between atoms: C_15  and  C_17
REMARK    6  A    between atoms: C_17  and  O_18
REMARK                            x       y       z     vdW  Elec       q    Type
REMARK                         _______ _______ _______ _____ _____    ______ ____
ROOT
ATOM      1  S   UNL     1       1.798   1.933   0.269  0.00  0.00    -0.058 S 
ATOM      2  N   UNL     1       3.604  -0.022   0.276  0.00  0.00    -0.237 NA
ATOM      3  C   UNL     1       1.255  -0.556  -0.159  0.00  0.00    +0.059 A 
ATOM      4  C   UNL     1       0.017   0.158  -0.251  0.00  0.00    +0.153 A 
ATOM      5  C   UNL     1       2.305   0.312   0.123  0.00  0.00    +0.114 A 
ATOM      6  C   UNL     1       0.170   1.511  -0.040  0.00  0.00    +0.140 A 
ATOM      7  C   UNL     1       1.579  -1.921  -0.298  0.00  0.00    +0.007 C 
ATOM      8  C   UNL     1       2.905  -2.314  -0.148  0.00  0.00    +0.021 C 
ATOM      9  C   UNL     1       3.849  -1.342   0.132  0.00  0.00    +0.099 C 
ENDROOT
BRANCH   6  11
ATOM     10  O   UNL     1      -0.618   3.762   0.149  0.00  0.00    -0.244 OA
ATOM     11  C   UNL     1      -0.817   2.543  -0.050  0.00  0.00    +0.347 C 
BRANCH  11  12
ATOM     12  O   UNL     1      -2.083   2.086  -0.311  0.00  0.00    -0.477 OA
ATOM     13  H   UNL     1      -2.230   1.173  -0.460  0.00  0.00    +0.295 HD
ENDBRANCH  11  12
ENDBRANCH   6  11
BRANCH   4  14
ATOM     14  O   UNL     1      -1.179  -0.401  -0.512  0.00  0.00    -0.463 OA
BRANCH  14  15
ATOM     15  C   UNL     1      -1.961  -0.849   0.603  0.00  0.00    +0.314 C 
BRANCH  15  17
ATOM     16  O   UNL     1      -3.599  -1.537  -1.055  0.00  0.00    -0.246 OA
ATOM     17  C   UNL     1      -3.246  -1.455   0.112  0.00  0.00    +0.359 C 
BRANCH  17  18
ATOM     18  O   UNL     1      -3.980  -1.910   1.159  0.00  0.00    -0.478 OA
ATOM     19  H   UNL     1      -3.655  -1.818   2.033  0.00  0.00    +0.295 HD
ENDBRANCH  17  18
ENDBRANCH  15  17
ENDBRANCH  14  15
ENDBRANCH   4  14
TORSDOF 6
