REMARK  Name = 449412
REMARK  8 active torsions:
REMARK  status: ('A' for Active; 'I' for Inactive)
REMARK    1  A    between atoms: C_1  and  C_2
REMARK    2  A    between atoms: C_1  and  N_9
REMARK    3  A    between atoms: C_1  and  C_20
REMARK    4  A    between atoms: C_10  and  O_12
REMARK    5  A    between atoms: O_12  and  C_13
REMARK    6  A    between atoms: C_13  and  C_14
REMARK    7  A    between atoms: C_20  and  C_26
REMARK    8  A    between atoms: C_28  and  S_30
REMARK                            x       y       z     vdW  Elec       q    Type
REMARK                         _______ _______ _______ _____ _____    ______ ____
ROOT
ATOM      1  C   UNL     1       2.474  -0.439  -0.203  0.00  0.00    +0.106 C 
ENDROOT
BRANCH   1   2
ATOM      2  C   UNL     1       3.954  -0.185   0.001  0.00  0.00    -0.004 C 
ATOM      3  C   UNL     1       4.648   0.640  -0.884  0.00  0.00    -0.003 C 
ATOM      4  C   UNL     1       4.622  -0.776   1.073  0.00  0.00    -0.003 C 
ATOM      5  C   UNL     1       6.010   0.874  -0.697  0.00  0.00    -0.000 C 
ATOM      6  C   UNL     1       5.984  -0.541   1.260  0.00  0.00    -0.000 C 
ATOM      7  C   UNL     1       6.678   0.284   0.375  0.00  0.00    -0.000 C 
ENDBRANCH   1   2
BRANCH   1   9
ATOM      8  O   UNL     1       0.675   1.435  -1.502  0.00  0.00    -0.226 OA
ATOM      9  N   UNL     1       1.687   0.607   0.414  0.00  0.00    -0.268 N 
ATOM     10  C   UNL     1       0.857   1.453  -0.289  0.00  0.00    +0.402 C 
ATOM     11  H   UNL     1       1.748   0.721   1.390  0.00  0.00    +0.153 HD
BRANCH  10  12
ATOM     12  O   UNL     1       0.255   2.326   0.573  0.00  0.00    -0.430 OA
BRANCH  12  13
ATOM     13  C   UNL     1      -0.642   3.271  -0.021  0.00  0.00    +0.237 C 
BRANCH  13  14
ATOM     14  C   UNL     1      -2.022   2.684  -0.051  0.00  0.00    +0.021 C 
ATOM     15  C   UNL     1      -2.440   1.939  -1.153  0.00  0.00    -0.001 C 
ATOM     16  C   UNL     1      -2.888   2.883   1.025  0.00  0.00    -0.001 C 
ATOM     17  C   UNL     1      -3.723   1.393  -1.181  0.00  0.00    -0.000 C 
ATOM     18  C   UNL     1      -4.171   2.337   0.998  0.00  0.00    -0.000 C 
ATOM     19  C   UNL     1      -4.589   1.592  -0.105  0.00  0.00    -0.000 C 
ENDBRANCH  13  14
ENDBRANCH  12  13
ENDBRANCH  10  12
ENDBRANCH   1   9
BRANCH   1  20
ATOM     20  C   UNL     1       2.025  -1.817   0.305  0.00  0.00    +0.110 C 
BRANCH  20  26
ATOM     21  S   UNL     1      -2.855  -1.428   1.356  0.00  0.00    -0.024 S 
ATOM     22  O   UNL     1       0.662  -2.876  -1.344  0.00  0.00    -0.275 OA
ATOM     23  N   UNL     1      -0.379  -1.811   0.481  0.00  0.00    -0.263 N 
ATOM     24  N   UNL     1      -2.267  -2.712  -0.782  0.00  0.00    -0.125 NA
ATOM     25  N   UNL     1      -3.647  -2.747  -0.694  0.00  0.00    -0.133 NA
ATOM     26  C   UNL     1       0.691  -2.228  -0.301  0.00  0.00    +0.230 C 
ATOM     27  C   UNL     1      -1.730  -2.055   0.224  0.00  0.00    +0.189 A 
ATOM     28  C   UNL     1      -4.084  -2.114   0.375  0.00  0.00    +0.157 A 
ATOM     29  H   UNL     1      -0.164  -1.295   1.291  0.00  0.00    +0.157 HD
BRANCH  28  30
ATOM     30  S   UNL     1      -5.784  -1.994   0.748  0.00  0.00    -0.114 S 
ATOM     31  H   UNL     1      -5.947  -1.291   1.901  0.00  0.00    +0.109 HD
ENDBRANCH  28  30
ENDBRANCH  20  26
ENDBRANCH   1  20
TORSDOF 8
