REMARK  Name = 16122556
REMARK  12 active torsions:
REMARK  status: ('A' for Active; 'I' for Inactive)
REMARK    1  A    between atoms: C_1  and  O_19
REMARK    2  A    between atoms: C_2  and  C_7
REMARK    3  A    between atoms: C_8  and  C_13
REMARK    4  A    between atoms: O_19  and  C_20
REMARK    5  A    between atoms: C_20  and  C_21
REMARK    6  A    between atoms: C_21  and  P_22
REMARK    7  A    between atoms: C_21  and  P_28
REMARK    8  A    between atoms: C_21  and  O_34
REMARK    9  A    between atoms: P_22  and  O_24
REMARK   10  A    between atoms: P_22  and  O_26
REMARK   11  A    between atoms: P_28  and  O_30
REMARK   12  A    between atoms: P_28  and  O_32
REMARK                            x       y       z     vdW  Elec       q    Type
REMARK                         _______ _______ _______ _____ _____    ______ ____
ROOT
ATOM      1  C   UNL     1      -1.422   1.747  -0.096  0.00  0.00    +0.139 C 
ATOM      2  C   UNL     1       0.912   2.302   0.097  0.00  0.00    +0.003 C 
ATOM      3  C   UNL     1      -0.087   1.402  -0.273  0.00  0.00    +0.037 C 
ATOM      4  C   UNL     1      -1.772   2.978   0.445  0.00  0.00    +0.037 C 
ATOM      5  C   UNL     1       0.570   3.540   0.640  0.00  0.00    +0.000 C 
ATOM      6  C   UNL     1      -0.772   3.878   0.814  0.00  0.00    +0.003 C 
ENDROOT
BRANCH   2   7
ATOM      7  C   UNL     1       2.304   1.951  -0.083  0.00  0.00    +0.000 C 
ATOM      8  C   UNL     1       4.045   0.278  -0.182  0.00  0.00    +0.000 C 
ATOM      9  C   UNL     1       2.703   0.616  -0.010  0.00  0.00    +0.000 C 
ATOM     10  C   UNL     1       3.248   2.948  -0.329  0.00  0.00    +0.000 C 
ATOM     11  C   UNL     1       4.989   1.275  -0.428  0.00  0.00    +0.000 C 
ATOM     12  C   UNL     1       4.591   2.610  -0.501  0.00  0.00    +0.000 C 
BRANCH   8  13
ATOM     13  C   UNL     1       4.460  -1.106  -0.105  0.00  0.00    +0.000 C 
ATOM     14  C   UNL     1       4.478  -1.893  -1.256  0.00  0.00    +0.000 C 
ATOM     15  C   UNL     1       4.841  -1.653   1.120  0.00  0.00    +0.000 C 
ATOM     16  C   UNL     1       4.878  -3.227  -1.183  0.00  0.00    +0.000 C 
ATOM     17  C   UNL     1       5.241  -2.987   1.194  0.00  0.00    +0.000 C 
ATOM     18  C   UNL     1       5.260  -3.774   0.042  0.00  0.00    +0.000 C 
ENDBRANCH   8  13
ENDBRANCH   2   7
BRANCH   1  19
ATOM     19  O   UNL     1      -2.406   0.863  -0.459  0.00  0.00    -0.472 OA
BRANCH  19  20
ATOM     20  C   UNL     1      -3.618   0.912   0.277  0.00  0.00    +0.256 C 
BRANCH  20  21
ATOM     21  C   UNL     1      -4.304  -0.460   0.293  0.00  0.00    +0.315 C 
BRANCH  21  22
ATOM     22  P   UNL     1      -3.353  -1.633   1.317  0.00  0.00    +0.375 P 
ATOM     23  O   UNL     1      -3.192  -1.227   2.753  0.00  0.00    -0.255 OA
BRANCH  22  24
ATOM     24  O   UNL     1      -4.109  -3.043   1.086  0.00  0.00    -0.322 OA
ATOM     25  H   UNL     1      -3.665  -3.735   1.601  0.00  0.00    +0.220 HD
ENDBRANCH  22  24
BRANCH  22  26
ATOM     26  O   UNL     1      -1.974  -1.816   0.497  0.00  0.00    -0.322 OA
ATOM     27  H   UNL     1      -1.394  -2.433   0.972  0.00  0.00    +0.220 HD
ENDBRANCH  22  26
ENDBRANCH  21  22
BRANCH  21  28
ATOM     28  P   UNL     1      -4.951  -0.869  -1.363  0.00  0.00    +0.375 P 
ATOM     29  O   UNL     1      -5.964   0.098  -1.900  0.00  0.00    -0.255 OA
BRANCH  28  30
ATOM     30  O   UNL     1      -3.616  -1.031  -2.258  0.00  0.00    -0.322 OA
ATOM     31  H   UNL     1      -3.862  -1.253  -3.170  0.00  0.00    +0.220 HD
ENDBRANCH  28  30
BRANCH  28  32
ATOM     32  O   UNL     1      -5.475  -2.390  -1.205  0.00  0.00    -0.322 OA
ATOM     33  H   UNL     1      -5.841  -2.695  -2.050  0.00  0.00    +0.220 HD
ENDBRANCH  28  32
ENDBRANCH  21  28
BRANCH  21  34
ATOM     34  O   UNL     1      -5.505  -0.290   1.055  0.00  0.00    -0.364 OA
ATOM     35  H   UNL     1      -5.982  -1.133   1.098  0.00  0.00    +0.212 HD
ENDBRANCH  21  34
ENDBRANCH  20  21
ENDBRANCH  19  20
ENDBRANCH   1  19
TORSDOF 12
