REMARK  Name = 9543426
REMARK  9 active torsions:
REMARK  status: ('A' for Active; 'I' for Inactive)
REMARK    1  A    between atoms: S_1  and  C_3
REMARK    2  A    between atoms: S_1  and  C_11
REMARK    3  A    between atoms: C_4  and  O_9
REMARK    4  A    between atoms: C_11  and  C_12
REMARK    5  A    between atoms: C_12  and  C_13
REMARK    6  A    between atoms: C_13  and  C_14
REMARK    7  A    between atoms: C_14  and  P_15
REMARK    8  A    between atoms: P_15  and  O_17
REMARK    9  A    between atoms: P_15  and  O_19
REMARK                            x       y       z     vdW  Elec       q    Type
REMARK                         _______ _______ _______ _____ _____    ______ ____
ROOT
ATOM      1  S   UNL     1      -1.465  -1.176  -0.998  0.00  0.00    +0.068 S 
ATOM      2  O   UNL     1      -1.451  -2.577  -0.470  0.00  0.00    -0.251 OA
ENDROOT
BRANCH   1   3
ATOM      3  C   UNL     1      -2.829  -0.333  -0.172  0.00  0.00    +0.090 C 
ATOM      4  C   UNL     1      -3.382   0.825  -0.710  0.00  0.00    +0.142 C 
ATOM      5  C   UNL     1      -3.320  -0.862   1.018  0.00  0.00    +0.012 C 
ATOM      6  C   UNL     1      -4.435   1.460  -0.052  0.00  0.00    +0.037 C 
ATOM      7  C   UNL     1      -4.374  -0.227   1.676  0.00  0.00    +0.001 C 
ATOM      8  C   UNL     1      -4.931   0.934   1.141  0.00  0.00    +0.003 C 
BRANCH   4   9
ATOM      9  O   UNL     1      -2.917   1.364  -1.873  0.00  0.00    -0.505 OA
ATOM     10  H   UNL     1      -2.210   0.953  -2.330  0.00  0.00    +0.292 HD
ENDBRANCH   4   9
ENDBRANCH   1   3
BRANCH   1  11
ATOM     11  C   UNL     1      -0.118  -0.281  -0.167  0.00  0.00    +0.096 C 
BRANCH  11  12
ATOM     12  C   UNL     1       1.256  -0.758  -0.626  0.00  0.00    +0.015 C 
BRANCH  12  13
ATOM     13  C   UNL     1       2.406   0.005   0.039  0.00  0.00    +0.014 C 
BRANCH  13  14
ATOM     14  C   UNL     1       3.769  -0.481  -0.438  0.00  0.00    +0.116 C 
BRANCH  14  15
ATOM     15  P   UNL     1       5.160   0.339   0.372  0.00  0.00    +0.337 P 
ATOM     16  O   UNL     1       5.183   0.155   1.849  0.00  0.00    -0.258 OA
BRANCH  15  17
ATOM     17  O   UNL     1       5.024   1.854  -0.153  0.00  0.00    -0.324 OA
ATOM     18  H   UNL     1       5.735   2.393   0.227  0.00  0.00    +0.220 HD
ENDBRANCH  15  17
BRANCH  15  19
ATOM     19  O   UNL     1       6.425  -0.242  -0.436  0.00  0.00    -0.324 OA
ATOM     20  H   UNL     1       7.241   0.139  -0.076  0.00  0.00    +0.220 HD
ENDBRANCH  15  19
ENDBRANCH  14  15
ENDBRANCH  13  14
ENDBRANCH  12  13
ENDBRANCH  11  12
ENDBRANCH   1  11
TORSDOF 9
