REMARK  Name = 92745
REMARK  1 active torsions:
REMARK  status: ('A' for Active; 'I' for Inactive)
REMARK    1  A    between atoms: C_10  and  C_22
REMARK                            x       y       z     vdW  Elec       q    Type
REMARK                         _______ _______ _______ _____ _____    ______ ____
ROOT
ATOM      1  O   UNL     1      -5.643   0.277  -1.692  0.00  0.00    -0.296 OA
ATOM      2  C   UNL     1      -0.006  -0.943   0.405  0.00  0.00    +0.000 C 
ATOM      3  C   UNL     1       1.337  -0.940  -0.336  0.00  0.00    +0.000 C 
ATOM      4  C   UNL     1      -0.756   0.383   0.083  0.00  0.00    +0.000 C 
ATOM      5  C   UNL     1       2.245   0.242   0.063  0.00  0.00    +0.007 C 
ATOM      6  C   UNL     1      -2.179   0.468   0.754  0.00  0.00    +0.001 C 
ATOM      7  C   UNL     1       0.135   1.631   0.342  0.00  0.00    +0.000 C 
ATOM      8  C   UNL     1      -3.002  -0.845   0.499  0.00  0.00    +0.007 C 
ATOM      9  C   UNL     1       1.521   1.540  -0.322  0.00  0.00    +0.000 C 
ATOM     10  C   UNL     1       3.482  -0.090  -0.800  0.00  0.00    +0.058 C 
ATOM     11  C   UNL     1      -0.861  -2.148   0.001  0.00  0.00    +0.000 C 
ATOM     12  C   UNL     1       2.257  -2.150  -0.211  0.00  0.00    +0.000 C 
ATOM     13  C   UNL     1      -2.199  -2.133   0.723  0.00  0.00    +0.000 C 
ATOM     14  C   UNL     1       3.622  -1.623  -0.690  0.00  0.00    +0.007 C 
ATOM     15  C   UNL     1      -2.940   1.699   0.156  0.00  0.00    +0.008 C 
ATOM     16  C   UNL     1       2.611   0.272   1.570  0.00  0.00    +0.000 C 
ATOM     17  C   UNL     1      -2.069   0.665   2.285  0.00  0.00    +0.000 C 
ATOM     18  C   UNL     1      -3.672  -0.825  -0.883  0.00  0.00    +0.064 C 
ATOM     19  C   UNL     1      -4.440   1.477   0.000  0.00  0.00    +0.065 C 
ATOM     20  C   UNL     1      -4.676   0.308  -0.932  0.00  0.00    +0.151 C 
ENDROOT
BRANCH  10  22
ATOM     21  O   UNL     1       5.491   0.169   0.458  0.00  0.00    -0.296 OA
ATOM     22  C   UNL     1       4.731   0.628  -0.393  0.00  0.00    +0.151 C 
ATOM     23  C   UNL     1       5.012   1.938  -1.078  0.00  0.00    +0.072 C 
ENDBRANCH  10  22
TORSDOF 1
