REMARK  Name = 5287789
REMARK  4 active torsions:
REMARK  status: ('A' for Active; 'I' for Inactive)
REMARK    1  A    between atoms: C_4  and  N_11
REMARK    2  A    between atoms: C_4  and  C_17
REMARK    3  A    between atoms: C_6  and  C_16
REMARK    4  A    between atoms: C_17  and  C_18
REMARK                            x       y       z     vdW  Elec       q    Type
REMARK                         _______ _______ _______ _____ _____    ______ ____
ROOT
ATOM      1  O   UNL     1      -0.396   0.241   1.952  0.00  0.00    -0.276 OA
ATOM      2  N   UNL     1      -1.336  -0.230  -1.445  0.00  0.00    -0.202 NA
ATOM      3  N   UNL     1      -1.435   0.121  -0.096  0.00  0.00    -0.217 N 
ATOM      4  C   UNL     1       0.285  -1.570   0.502  0.00  0.00    +0.029 C 
ATOM      5  C   UNL     1       0.321  -1.877  -1.003  0.00  0.00    +0.008 C 
ATOM      6  C   UNL     1      -2.422   1.175   0.098  0.00  0.00    +0.158 C 
ATOM      7  C   UNL     1      -1.037  -1.636  -1.654  0.00  0.00    +0.091 C 
ATOM      8  C   UNL     1      -2.582   0.206  -2.078  0.00  0.00    +0.094 C 
ATOM      9  C   UNL     1      -2.908   1.485  -1.308  0.00  0.00    +0.048 C 
ATOM     10  C   UNL     1      -0.509  -0.295   0.846  0.00  0.00    +0.220 C 
ENDROOT
BRANCH   4  11
ATOM     11  N   UNL     1      -0.428  -2.650   1.200  0.00  0.00    +0.389 N 
ATOM     12  H   UNL     1      -1.379  -2.720   0.838  0.00  0.00    -0.088 HD
ATOM     13  H   UNL     1      -0.459  -2.447   2.200  0.00  0.00    -0.088 HD
ATOM     14  H   UNL     1       0.059  -3.533   1.048  0.00  0.00    -0.088 HD
ENDBRANCH   4  11
BRANCH   6  16
ATOM     15  O   UNL     1      -4.508   1.218   1.290  0.00  0.00    -0.286 OA
ATOM     16  C   UNL     1      -3.512   0.591   0.944  0.00  0.00    +0.228 C 
ENDBRANCH   6  16
BRANCH   4  17
ATOM     17  C   UNL     1       1.711  -1.478   1.057  0.00  0.00    +0.015 C 
BRANCH  17  18
ATOM     18  C   UNL     1       2.447  -0.301   0.480  0.00  0.00    -0.024 C 
ATOM     19  C   UNL     1       3.181  -0.457  -0.689  0.00  0.00    -0.004 C 
ATOM     20  C   UNL     1       2.386   0.929   1.123  0.00  0.00    -0.004 C 
ATOM     21  C   UNL     1       3.865   0.635  -1.224  0.00  0.00    -0.000 C 
ATOM     22  C   UNL     1       3.069   2.021   0.588  0.00  0.00    -0.000 C 
ATOM     23  C   UNL     1       3.809   1.874  -0.586  0.00  0.00    -0.000 C 
ENDBRANCH  17  18
ENDBRANCH   4  17
TORSDOF 4
