REMARK  Name = 210332
REMARK  3 active torsions:
REMARK  status: ('A' for Active; 'I' for Inactive)
REMARK    1  A    between atoms: N_1  and  C_16
REMARK    2  A    between atoms: N_4  and  C_23
REMARK    3  A    between atoms: C_22  and  N_29
REMARK                            x       y       z     vdW  Elec       q    Type
REMARK                         _______ _______ _______ _____ _____    ______ ____
ROOT
ATOM      1  N   UNL     1      -3.041   1.295  -0.465  0.00  0.00    -0.311 N 
ATOM      2  N   UNL     1      -1.650  -0.631  -0.142  0.00  0.00    -0.316 NA
ATOM      3  N   UNL     1      -5.324  -0.757  -0.245  0.00  0.00    -0.268 NA
ATOM      4  N   UNL     1      -0.271  -2.497   0.173  0.00  0.00    -0.238 N 
ATOM      5  N   UNL     1      -2.581  -2.867   0.150  0.00  0.00    -0.316 NA
ATOM      6  N   UNL     1      -5.010  -2.939   0.079  0.00  0.00    -0.296 N 
ATOM      7  C   UNL     1      -2.884  -0.064  -0.264  0.00  0.00    +0.193 C 
ATOM      8  C   UNL     1      -3.971  -0.929  -0.175  0.00  0.00    +0.192 C 
ATOM      9  C   UNL     1      -3.801  -2.293   0.026  0.00  0.00    +0.194 C 
ATOM     10  C   UNL     1      -1.577  -1.969   0.054  0.00  0.00    +0.205 C 
ATOM     11  C   UNL     1      -5.904  -1.988  -0.087  0.00  0.00    +0.164 C 
ATOM     12  H   UNL     1      -3.956   1.651  -0.546  0.00  0.00    +0.149 HD
ATOM     13  H   UNL     1      -5.797   0.096  -0.383  0.00  0.00    +0.126 HD
ATOM     14  H   UNL     1      -0.248  -3.471   0.313  0.00  0.00    +0.166 HD
ATOM     15  H   UNL     1      -5.172  -3.901   0.212  0.00  0.00    +0.150 HD
ENDROOT
BRANCH   1  16
ATOM     16  C   UNL     1      -1.932   2.224  -0.561  0.00  0.00    +0.071 C 
ATOM     17  C   UNL     1      -2.372   3.494  -1.296  0.00  0.00    +0.020 C 
ATOM     18  C   UNL     1      -1.388   2.542   0.835  0.00  0.00    +0.020 C 
ATOM     19  C   UNL     1      -3.321   4.359  -0.466  0.00  0.00    +0.002 C 
ATOM     20  C   UNL     1      -2.341   3.410   1.657  0.00  0.00    +0.002 C 
ATOM     21  C   UNL     1      -2.738   4.677   0.907  0.00  0.00    +0.000 C 
ENDBRANCH   1  16
BRANCH   4  23
ATOM     22  C   UNL     1       3.532  -0.719   0.048  0.00  0.00    +0.048 C 
ATOM     23  C   UNL     1       1.003  -1.902   0.131  0.00  0.00    +0.059 C 
ATOM     24  C   UNL     1       3.323  -1.865   0.816  0.00  0.00    +0.016 C 
ATOM     25  C   UNL     1       2.479  -0.164  -0.678  0.00  0.00    +0.016 C 
ATOM     26  C   UNL     1       2.060  -2.456   0.857  0.00  0.00    +0.017 C 
ATOM     27  C   UNL     1       1.216  -0.755  -0.637  0.00  0.00    +0.017 C 
BRANCH  22  29
ATOM     28  O   UNL     1       7.327   1.050  -0.342  0.00  0.00    -0.350 OA
ATOM     29  N   UNL     1       4.798  -0.124   0.010  0.00  0.00    -0.303 N 
ATOM     30  C   UNL     1       5.925  -0.924  -0.488  0.00  0.00    +0.123 C 
ATOM     31  C   UNL     1       4.920   1.323  -0.195  0.00  0.00    +0.123 C 
ATOM     32  C   UNL     1       7.237  -0.330   0.012  0.00  0.00    +0.164 C 
ATOM     33  C   UNL     1       6.286   1.798   0.287  0.00  0.00    +0.164 C 
ENDBRANCH  22  29
ENDBRANCH   4  23
TORSDOF 3
