REMARK  Name = 2256
REMARK  2 active torsions:
REMARK  status: ('A' for Active; 'I' for Inactive)
REMARK    1  A    between atoms: N_2  and  C_12
REMARK    2  A    between atoms: N_3  and  C_15
REMARK                            x       y       z     vdW  Elec       q    Type
REMARK                         _______ _______ _______ _____ _____    ______ ____
ROOT
ATOM      1 CL   UNL     1      -1.442   3.820  -0.107  0.00  0.00    +0.026 Cl
ATOM      2  N   UNL     1       2.160   0.436   0.106  0.00  0.00    -0.259 N 
ATOM      3  N   UNL     1      -2.287  -1.053   0.033  0.00  0.00    -0.258 N 
ATOM      4  N   UNL     1      -0.053  -0.339   0.070  0.00  0.00    -0.247 NA
ATOM      5  N   UNL     1       0.426   2.011   0.007  0.00  0.00    -0.249 NA
ATOM      6  N   UNL     1      -1.849   1.249  -0.031  0.00  0.00    -0.249 NA
ATOM      7  C   UNL     1       0.805   0.711   0.060  0.00  0.00    +0.221 C 
ATOM      8  C   UNL     1      -1.350   0.004   0.024  0.00  0.00    +0.221 C 
ATOM      9  C   UNL     1      -0.902   2.202  -0.036  0.00  0.00    +0.227 C 
ATOM     10  H   UNL     1       2.789   1.194   0.097  0.00  0.00    +0.160 HD
ATOM     11  H   UNL     1      -3.246  -0.833  -0.001  0.00  0.00    +0.160 HD
ENDROOT
BRANCH   2  12
ATOM     12  C   UNL     1       2.705  -0.903   0.166  0.00  0.00    +0.080 C 
ATOM     13  C   UNL     1       4.122  -0.844   0.720  0.00  0.00    +0.022 C 
ATOM     14  C   UNL     1       2.678  -1.526  -1.224  0.00  0.00    +0.022 C 
ENDBRANCH   2  12
BRANCH   3  15
ATOM     15  C   UNL     1      -1.903  -2.429   0.088  0.00  0.00    +0.099 C 
ATOM     16  C   UNL     1      -3.112  -3.341   0.124  0.00  0.00    +0.024 C 
ENDBRANCH   3  15
TORSDOF 2
