REMARK  Name = 14368760
REMARK  9 active torsions:
REMARK  status: ('A' for Active; 'I' for Inactive)
REMARK    1  A    between atoms: C_1  and  O_11
REMARK    2  A    between atoms: C_4  and  C_8
REMARK    3  A    between atoms: C_8  and  O_9
REMARK    4  A    between atoms: O_11  and  C_12
REMARK    5  A    between atoms: C_12  and  C_13
REMARK    6  A    between atoms: C_13  and  C_14
REMARK    7  A    between atoms: C_14  and  C_15
REMARK    8  A    between atoms: C_15  and  C_16
REMARK    9  A    between atoms: C_16  and  C_17
REMARK                            x       y       z     vdW  Elec       q    Type
REMARK                         _______ _______ _______ _____ _____    ______ ____
ROOT
ATOM      1  C   UNL     1      -1.482  -0.370  -0.513  0.00  0.00    +0.139 C 
ATOM      2  C   UNL     1      -2.510   0.557  -0.381  0.00  0.00    +0.043 C 
ATOM      3  C   UNL     1      -1.669  -1.695  -0.137  0.00  0.00    +0.037 C 
ATOM      4  C   UNL     1      -3.741   0.153   0.135  0.00  0.00    +0.078 C 
ATOM      5  C   UNL     1      -2.900  -2.099   0.379  0.00  0.00    +0.003 C 
ATOM      6  C   UNL     1      -3.936  -1.175   0.515  0.00  0.00    +0.007 C 
ENDROOT
BRANCH   4   8
ATOM      7  O   UNL     1      -4.759   2.312  -0.026  0.00  0.00    -0.245 OA
ATOM      8  C   UNL     1      -4.821   1.116   0.278  0.00  0.00    +0.338 C 
BRANCH   8   9
ATOM      9  O   UNL     1      -5.951   0.559   0.794  0.00  0.00    -0.477 OA
ATOM     10  H   UNL     1      -5.965  -0.352   1.014  0.00  0.00    +0.295 HD
ENDBRANCH   8   9
ENDBRANCH   4   8
BRANCH   1  11
ATOM     11  O   UNL     1      -0.272   0.027  -1.020  0.00  0.00    -0.475 OA
BRANCH  11  12
ATOM     12  C   UNL     1       0.876  -0.672  -0.559  0.00  0.00    +0.205 C 
BRANCH  12  13
ATOM     13  C   UNL     1       2.074   0.267  -0.600  0.00  0.00    +0.047 C 
BRANCH  13  14
ATOM     14  C   UNL     1       3.345  -0.418  -0.102  0.00  0.00    +0.004 C 
BRANCH  14  15
ATOM     15  C   UNL     1       4.533   0.546  -0.108  0.00  0.00    +0.000 C 
BRANCH  15  16
ATOM     16  C   UNL     1       5.841  -0.096   0.362  0.00  0.00    +0.000 C 
BRANCH  16  17
ATOM     17  C   UNL     1       7.043   0.846   0.286  0.00  0.00    +0.000 C 
ATOM     18  C   UNL     1       8.328   0.140   0.695  0.00  0.00    +0.000 C 
ENDBRANCH  16  17
ENDBRANCH  15  16
ENDBRANCH  14  15
ENDBRANCH  13  14
ENDBRANCH  12  13
ENDBRANCH  11  12
ENDBRANCH   1  11
TORSDOF 9
