REMARK  Name = 5288215
REMARK  8 active torsions:
REMARK  status: ('A' for Active; 'I' for Inactive)
REMARK    1  A    between atoms: N_2  and  C_5
REMARK    2  A    between atoms: C_3  and  C_18
REMARK    3  A    between atoms: C_7  and  C_14
REMARK    4  A    between atoms: C_9  and  N_17
REMARK    5  A    between atoms: C_18  and  O_20
REMARK    6  A    between atoms: C_18  and  C_22
REMARK    7  A    between atoms: C_22  and  O_23
REMARK    8  A    between atoms: O_23  and  C_25
REMARK                            x       y       z     vdW  Elec       q    Type
REMARK                         _______ _______ _______ _____ _____    ______ ____
ROOT
ATOM      1  O   UNL     1       0.724   3.358   1.142  0.00  0.00    -0.272 OA
ATOM      2  N   UNL     1       0.366   1.612  -0.375  0.00  0.00    -0.282 N 
ATOM      3  C   UNL     1       1.088   2.648   0.207  0.00  0.00    +0.254 C 
ATOM      4  H   UNL     1       0.807   1.141  -1.119  0.00  0.00    +0.155 HD
ENDROOT
BRANCH   2   5
ATOM      5  C   UNL     1      -0.927   1.155  -0.025  0.00  0.00    +0.050 C 
ATOM      6  C   UNL     1      -1.486   0.101  -0.728  0.00  0.00    +0.020 C 
ATOM      7  C   UNL     1      -2.761  -0.348  -0.383  0.00  0.00    +0.095 C 
ATOM      8  C   UNL     1      -1.605   1.773   1.012  0.00  0.00    +0.016 C 
ATOM      9  C   UNL     1      -3.458   0.264   0.659  0.00  0.00    +0.147 C 
ATOM     10  C   UNL     1      -2.880   1.324   1.357  0.00  0.00    +0.025 C 
BRANCH   7  14
ATOM     11  F   UNL     1      -2.536  -1.962  -2.135  0.00  0.00    -0.166 F 
ATOM     12  F   UNL     1      -3.650  -2.568  -0.376  0.00  0.00    -0.166 F 
ATOM     13  F   UNL     1      -4.518  -1.146  -1.772  0.00  0.00    -0.166 F 
ATOM     14  C   UNL     1      -3.353  -1.485  -1.151  0.00  0.00    +0.420 C 
ENDBRANCH   7  14
BRANCH   9  17
ATOM     15  O   UNL     1      -5.350   0.401   1.970  0.00  0.00    -0.126 OA
ATOM     16  O   UNL     1      -5.277  -1.130   0.398  0.00  0.00    -0.126 OA
ATOM     17  N   UNL     1      -4.759  -0.177   1.027  0.00  0.00    +0.058 N 
ENDBRANCH   9  17
ENDBRANCH   2   5
BRANCH   3  18
ATOM     18  C   UNL     1       2.468   2.856  -0.446  0.00  0.00    +0.197 C 
ATOM     19  C   UNL     1       2.324   3.192  -1.932  0.00  0.00    +0.043 C 
BRANCH  18  20
ATOM     20  O   UNL     1       3.083   3.973   0.195  0.00  0.00    -0.375 OA
ATOM     21  H   UNL     1       3.186   3.787   1.141  0.00  0.00    +0.211 HD
ENDBRANCH  18  20
BRANCH  18  22
ATOM     22  C   UNL     1       3.398   1.652  -0.251  0.00  0.00    +0.241 C 
BRANCH  22  23
ATOM     23  O   UNL     1       2.852   0.483  -0.855  0.00  0.00    -0.472 OA
BRANCH  23  25
ATOM     24  F   UNL     1       4.418  -4.341   1.249  0.00  0.00    -0.204 F 
ATOM     25  C   UNL     1       3.244  -0.720  -0.330  0.00  0.00    +0.139 C 
ATOM     26  C   UNL     1       4.503  -0.844   0.247  0.00  0.00    +0.039 C 
ATOM     27  C   UNL     1       2.377  -1.807  -0.378  0.00  0.00    +0.039 C 
ATOM     28  C   UNL     1       4.901  -2.070   0.781  0.00  0.00    +0.033 C 
ATOM     29  C   UNL     1       2.775  -3.032   0.157  0.00  0.00    +0.033 C 
ATOM     30  C   UNL     1       4.037  -3.164   0.736  0.00  0.00    +0.140 C 
ENDBRANCH  23  25
ENDBRANCH  22  23
ENDBRANCH  18  22
ENDBRANCH   3  18
TORSDOF 8
