REMARK  Name = 445953
REMARK  8 active torsions:
REMARK  status: ('A' for Active; 'I' for Inactive)
REMARK    1  A    between atoms: N_1  and  C_22
REMARK    2  A    between atoms: N_2  and  C_13
REMARK    3  A    between atoms: C_19  and  O_25
REMARK    4  A    between atoms: O_25  and  C_26
REMARK    5  A    between atoms: C_26  and  C_27
REMARK    6  A    between atoms: C_27  and  O_28
REMARK    7  A    between atoms: C_27  and  C_30
REMARK    8  A    between atoms: C_30  and  N_31
REMARK                            x       y       z     vdW  Elec       q    Type
REMARK                         _______ _______ _______ _____ _____    ______ ____
ROOT
ATOM      1  N   UNL     1      -1.333  -3.168  -0.297  0.00  0.00    -0.247 N 
ATOM      2  N   UNL     1      -4.013   0.682   0.288  0.00  0.00    -0.287 N 
ATOM      3  N   UNL     1      -2.645  -1.246  -0.001  0.00  0.00    -0.322 NA
ATOM      4  N   UNL     1      -3.638  -3.325  -0.706  0.00  0.00    -0.170 NA
ATOM      5  C   UNL     1      -2.598  -2.551  -0.337  0.00  0.00    +0.150 C 
ATOM      6  C   UNL     1      -3.872  -0.686  -0.049  0.00  0.00    +0.198 C 
ATOM      7  C   UNL     1      -5.013  -1.372  -0.412  0.00  0.00    +0.070 C 
ATOM      8  C   UNL     1      -4.834  -2.702  -0.733  0.00  0.00    +0.116 C 
ATOM      9  H   UNL     1      -1.349  -4.119  -0.551  0.00  0.00    +0.165 HD
ATOM     10  H   UNL     1      -4.888   0.906   0.679  0.00  0.00    +0.155 HD
ENDROOT
BRANCH   2  13
ATOM     11 CL   UNL     1      -5.090   3.357   1.260  0.00  0.00    -0.081 Cl
ATOM     12 CL   UNL     1       0.579   2.409  -1.163  0.00  0.00    -0.082 Cl
ATOM     13  C   UNL     1      -3.146   1.781   0.172  0.00  0.00    +0.062 C 
ATOM     14  C   UNL     1      -3.527   3.062   0.585  0.00  0.00    +0.071 C 
ATOM     15  C   UNL     1      -1.871   1.585  -0.369  0.00  0.00    +0.027 C 
ATOM     16  C   UNL     1      -0.988   2.658  -0.496  0.00  0.00    +0.059 C 
ATOM     17  C   UNL     1      -2.644   4.135   0.458  0.00  0.00    +0.014 C 
ATOM     18  C   UNL     1      -1.375   3.932  -0.083  0.00  0.00    +0.012 C 
ENDBRANCH   2  13
BRANCH   1  22
ATOM     19  C   UNL     1       2.488  -1.753   0.687  0.00  0.00    +0.139 C 
ATOM     20  C   UNL     1       2.352  -2.782  -0.238  0.00  0.00    +0.038 C 
ATOM     21  C   UNL     1       1.368  -1.188   1.288  0.00  0.00    +0.038 C 
ATOM     22  C   UNL     1      -0.047  -2.691   0.034  0.00  0.00    +0.058 C 
ATOM     23  C   UNL     1       1.080  -3.253  -0.566  0.00  0.00    +0.018 C 
ATOM     24  C   UNL     1       0.097  -1.659   0.961  0.00  0.00    +0.018 C 
BRANCH  19  25
ATOM     25  O   UNL     1       3.736  -1.290   1.008  0.00  0.00    -0.473 OA
BRANCH  25  26
ATOM     26  C   UNL     1       3.834   0.080   1.385  0.00  0.00    +0.232 C 
BRANCH  26  27
ATOM     27  C   UNL     1       5.218   0.599   1.003  0.00  0.00    +0.133 C 
BRANCH  27  28
ATOM     28  O   UNL     1       6.203  -0.148   1.724  0.00  0.00    -0.383 OA
ATOM     29  H   UNL     1       7.088   0.172   1.489  0.00  0.00    +0.210 HD
ENDBRANCH  27  28
BRANCH  27  30
ATOM     30  C   UNL     1       5.522   0.471  -0.492  0.00  0.00    -0.044 C 
BRANCH  30  31
ATOM     31  N   UNL     1       4.602   1.254  -1.306  0.00  0.00    +0.386 N 
ATOM     32  C   UNL     1       4.955   1.155  -2.724  0.00  0.00    -0.101 C 
ATOM     33  C   UNL     1       4.601   2.656  -0.881  0.00  0.00    -0.101 C 
ATOM     34  H   UNL     1       3.664   0.875  -1.177  0.00  0.00    -0.080 HD
ENDBRANCH  30  31
ENDBRANCH  27  30
ENDBRANCH  26  27
ENDBRANCH  25  26
ENDBRANCH  19  25
ENDBRANCH   1  22
TORSDOF 8
