REMARK  Name = 5496779
REMARK  7 active torsions:
REMARK  status: ('A' for Active; 'I' for Inactive)
REMARK    1  A    between atoms: C_1  and  C_2
REMARK    2  A    between atoms: C_1  and  C_4
REMARK    3  A    between atoms: C_1  and  C_8
REMARK    4  A    between atoms: C_4  and  C_5
REMARK    5  A    between atoms: C_5  and  C_6
REMARK    6  A    between atoms: C_8  and  O_9
REMARK    7  A    between atoms: O_9  and  S_10
REMARK                            x       y       z     vdW  Elec       q    Type
REMARK                         _______ _______ _______ _____ _____    ______ ____
ROOT
ATOM      1  C   UNL     1      -0.618   0.057  -0.396  0.00  0.00    +0.032 C 
ENDROOT
BRANCH   1   2
ATOM      2  C   UNL     1      -0.677   1.578  -0.663  0.00  0.00    +0.003 C 
ATOM      3  C   UNL     1      -0.710   2.454   0.582  0.00  0.00    +0.000 C 
ENDBRANCH   1   2
BRANCH   1   4
ATOM      4  C   UNL     1      -1.834  -0.496   0.376  0.00  0.00    +0.003 C 
BRANCH   4   5
ATOM      5  C   UNL     1      -3.170  -0.264  -0.337  0.00  0.00    +0.000 C 
BRANCH   5   6
ATOM      6  C   UNL     1      -4.372  -0.801   0.445  0.00  0.00    +0.000 C 
ATOM      7  C   UNL     1      -5.704  -0.551  -0.246  0.00  0.00    +0.000 C 
ENDBRANCH   5   6
ENDBRANCH   4   5
ENDBRANCH   1   4
BRANCH   1   8
ATOM      8  C   UNL     1       0.675  -0.360   0.325  0.00  0.00    +0.177 C 
BRANCH   8   9
ATOM      9  O   UNL     1       1.808  -0.040  -0.472  0.00  0.00    -0.200 OA
BRANCH   9  10
ATOM     10  S   UNL     1       3.309  -0.385   0.076  0.00  0.00    +0.239 S 
ATOM     11  O   UNL     1       4.288   0.291  -1.040  0.00  0.00    -0.116 OA
ATOM     12  O   UNL     1       3.498   0.338   1.319  0.00  0.00    -0.022 OA
ATOM     13  O   UNL     1       3.507  -1.822   0.031  0.00  0.00    -0.116 OA
ENDBRANCH   9  10
ENDBRANCH   8   9
ENDBRANCH   1   8
TORSDOF 7
