REMARK  Name = 64993
REMARK  7 active torsions:
REMARK  status: ('A' for Active; 'I' for Inactive)
REMARK    1  A    between atoms: N_3  and  C_18
REMARK    2  A    between atoms: C_5  and  S_11
REMARK    3  A    between atoms: S_11  and  C_12
REMARK    4  A    between atoms: C_18  and  O_19
REMARK    5  A    between atoms: O_19  and  C_20
REMARK    6  A    between atoms: C_20  and  C_21
REMARK    7  A    between atoms: C_21  and  O_22
REMARK                            x       y       z     vdW  Elec       q    Type
REMARK                         _______ _______ _______ _____ _____    ______ ____
ROOT
ATOM      1  O   UNL     1      -3.781   0.225   0.689  0.00  0.00    -0.246 OA
ATOM      2  O   UNL     1      -1.106   3.916   0.925  0.00  0.00    -0.267 OA
ATOM      3  N   UNL     1      -1.750   0.174  -0.472  0.00  0.00    -0.250 N 
ATOM      4  N   UNL     1      -2.422   2.048   0.793  0.00  0.00    -0.275 N 
ATOM      5  C   UNL     1      -0.559   0.839  -0.811  0.00  0.00    +0.097 A 
ATOM      6  C   UNL     1      -0.282   2.082  -0.355  0.00  0.00    +0.056 A 
ATOM      7  C   UNL     1      -2.723   0.765   0.354  0.00  0.00    +0.333 A 
ATOM      8  C   UNL     1      -1.290   2.777   0.502  0.00  0.00    +0.259 A 
ATOM      9  C   UNL     1       0.936   2.922  -0.652  0.00  0.00    +0.038 C 
ATOM     10  H   UNL     1      -3.088   2.482   1.373  0.00  0.00    +0.173 HD
ENDROOT
BRANCH   5  11
ATOM     11  S   UNL     1       0.596  -0.014  -1.825  0.00  0.00    -0.070 S 
BRANCH  11  12
ATOM     12  C   UNL     1       1.955  -0.047  -0.678  0.00  0.00    +0.031 C 
ATOM     13  C   UNL     1       1.814  -0.679   0.560  0.00  0.00    +0.007 C 
ATOM     14  C   UNL     1       3.169   0.558  -1.011  0.00  0.00    +0.007 C 
ATOM     15  C   UNL     1       2.880  -0.706   1.459  0.00  0.00    +0.001 C 
ATOM     16  C   UNL     1       4.235   0.532  -0.112  0.00  0.00    +0.001 C 
ATOM     17  C   UNL     1       4.090  -0.100   1.123  0.00  0.00    +0.000 C 
ENDBRANCH  11  12
ENDBRANCH   5  11
BRANCH   3  18
ATOM     18  C   UNL     1      -1.986  -1.176  -0.995  0.00  0.00    +0.260 C 
BRANCH  18  19
ATOM     19  O   UNL     1      -1.457  -2.119  -0.074  0.00  0.00    -0.329 OA
BRANCH  19  20
ATOM     20  C   UNL     1      -1.623  -3.451  -0.539  0.00  0.00    +0.176 C 
BRANCH  20  21
ATOM     21  C   UNL     1      -1.042  -4.408   0.483  0.00  0.00    +0.169 C 
BRANCH  21  22
ATOM     22  O   UNL     1       0.346  -4.136   0.636  0.00  0.00    -0.379 OA
ATOM     23  H   UNL     1       0.725  -4.745   1.290  0.00  0.00    +0.211 HD
ENDBRANCH  21  22
ENDBRANCH  20  21
ENDBRANCH  19  20
ENDBRANCH  18  19
ENDBRANCH   3  18
TORSDOF 7
