REMARK  Name = 6914579
REMARK  7 active torsions:
REMARK  status: ('A' for Active; 'I' for Inactive)
REMARK    1  A    between atoms: N_2  and  C_7
REMARK    2  A    between atoms: C_3  and  C_11
REMARK    3  A    between atoms: C_11  and  C_12
REMARK    4  A    between atoms: C_12  and  C_13
REMARK    5  A    between atoms: C_13  and  C_14
REMARK    6  A    between atoms: C_14  and  C_15
REMARK    7  A    between atoms: C_15  and  C_16
REMARK                            x       y       z     vdW  Elec       q    Type
REMARK                         _______ _______ _______ _____ _____    ______ ____
ROOT
ATOM      1  O   UNL     1       0.764  -1.276   1.200  0.00  0.00    -0.275 OA
ATOM      2  N   UNL     1       1.959   0.196  -0.144  0.00  0.00    -0.297 N 
ATOM      3  C   UNL     1       0.802  -0.362   0.380  0.00  0.00    +0.223 C 
ATOM      4  H   UNL     1       1.874   0.927  -0.798  0.00  0.00    +0.150 HD
ENDROOT
BRANCH   2   7
ATOM      5  O   UNL     1       5.439   0.421  -0.372  0.00  0.00    -0.447 OA
ATOM      6  O   UNL     1       4.053   2.050   0.457  0.00  0.00    -0.248 OA
ATOM      7  C   UNL     1       3.269  -0.246   0.222  0.00  0.00    +0.175 C 
ATOM      8  C   UNL     1       3.853  -1.247  -0.746  0.00  0.00    +0.078 C 
ATOM      9  C   UNL     1       5.332  -0.985  -0.621  0.00  0.00    +0.211 C 
ATOM     10  C   UNL     1       4.250   0.892   0.121  0.00  0.00    +0.335 C 
ENDBRANCH   2   7
BRANCH   3  11
ATOM     11  C   UNL     1      -0.443   0.299  -0.187  0.00  0.00    +0.085 C 
BRANCH  11  12
ATOM     12  C   UNL     1      -1.730  -0.299   0.377  0.00  0.00    +0.010 C 
BRANCH  12  13
ATOM     13  C   UNL     1      -2.965   0.357  -0.239  0.00  0.00    +0.001 C 
BRANCH  13  14
ATOM     14  C   UNL     1      -4.255  -0.266   0.301  0.00  0.00    +0.000 C 
BRANCH  14  15
ATOM     15  C   UNL     1      -5.489   0.367  -0.345  0.00  0.00    +0.000 C 
BRANCH  15  16
ATOM     16  C   UNL     1      -6.807  -0.238   0.143  0.00  0.00    +0.000 C 
ATOM     17  C   UNL     1      -8.033   0.338  -0.548  0.00  0.00    +0.000 C 
ENDBRANCH  15  16
ENDBRANCH  14  15
ENDBRANCH  13  14
ENDBRANCH  12  13
ENDBRANCH  11  12
ENDBRANCH   3  11
TORSDOF 7
