REMARK  Name = 10457944
REMARK  11 active torsions:
REMARK  status: ('A' for Active; 'I' for Inactive)
REMARK    1  A    between atoms: C_1  and  C_22
REMARK    2  A    between atoms: C_3  and  C_9
REMARK    3  A    between atoms: C_10  and  C_11
REMARK    4  A    between atoms: C_15  and  O_18
REMARK    5  A    between atoms: C_16  and  O_20
REMARK    6  A    between atoms: C_22  and  C_23
REMARK    7  A    between atoms: C_23  and  C_24
REMARK    8  A    between atoms: C_25  and  C_26
REMARK    9  A    between atoms: C_26  and  C_30
REMARK   10  A    between atoms: C_26  and  C_34
REMARK   11  A    between atoms: C_26  and  O_35
REMARK                            x       y       z     vdW  Elec       q    Type
REMARK                         _______ _______ _______ _____ _____    ______ ____
ROOT
ATOM      1  C   UNL     1       0.342   1.218   0.310  0.00  0.00    +0.001 C 
ATOM      2  C   UNL     1      -0.827   0.196   0.047  0.00  0.00    +0.004 C 
ATOM      3  C   UNL     1      -2.003   1.156  -0.301  0.00  0.00    +0.022 C 
ATOM      4  C   UNL     1       0.136   2.262  -0.811  0.00  0.00    +0.000 C 
ATOM      5  C   UNL     1      -1.362   2.273  -1.137  0.00  0.00    +0.004 C 
ATOM      6  C   UNL     1       0.240   1.929   1.681  0.00  0.00    +0.000 C 
ATOM      7  C   UNL     1      -0.513  -0.761  -1.131  0.00  0.00    +0.000 C 
ATOM      8  C   UNL     1      -1.169  -0.677   1.267  0.00  0.00    +0.000 C 
ENDROOT
BRANCH   3   9
ATOM      9  C   UNL     1      -3.198   0.541  -0.956  0.00  0.00    -0.026 C 
ATOM     10  C   UNL     1      -4.434   0.581  -0.437  0.00  0.00    -0.005 C 
BRANCH  10  11
ATOM     11  C   UNL     1      -5.580  -0.016  -1.081  0.00  0.00    -0.009 C 
ATOM     12  C   UNL     1      -6.818   0.021  -0.566  0.00  0.00    -0.039 C 
ATOM     13  C   UNL     1      -7.995  -0.611  -1.260  0.00  0.00    +0.051 C 
ATOM     14  C   UNL     1      -7.104   0.661   0.774  0.00  0.00    +0.051 C 
ATOM     15  C   UNL     1      -8.664  -1.671  -0.372  0.00  0.00    +0.117 C 
ATOM     16  C   UNL     1      -8.316   0.037   1.486  0.00  0.00    +0.117 C 
ATOM     17  C   UNL     1      -8.478  -1.441   1.137  0.00  0.00    +0.059 C 
BRANCH  15  18
ATOM     18  O   UNL     1      -8.162  -2.965  -0.705  0.00  0.00    -0.384 OA
ATOM     19  H   UNL     1      -8.275  -3.121  -1.656  0.00  0.00    +0.210 HD
ENDBRANCH  15  18
BRANCH  16  20
ATOM     20  O   UNL     1      -9.509   0.729   1.118  0.00  0.00    -0.384 OA
ATOM     21  H   UNL     1      -9.417   1.670   1.336  0.00  0.00    +0.210 HD
ENDBRANCH  16  20
ENDBRANCH  10  11
ENDBRANCH   3   9
BRANCH   1  22
ATOM     22  C   UNL     1       1.750   0.607   0.223  0.00  0.00    +0.014 C 
BRANCH  22  23
ATOM     23  C   UNL     1       2.849   1.650   0.378  0.00  0.00    +0.076 C 
BRANCH  23  24
ATOM     24  C   UNL     1       4.193   1.064   0.284  0.00  0.00    -0.088 C 
ATOM     25  C   UNL     1       5.290   0.580   0.210  0.00  0.00    -0.049 C 
BRANCH  25  26
ATOM     26  C   UNL     1       6.632  -0.023   0.123  0.00  0.00    +0.318 C 
BRANCH  26  30
ATOM     27  F   UNL     1       6.773   0.368  -2.219  0.00  0.00    -0.166 F 
ATOM     28  F   UNL     1       8.093  -1.146  -1.377  0.00  0.00    -0.166 F 
ATOM     29  F   UNL     1       5.961  -1.551  -1.575  0.00  0.00    -0.166 F 
ATOM     30  C   UNL     1       6.864  -0.592  -1.271  0.00  0.00    +0.438 C 
ENDBRANCH  26  30
BRANCH  26  34
ATOM     31  F   UNL     1       5.894  -2.079   1.058  0.00  0.00    -0.166 F 
ATOM     32  F   UNL     1       6.663  -0.578   2.439  0.00  0.00    -0.166 F 
ATOM     33  F   UNL     1       8.030  -1.662   1.129  0.00  0.00    -0.166 F 
ATOM     34  C   UNL     1       6.806  -1.091   1.196  0.00  0.00    +0.438 C 
ENDBRANCH  26  34
BRANCH  26  35
ATOM     35  O   UNL     1       7.616   0.991   0.337  0.00  0.00    -0.363 OA
ATOM     36  H   UNL     1       7.520   1.681  -0.338  0.00  0.00    +0.212 HD
ENDBRANCH  26  35
ENDBRANCH  25  26
ENDBRANCH  23  24
ENDBRANCH  22  23
ENDBRANCH   1  22
TORSDOF 11
