REMARK  Name = 5288602
REMARK  7 active torsions:
REMARK  status: ('A' for Active; 'I' for Inactive)
REMARK    1  A    between atoms: C_1  and  C_4
REMARK    2  A    between atoms: C_1  and  N_16
REMARK    3  A    between atoms: C_1  and  C_24
REMARK    4  A    between atoms: N_3  and  C_7
REMARK    5  A    between atoms: C_8  and  C_14
REMARK    6  A    between atoms: C_17  and  O_19
REMARK    7  A    between atoms: O_19  and  C_20
REMARK                            x       y       z     vdW  Elec       q    Type
REMARK                         _______ _______ _______ _____ _____    ______ ____
ROOT
ATOM      1  C   UNL     1      -0.862  -0.856  -0.121  0.00  0.00    +0.151 C 
ENDROOT
BRANCH   1   4
ATOM      2  O   UNL     1      -0.013   1.144  -1.176  0.00  0.00    -0.273 OA
ATOM      3  N   UNL     1       1.457  -0.211   0.052  0.00  0.00    -0.282 N 
ATOM      4  C   UNL     1       0.230   0.149  -0.499  0.00  0.00    +0.244 C 
ATOM      5  H   UNL     1       1.466  -1.033   0.593  0.00  0.00    +0.155 HD
BRANCH   3   7
ATOM      6 CL   UNL     1       6.497   0.102   1.135  0.00  0.00    -0.082 Cl
ATOM      7  C   UNL     1       2.693   0.467  -0.075  0.00  0.00    +0.054 C 
ATOM      8  C   UNL     1       3.834  -0.025   0.539  0.00  0.00    +0.066 C 
ATOM      9  C   UNL     1       2.727   1.631  -0.829  0.00  0.00    +0.015 C 
ATOM     10  C   UNL     1       5.039   0.663   0.396  0.00  0.00    +0.062 C 
ATOM     11  C   UNL     1       3.932   2.319  -0.971  0.00  0.00    +0.002 C 
ATOM     12  C   UNL     1       5.088   1.835  -0.359  0.00  0.00    +0.012 C 
BRANCH   8  14
ATOM     13  O   UNL     1       3.421  -2.334   0.848  0.00  0.00    -0.283 OA
ATOM     14  C   UNL     1       3.769  -1.255   1.325  0.00  0.00    +0.236 C 
ENDBRANCH   8  14
ENDBRANCH   3   7
ENDBRANCH   1   4
BRANCH   1  16
ATOM     15  O   UNL     1      -3.122  -0.044   1.514  0.00  0.00    -0.226 OA
ATOM     16  N   UNL     1      -2.129  -0.330  -0.564  0.00  0.00    -0.264 N 
ATOM     17  C   UNL     1      -3.152   0.031   0.290  0.00  0.00    +0.402 C 
ATOM     18  H   UNL     1      -2.274  -0.223  -1.532  0.00  0.00    +0.153 HD
BRANCH  17  19
ATOM     19  O   UNL     1      -4.217   0.491  -0.432  0.00  0.00    -0.442 OA
BRANCH  19  20
ATOM     20  C   UNL     1      -5.357   0.904   0.330  0.00  0.00    +0.138 C 
ATOM     21  C   UNL     1      -4.934   2.039   1.262  0.00  0.00    +0.044 C 
ATOM     22  C   UNL     1      -6.420   1.385  -0.655  0.00  0.00    +0.044 C 
ATOM     23  C   UNL     1      -5.868  -0.294   1.129  0.00  0.00    +0.044 C 
ENDBRANCH  19  20
ENDBRANCH  17  19
ENDBRANCH   1  16
BRANCH   1  24
ATOM     24  C   UNL     1      -0.570  -2.269  -0.670  0.00  0.00    +0.027 C 
ATOM     25  C   UNL     1      -1.633  -3.299  -0.275  0.00  0.00    +0.002 C 
ATOM     26  C   UNL     1      -0.409  -2.245  -2.193  0.00  0.00    +0.002 C 
ENDBRANCH   1  24
TORSDOF 7
