REMARK  Name = 24875320
REMARK  6 active torsions:
REMARK  status: ('A' for Active; 'I' for Inactive)
REMARK    1  A    between atoms: C_1  and  N_22
REMARK    2  A    between atoms: C_3  and  C_10
REMARK    3  A    between atoms: N_9  and  C_12
REMARK    4  A    between atoms: C_14  and  C_21
REMARK    5  A    between atoms: N_22  and  C_25
REMARK    6  A    between atoms: C_28  and  C_32
REMARK                            x       y       z     vdW  Elec       q    Type
REMARK                         _______ _______ _______ _____ _____    ______ ____
ROOT
ATOM      1  C   UNL     1      -3.217   1.312  -0.168  0.00  0.00    +0.044 C 
ATOM      2  C   UNL     1      -3.983   2.354   0.354  0.00  0.00    -0.008 C 
ATOM      3  C   UNL     1      -1.219   2.643   0.109  0.00  0.00    +0.055 C 
ATOM      4  C   UNL     1      -1.835   1.457  -0.291  0.00  0.00    +0.019 C 
ATOM      5  C   UNL     1      -3.368   3.540   0.754  0.00  0.00    -0.003 C 
ATOM      6  C   UNL     1      -1.986   3.685   0.631  0.00  0.00    +0.004 C 
ATOM      7  C   UNL     1      -5.465   2.226   0.498  0.00  0.00    +0.032 C 
ENDROOT
BRANCH   3  10
ATOM      8  O   UNL     1       0.697   3.930  -0.178  0.00  0.00    -0.270 OA
ATOM      9  N   UNL     1       0.967   1.608   0.025  0.00  0.00    -0.280 N 
ATOM     10  C   UNL     1       0.221   2.794  -0.020  0.00  0.00    +0.250 C 
ATOM     11  H   UNL     1       0.449   0.781   0.157  0.00  0.00    +0.155 HD
BRANCH   9  12
ATOM     12  C   UNL     1       2.369   1.443  -0.096  0.00  0.00    +0.050 C 
ATOM     13  C   UNL     1       2.931   0.168  -0.025  0.00  0.00    +0.019 C 
ATOM     14  C   UNL     1       4.311   0.006  -0.144  0.00  0.00    +0.073 C 
ATOM     15  C   UNL     1       3.188   2.556  -0.286  0.00  0.00    +0.015 C 
ATOM     16  C   UNL     1       5.130   1.120  -0.334  0.00  0.00    +0.004 C 
ATOM     17  C   UNL     1       4.568   2.394  -0.405  0.00  0.00    +0.001 C 
BRANCH  14  21
ATOM     18  F   UNL     1       6.271  -1.364  -0.200  0.00  0.00    -0.166 F 
ATOM     19  F   UNL     1       4.665  -1.997   1.113  0.00  0.00    -0.166 F 
ATOM     20  F   UNL     1       4.445  -2.191  -1.042  0.00  0.00    -0.166 F 
ATOM     21  C   UNL     1       4.912  -1.356  -0.068  0.00  0.00    +0.419 C 
ENDBRANCH  14  21
ENDBRANCH   9  12
ENDBRANCH   3  10
BRANCH   1  22
ATOM     22  N   UNL     1      -3.823   0.104  -0.577  0.00  0.00    -0.312 N 
ATOM     23  H   UNL     1      -4.746   0.214  -0.902  0.00  0.00    +0.152 HD
BRANCH  22  25
ATOM     24  N   UNL     1      -3.439  -3.409  -1.648  0.00  0.00    -0.241 NA
ATOM     25  C   UNL     1      -3.366  -1.227  -0.611  0.00  0.00    +0.068 C 
ATOM     26  C   UNL     1      -2.428  -1.686   0.307  0.00  0.00    +0.022 C 
ATOM     27  C   UNL     1      -3.836  -2.120  -1.560  0.00  0.00    +0.113 C 
ATOM     28  C   UNL     1      -1.994  -3.006   0.248  0.00  0.00    +0.073 C 
ATOM     29  C   UNL     1      -2.526  -3.820  -0.739  0.00  0.00    +0.103 C 
BRANCH  28  32
ATOM     30  O   UNL     1      -0.545  -2.798   2.093  0.00  0.00    -0.270 OA
ATOM     31  N   UNL     1      -0.630  -4.849   1.071  0.00  0.00    -0.325 N 
ATOM     32  C   UNL     1      -1.016  -3.516   1.192  0.00  0.00    +0.244 C 
ATOM     33  H   UNL     1       0.031  -5.229   1.694  0.00  0.00    +0.145 HD
ATOM     34  H   UNL     1      -1.019  -5.412   0.363  0.00  0.00    +0.145 HD
ENDBRANCH  28  32
ENDBRANCH  22  25
ENDBRANCH   1  22
TORSDOF 6
