REMARK  Name = 24860536
REMARK  10 active torsions:
REMARK  status: ('A' for Active; 'I' for Inactive)
REMARK    1  A    between atoms: N_2  and  CA_5
REMARK    2  A    between atoms: C_3  and  C_14
REMARK    3  A    between atoms: CA_5  and  C_7
REMARK    4  A    between atoms: CA_5  and  C_10
REMARK    5  A    between atoms: C_7  and  O_8
REMARK    6  A    between atoms: C_10  and  C_11
REMARK    7  A    between atoms: C_11  and  S_12
REMARK    8  A    between atoms: C_14  and  C_15
REMARK    9  A    between atoms: C_15  and  C_16
REMARK   10  A    between atoms: C_16  and  C_17
REMARK                            x       y       z     vdW  Elec       q    Type
REMARK                         _______ _______ _______ _____ _____    ______ ____
ROOT
ATOM      1  O   UNL     1      -0.492  -0.011   1.781  0.00  0.00    -0.275 OA
ATOM      2  N   UNL     1       0.743   0.362  -0.147  0.00  0.00    -0.297 N 
ATOM      3  C   UNL     1      -0.428   0.148   0.565  0.00  0.00    +0.223 C 
ATOM      4  H   UNL     1       0.693   0.479  -1.123  0.00  0.00    +0.150 HD
ENDROOT
BRANCH   2   5
ATOM      5  CA  UNL     1       2.033   0.421   0.499  0.00  0.00    +0.172 C 
BRANCH   5   7
ATOM      6  OXT UNL     1       4.074   1.705   0.282  0.00  0.00    -0.248 OA
ATOM      7  C   UNL     1       2.966   1.425  -0.162  0.00  0.00    +0.332 C 
BRANCH   7   8
ATOM      8  O   UNL     1       2.452   2.032  -1.259  0.00  0.00    -0.479 OA
ATOM      9  H   UNL     1       1.601   1.793  -1.571  0.00  0.00    +0.295 HD
ENDBRANCH   7   8
ENDBRANCH   5   7
BRANCH   5  10
ATOM     10  C   UNL     1       2.671  -0.970   0.617  0.00  0.00    +0.042 C 
BRANCH  10  11
ATOM     11  C   UNL     1       3.099  -1.564  -0.727  0.00  0.00    +0.056 C 
BRANCH  11  12
ATOM     12  S   UNL     1       3.832  -3.209  -0.487  0.00  0.00    -0.168 S 
ATOM     13  H   UNL     1       4.206  -3.719  -1.691  0.00  0.00    +0.102 HD
ENDBRANCH  11  12
ENDBRANCH  10  11
ENDBRANCH   5  10
ENDBRANCH   2   5
BRANCH   3  14
ATOM     14  C   UNL     1      -1.647   0.159  -0.342  0.00  0.00    +0.085 C 
BRANCH  14  15
ATOM     15  C   UNL     1      -2.965  -0.074   0.395  0.00  0.00    +0.010 C 
BRANCH  15  16
ATOM     16  C   UNL     1      -4.177   0.016  -0.536  0.00  0.00    +0.001 C 
BRANCH  16  17
ATOM     17  C   UNL     1      -5.478  -0.249   0.222  0.00  0.00    +0.000 C 
ATOM     18  C   UNL     1      -6.684  -0.189  -0.702  0.00  0.00    +0.000 C 
ENDBRANCH  16  17
ENDBRANCH  15  16
ENDBRANCH  14  15
ENDBRANCH   3  14
TORSDOF 10
