REMARK  Name = 24798741
REMARK  2 active torsions:
REMARK  status: ('A' for Active; 'I' for Inactive)
REMARK    1  A    between atoms: C_1  and  N_7
REMARK    2  A    between atoms: C_2  and  C_22
REMARK                            x       y       z     vdW  Elec       q    Type
REMARK                         _______ _______ _______ _____ _____    ______ ____
ROOT
ATOM      1  C   UNL     1      -1.053   1.240  -0.256  0.00  0.00    +0.060 C 
ATOM      2  C   UNL     1      -2.312   0.670  -0.067  0.00  0.00    +0.089 C 
ATOM      3  C   UNL     1      -0.919   2.627  -0.331  0.00  0.00    +0.015 C 
ATOM      4  C   UNL     1      -3.437   1.488   0.049  0.00  0.00    +0.012 C 
ATOM      5  C   UNL     1      -2.044   3.443  -0.216  0.00  0.00    +0.001 C 
ATOM      6  C   UNL     1      -3.303   2.874  -0.026  0.00  0.00    +0.001 C 
ENDROOT
BRANCH   1   7
ATOM      7  N   UNL     1       0.102   0.439  -0.375  0.00  0.00    -0.300 N 
ATOM      8  N   UNL     1       4.500  -1.111  -0.212  0.00  0.00    -0.300 N 
ATOM      9  N   UNL     1       1.827   1.831   0.514  0.00  0.00    -0.233 NA
ATOM     10  N   UNL     1       4.151   1.116   0.644  0.00  0.00    -0.233 NA
ATOM     11  C   UNL     1       2.409  -0.332  -0.272  0.00  0.00    +0.131 C 
ATOM     12  C   UNL     1       1.452   0.655  -0.040  0.00  0.00    +0.117 C 
ATOM     13  C   UNL     1       3.716  -0.030   0.092  0.00  0.00    +0.117 C 
ATOM     14  C   UNL     1       2.423  -1.644  -0.811  0.00  0.00    +0.004 C 
ATOM     15  C   UNL     1       3.723  -2.099  -0.762  0.00  0.00    +0.059 C 
ATOM     16  C   UNL     1       3.135   1.986   0.818  0.00  0.00    +0.252 C 
ATOM     17  H   UNL     1      -0.070  -0.446  -0.770  0.00  0.00    +0.153 HD
ATOM     18  H   UNL     1       5.470  -1.170  -0.059  0.00  0.00    +0.153 HD
ENDBRANCH   1   7
BRANCH   2  22
ATOM     19  N   UNL     1      -1.499  -1.566   0.508  0.00  0.00    -0.337 NA
ATOM     20  N   UNL     1      -3.600  -1.372  -0.374  0.00  0.00    -0.113 NA
ATOM     21  N   UNL     1      -3.292  -2.651  -0.110  0.00  0.00    -0.204 N 
ATOM     22  C   UNL     1      -2.483  -0.756   0.018  0.00  0.00    +0.105 C 
ATOM     23  C   UNL     1      -2.042  -2.757   0.414  0.00  0.00    +0.188 C 
ATOM     24  C   UNL     1      -1.454  -4.052   0.795  0.00  0.00    +0.086 C 
ATOM     25  H   UNL     1      -3.894  -3.413  -0.274  0.00  0.00    +0.177 HD
ENDBRANCH   2  22
TORSDOF 2
