REMARK  Name = 708990
REMARK  6 active torsions:
REMARK  status: ('A' for Active; 'I' for Inactive)
REMARK    1  A    between atoms: N_2  and  C_5
REMARK    2  A    between atoms: C_3  and  C_15
REMARK    3  A    between atoms: C_6  and  C_12
REMARK    4  A    between atoms: C_12  and  O_13
REMARK    5  A    between atoms: C_15  and  O_16
REMARK    6  A    between atoms: O_16  and  C_18
REMARK                            x       y       z     vdW  Elec       q    Type
REMARK                         _______ _______ _______ _____ _____    ______ ____
ROOT
ATOM      1  O   UNL     1      -0.362  -2.078  -0.300  0.00  0.00    -0.271 OA
ATOM      2  N   UNL     1      -1.444   0.013  -0.223  0.00  0.00    -0.281 N 
ATOM      3  C   UNL     1      -0.366  -0.853  -0.362  0.00  0.00    +0.271 C 
ATOM      4  H   UNL     1      -1.256   0.976  -0.305  0.00  0.00    +0.155 HD
ENDROOT
BRANCH   2   5
ATOM      5  C   UNL     1      -2.769  -0.357   0.022  0.00  0.00    +0.057 C 
ATOM      6  C   UNL     1      -3.772   0.604   0.145  0.00  0.00    +0.089 C 
ATOM      7  C   UNL     1      -3.081  -1.711   0.147  0.00  0.00    +0.015 C 
ATOM      8  C   UNL     1      -5.088   0.212   0.391  0.00  0.00    +0.008 C 
ATOM      9  C   UNL     1      -4.397  -2.103   0.393  0.00  0.00    +0.001 C 
ATOM     10  C   UNL     1      -5.400  -1.142   0.515  0.00  0.00    +0.000 C 
BRANCH   6  12
ATOM     11  O   UNL     1      -2.412   2.564   0.321  0.00  0.00    -0.245 OA
ATOM     12  C   UNL     1      -3.481   2.027   0.021  0.00  0.00    +0.339 C 
BRANCH  12  13
ATOM     13  O   UNL     1      -4.534   2.730  -0.474  0.00  0.00    -0.477 OA
ATOM     14  H   UNL     1      -5.332   2.288  -0.691  0.00  0.00    +0.295 HD
ENDBRANCH  12  13
ENDBRANCH   6  12
ENDBRANCH   2   5
BRANCH   3  15
ATOM     15  C   UNL     1       0.910  -0.072  -0.621  0.00  0.00    +0.290 C 
BRANCH  15  16
ATOM     16  O   UNL     1       2.011  -0.943  -0.777  0.00  0.00    -0.466 OA
BRANCH  16  18
ATOM     17 CL   UNL     1       7.277   1.076   0.857  0.00  0.00    -0.082 Cl
ATOM     18  C   UNL     1       3.244  -0.470  -0.394  0.00  0.00    +0.139 C 
ATOM     19  C   UNL     1       3.512   0.889  -0.481  0.00  0.00    +0.038 C 
ATOM     20  C   UNL     1       4.202  -1.359   0.074  0.00  0.00    +0.038 C 
ATOM     21  C   UNL     1       4.763   1.368  -0.093  0.00  0.00    +0.015 C 
ATOM     22  C   UNL     1       5.453  -0.880   0.462  0.00  0.00    +0.015 C 
ATOM     23  C   UNL     1       5.734   0.484   0.378  0.00  0.00    +0.058 C 
ENDBRANCH  16  18
ENDBRANCH  15  16
ENDBRANCH   3  15
TORSDOF 6
