REMARK  Name = 5288190
REMARK  8 active torsions:
REMARK  status: ('A' for Active; 'I' for Inactive)
REMARK    1  A    between atoms: N_2  and  CA_15
REMARK    2  A    between atoms: C_3  and  CA_5
REMARK    3  A    between atoms: CA_5  and  N_7
REMARK    4  A    between atoms: CA_5  and  CB_11
REMARK    5  A    between atoms: CB_11  and  CG_12
REMARK    6  A    between atoms: CA_15  and  C_17
REMARK    7  A    between atoms: CA_15  and  CB_18
REMARK    8  A    between atoms: CB_18  and  CG_19
REMARK                            x       y       z     vdW  Elec       q    Type
REMARK                         _______ _______ _______ _____ _____    ______ ____
ROOT
ATOM      1  O   LEU A   1      -0.388   0.355   1.833  0.00  0.00    -0.273 OA
ATOM      2  N   PHE A   2      -0.040   1.334  -0.244  0.00  0.00    -0.298 N 
ATOM      3  C   LEU A   1      -0.740   0.563   0.674  0.00  0.00    +0.241 C 
ATOM      4  H   PHE A   2      -0.413   1.436  -1.150  0.00  0.00    +0.150 HD
ENDROOT
BRANCH   3   5
ATOM      5  CA  LEU A   1      -1.992  -0.059   0.063  0.00  0.00    +0.149 C 
BRANCH   5   7
ATOM      6  O   UNK A   0      -0.776  -2.525  -0.873  0.00  0.00    -0.275 OA
ATOM      7  N   LEU A   1      -2.132  -1.375   0.631  0.00  0.00    -0.298 N 
ATOM      8  C   UNK A   0      -1.510  -2.500   0.113  0.00  0.00    +0.223 C 
ATOM      9  C   UNK A   0      -1.805  -3.740   0.913  0.00  0.00    +0.095 C 
ATOM     10  H   LEU A   1      -2.699  -1.480   1.429  0.00  0.00    +0.150 HD
ENDBRANCH   5   7
BRANCH   5  11
ATOM     11  CB  LEU A   1      -3.213   0.826   0.339  0.00  0.00    +0.029 C 
BRANCH  11  12
ATOM     12  CG  LEU A   1      -4.550   0.270  -0.194  0.00  0.00    +0.002 C 
ATOM     13  CD1 LEU A   1      -4.468   0.098  -1.714  0.00  0.00    +0.000 C 
ATOM     14  CD2 LEU A   1      -5.737   1.167   0.160  0.00  0.00    +0.000 C 
ENDBRANCH  11  12
ENDBRANCH   5  11
ENDBRANCH   3   5
BRANCH   2  15
ATOM     15  CA  PHE A   2       1.208   1.994   0.063  0.00  0.00    +0.141 C 
BRANCH  15  17
ATOM     16  O   PHE A   2       1.740   4.341   0.295  0.00  0.00    -0.286 OA
ATOM     17  C   PHE A   2       0.923   3.478  -0.018  0.00  0.00    +0.227 C 
ENDBRANCH  15  17
BRANCH  15  18
ATOM     18  CB  PHE A   2       2.334   1.587  -0.888  0.00  0.00    +0.054 C 
BRANCH  18  19
ATOM     19  CG  PHE A   2       2.953   0.259  -0.526  0.00  0.00    -0.020 C 
ATOM     20  CD1 PHE A   2       4.039   0.210   0.347  0.00  0.00    -0.004 C 
ATOM     21  CD2 PHE A   2       2.438  -0.920  -1.066  0.00  0.00    -0.004 C 
ATOM     22  CE1 PHE A   2       4.611  -1.018   0.681  0.00  0.00    -0.000 C 
ATOM     23  CE2 PHE A   2       3.010  -2.148  -0.731  0.00  0.00    -0.000 C 
ATOM     24  CZ  PHE A   2       4.096  -2.196   0.142  0.00  0.00    -0.000 C 
ENDBRANCH  18  19
ENDBRANCH  15  18
ENDBRANCH   2  15
TORSDOF 8
