REMARK  Name = 6914614
REMARK  7 active torsions:
REMARK  status: ('A' for Active; 'I' for Inactive)
REMARK    1  A    between atoms: O_1  and  C_4
REMARK    2  A    between atoms: O_1  and  C_18
REMARK    3  A    between atoms: C_9  and  C_13
REMARK    4  A    between atoms: C_18  and  C_19
REMARK    5  A    between atoms: C_19  and  N_20
REMARK    6  A    between atoms: C_19  and  C_24
REMARK    7  A    between atoms: C_24  and  C_26
REMARK                            x       y       z     vdW  Elec       q    Type
REMARK                         _______ _______ _______ _____ _____    ______ ____
ROOT
ATOM      1  O   UNL     1      -1.683   2.360  -0.556  0.00  0.00    -0.476 OA
ENDROOT
BRANCH   1   4
ATOM      2  N   UNL     1       2.601   0.820   1.055  0.00  0.00    -0.404 NA
ATOM      3  N   UNL     1      -0.223   2.380   2.764  0.00  0.00    -0.258 NA
ATOM      4  C   UNL     1      -0.767   2.156   0.428  0.00  0.00    +0.159 C 
ATOM      5  C   UNL     1       0.480   1.567   0.183  0.00  0.00    +0.063 C 
ATOM      6  C   UNL     1       1.389   1.381   1.238  0.00  0.00    +0.136 C 
ATOM      7  C   UNL     1       0.864   1.149  -1.098  0.00  0.00    +0.008 C 
ATOM      8  C   UNL     1      -1.065   2.540   1.723  0.00  0.00    +0.130 C 
ATOM      9  C   UNL     1       2.934   0.429  -0.197  0.00  0.00    +0.131 C 
ATOM     10  C   UNL     1       2.110   0.569  -1.296  0.00  0.00    +0.032 C 
ATOM     11  C   UNL     1       0.973   1.808   2.488  0.00  0.00    +0.184 C 
BRANCH   9  13
ATOM     12  N   UNL     1       6.786  -1.310  -0.557  0.00  0.00    -0.242 NA
ATOM     13  C   UNL     1       4.245  -0.163  -0.319  0.00  0.00    +0.033 C 
ATOM     14  C   UNL     1       5.351   0.636  -0.593  0.00  0.00    +0.023 C 
ATOM     15  C   UNL     1       4.411  -1.536  -0.165  0.00  0.00    +0.023 C 
ATOM     16  C   UNL     1       6.588   0.020  -0.700  0.00  0.00    +0.099 C 
ATOM     17  C   UNL     1       5.690  -2.055  -0.292  0.00  0.00    +0.099 C 
ENDBRANCH   9  13
ENDBRANCH   1   4
BRANCH   1  18
ATOM     18  C   UNL     1      -3.060   2.328  -0.181  0.00  0.00    +0.184 C 
BRANCH  18  19
ATOM     19  C   UNL     1      -3.947   1.799  -1.315  0.00  0.00    -0.017 C 
BRANCH  19  20
ATOM     20  N   UNL     1      -3.815   2.695  -2.470  0.00  0.00    +0.384 N 
ATOM     21  H   UNL     1      -4.401   2.355  -3.233  0.00  0.00    -0.089 HD
ATOM     22  H   UNL     1      -2.842   2.718  -2.773  0.00  0.00    -0.089 HD
ATOM     23  H   UNL     1      -4.112   3.635  -2.207  0.00  0.00    -0.089 HD
ENDBRANCH  19  20
BRANCH  19  24
ATOM     24  C   UNL     1      -3.602   0.366  -1.765  0.00  0.00    +0.009 C 
BRANCH  24  26
ATOM     25  N   UNL     1      -4.597  -1.797   1.003  0.00  0.00    -0.312 N 
ATOM     26  C   UNL     1      -3.762  -0.660  -0.679  0.00  0.00    -0.008 C 
ATOM     27  C   UNL     1      -2.846  -1.684  -0.374  0.00  0.00    +0.011 C 
ATOM     28  C   UNL     1      -3.395  -2.394   0.696  0.00  0.00    +0.048 C 
ATOM     29  C   UNL     1      -4.826  -0.738   0.166  0.00  0.00    +0.058 C 
ATOM     30  C   UNL     1      -1.600  -2.093  -0.891  0.00  0.00    +0.001 C 
ATOM     31  C   UNL     1      -2.759  -3.497   1.277  0.00  0.00    +0.015 C 
ATOM     32  C   UNL     1      -0.952  -3.194  -0.320  0.00  0.00    +0.000 C 
ATOM     33  C   UNL     1      -1.524  -3.884   0.748  0.00  0.00    +0.001 C 
ATOM     34  H   UNL     1      -5.204  -2.090   1.720  0.00  0.00    +0.152 HD
ENDBRANCH  24  26
ENDBRANCH  19  24
ENDBRANCH  18  19
ENDBRANCH   1  18
TORSDOF 7
