REMARK  Name = 10172821
REMARK  12 active torsions:
REMARK  status: ('A' for Active; 'I' for Inactive)
REMARK    1  A    between atoms: C_1  and  C_2
REMARK    2  A    between atoms: C_1  and  C_17
REMARK    3  A    between atoms: C_1  and  C_20
REMARK    4  A    between atoms: C_5  and  N_8
REMARK    5  A    between atoms: N_8  and  C_11
REMARK    6  A    between atoms: C_17  and  O_18
REMARK    7  A    between atoms: C_20  and  P_21
REMARK    8  A    between atoms: P_21  and  O_23
REMARK    9  A    between atoms: P_21  and  C_25
REMARK   10  A    between atoms: C_25  and  C_26
REMARK   11  A    between atoms: C_26  and  C_27
REMARK   12  A    between atoms: C_27  and  C_28
REMARK                            x       y       z     vdW  Elec       q    Type
REMARK                         _______ _______ _______ _____ _____    ______ ____
ROOT
ATOM      1  C   UNL     1       2.786   1.106   0.633  0.00  0.00    +0.131 C 
ENDROOT
BRANCH   1   2
ATOM      2  C   UNL     1       2.622  -0.258  -0.019  0.00  0.00    -0.010 C 
ATOM      3  C   UNL     1       1.650  -1.143   0.450  0.00  0.00    +0.015 C 
ATOM      4  C   UNL     1       3.442  -0.624  -1.086  0.00  0.00    -0.004 C 
ATOM      5  C   UNL     1       1.499  -2.394  -0.149  0.00  0.00    +0.084 C 
ATOM      6  C   UNL     1       3.291  -1.875  -1.685  0.00  0.00    +0.001 C 
ATOM      7  C   UNL     1       2.320  -2.760  -1.216  0.00  0.00    +0.019 C 
BRANCH   5   8
ATOM      8  N   UNL     1       0.526  -3.281   0.320  0.00  0.00    -0.214 NA
BRANCH   8  11
ATOM      9  N   UNL     1      -1.124  -2.398  -1.200  0.00  0.00    -0.370 N 
ATOM     10  N   UNL     1      -1.662  -4.094   0.229  0.00  0.00    -0.370 N 
ATOM     11  C   UNL     1      -0.676  -3.239  -0.204  0.00  0.00    +0.193 C 
ATOM     12  H   UNL     1      -0.513  -1.736  -1.597  0.00  0.00    +0.159 HD
ATOM     13  H   UNL     1      -2.054  -2.460  -1.515  0.00  0.00    +0.159 HD
ATOM     14  H   UNL     1      -1.470  -4.747   0.941  0.00  0.00    +0.159 HD
ATOM     15  H   UNL     1      -2.560  -4.053  -0.172  0.00  0.00    +0.159 HD
ENDBRANCH   8  11
ENDBRANCH   5   8
ENDBRANCH   1   2
BRANCH   1  17
ATOM     16  O   UNL     1       3.346  -0.064   2.706  0.00  0.00    -0.250 OA
ATOM     17  C   UNL     1       3.207   0.986   2.091  0.00  0.00    +0.318 C 
BRANCH  17  18
ATOM     18  O   UNL     1       3.422   2.201   2.663  0.00  0.00    -0.480 OA
ATOM     19  H   UNL     1       3.305   2.983   2.160  0.00  0.00    +0.295 HD
ENDBRANCH  17  18
ENDBRANCH   1  17
BRANCH   1  20
ATOM     20  C   UNL     1       1.530   1.978   0.524  0.00  0.00    +0.102 C 
BRANCH  20  21
ATOM     21  P   UNL     1       1.044   2.290  -1.150  0.00  0.00    +0.220 P 
ATOM     22  O   UNL     1       0.827   1.075  -1.983  0.00  0.00    -0.290 OA
BRANCH  21  23
ATOM     23  O   UNL     1       2.176   3.297  -1.698  0.00  0.00    -0.343 OA
ATOM     24  H   UNL     1       3.016   2.820  -1.790  0.00  0.00    +0.218 HD
ENDBRANCH  21  23
BRANCH  21  25
ATOM     25  C   UNL     1      -0.410   3.357  -1.053  0.00  0.00    +0.087 C 
BRANCH  25  26
ATOM     26  C   UNL     1      -1.580   2.734  -0.299  0.00  0.00    +0.015 C 
BRANCH  26  27
ATOM     27  C   UNL     1      -2.107   1.435  -0.919  0.00  0.00    +0.027 C 
BRANCH  27  28
ATOM     28  C   UNL     1      -3.275   0.834  -0.178  0.00  0.00    -0.022 C 
ATOM     29  C   UNL     1      -3.051  -0.081   0.851  0.00  0.00    -0.004 C 
ATOM     30  C   UNL     1      -4.578   1.194  -0.522  0.00  0.00    -0.004 C 
ATOM     31  C   UNL     1      -4.131  -0.637   1.536  0.00  0.00    -0.000 C 
ATOM     32  C   UNL     1      -5.658   0.638   0.164  0.00  0.00    -0.000 C 
ATOM     33  C   UNL     1      -5.435  -0.278   1.193  0.00  0.00    -0.000 C 
ENDBRANCH  27  28
ENDBRANCH  26  27
ENDBRANCH  25  26
ENDBRANCH  21  25
ENDBRANCH  20  21
ENDBRANCH   1  20
TORSDOF 12
