REMARK  Name = 1510981
REMARK  2 active torsions:
REMARK  status: ('A' for Active; 'I' for Inactive)
REMARK    1  A    between atoms: N_1  and  C_10
REMARK    2  A    between atoms: C_8  and  N_17
REMARK                            x       y       z     vdW  Elec       q    Type
REMARK                         _______ _______ _______ _____ _____    ______ ____
ROOT
ATOM      1  N   UNL     1       0.126  -0.923  -0.098  0.00  0.00    -0.265 N 
ATOM      2  N   UNL     1      -1.606  -2.281  -0.409  0.00  0.00    -0.250 NA
ATOM      3  C   UNL     1      -0.987  -0.131   0.021  0.00  0.00    +0.067 C 
ATOM      4  C   UNL     1      -2.055  -1.001  -0.178  0.00  0.00    +0.075 C 
ATOM      5  C   UNL     1      -0.296  -2.199  -0.354  0.00  0.00    +0.224 C 
ATOM      6  C   UNL     1      -1.146   1.232   0.276  0.00  0.00    +0.017 C 
ATOM      7  C   UNL     1      -3.366  -0.500  -0.121  0.00  0.00    +0.087 C 
ATOM      8  C   UNL     1      -3.550   0.864   0.134  0.00  0.00    +0.025 C 
ATOM      9  C   UNL     1      -2.458   1.713   0.329  0.00  0.00    +0.011 C 
ENDROOT
BRANCH   1  10
ATOM     10  C   UNL     1       1.455  -0.520   0.019  0.00  0.00    +0.053 C 
ATOM     11  C   UNL     1       1.815   0.773  -0.339  0.00  0.00    +0.011 C 
ATOM     12  C   UNL     1       2.405  -1.417   0.492  0.00  0.00    +0.015 C 
ATOM     13  C   UNL     1       3.145   1.175  -0.223  0.00  0.00    -0.021 C 
ATOM     14  C   UNL     1       3.735  -1.015   0.608  0.00  0.00    +0.001 C 
ATOM     15  C   UNL     1       4.105   0.281   0.251  0.00  0.00    -0.004 C 
ATOM     16  C   UNL     1       3.541   2.562  -0.605  0.00  0.00    +0.031 C 
ENDBRANCH   1  10
BRANCH   8  17
ATOM     17  N   UNL     1      -4.861   1.388   0.196  0.00  0.00    -0.360 N 
ATOM     18  H   UNL     1      -5.635   0.794   0.059  0.00  0.00    +0.142 HD
ATOM     19  H   UNL     1      -5.001   2.346   0.375  0.00  0.00    +0.142 HD
ENDBRANCH   8  17
TORSDOF 2
