REMARK  Name = 16040323
REMARK  5 active torsions:
REMARK  status: ('A' for Active; 'I' for Inactive)
REMARK    1  A    between atoms: C_1  and  C_2
REMARK    2  A    between atoms: C_1  and  C_16
REMARK    3  A    between atoms: C_5  and  C_8
REMARK    4  A    between atoms: C_11  and  O_14
REMARK    5  A    between atoms: C_16  and  C_21
REMARK                            x       y       z     vdW  Elec       q    Type
REMARK                         _______ _______ _______ _____ _____    ______ ____
ROOT
ATOM      1  C   UNL     1      -1.514   1.637  -0.848  0.00  0.00    +0.028 C 
ENDROOT
BRANCH   1   2
ATOM      2  C   UNL     1      -0.123   1.883  -0.323  0.00  0.00    -0.022 C 
ATOM      3  C   UNL     1       0.810   0.857  -0.356  0.00  0.00    -0.004 C 
ATOM      4  C   UNL     1       0.203   3.132   0.186  0.00  0.00    -0.004 C 
ATOM      5  C   UNL     1       2.098   1.085   0.130  0.00  0.00    -0.000 C 
ATOM      6  C   UNL     1       1.490   3.360   0.672  0.00  0.00    -0.000 C 
ATOM      7  C   UNL     1       2.438   2.336   0.644  0.00  0.00    -0.000 C 
BRANCH   5   8
ATOM      8  C   UNL     1       3.081   0.024   0.101  0.00  0.00    +0.003 C 
ATOM      9  C   UNL     1       4.435   0.331  -0.029  0.00  0.00    +0.037 C 
ATOM     10  C   UNL     1       2.674  -1.306   0.204  0.00  0.00    +0.000 C 
ATOM     11  C   UNL     1       5.383  -0.692  -0.056  0.00  0.00    +0.139 C 
ATOM     12  C   UNL     1       3.622  -2.329   0.176  0.00  0.00    +0.003 C 
ATOM     13  C   UNL     1       4.976  -2.022   0.047  0.00  0.00    +0.037 C 
BRANCH  11  14
ATOM     14  O   UNL     1       6.705  -0.393  -0.183  0.00  0.00    -0.471 OA
ATOM     15  C   UNL     1       7.619  -1.488  -0.204  0.00  0.00    +0.252 C 
ENDBRANCH  11  14
ENDBRANCH   5   8
ENDBRANCH   1   2
BRANCH   1  16
ATOM     16  C   UNL     1      -2.436   1.129   0.254  0.00  0.00    +0.028 C 
BRANCH  16  21
ATOM     17  O   UNL     1      -4.612  -1.285   2.453  0.00  0.00    -0.274 OA
ATOM     18  N   UNL     1      -3.786  -0.096  -1.367  0.00  0.00    -0.247 NA
ATOM     19  N   UNL     1      -4.079  -1.822   0.234  0.00  0.00    -0.231 N 
ATOM     20  N   UNL     1      -3.712  -2.281  -2.093  0.00  0.00    -0.331 N 
ATOM     21  C   UNL     1      -3.854   0.890  -0.286  0.00  0.00    +0.096 C 
ATOM     22  C   UNL     1      -4.811   0.424   0.804  0.00  0.00    +0.108 C 
ATOM     23  C   UNL     1      -4.380   2.194  -0.901  0.00  0.00    +0.025 C 
ATOM     24  C   UNL     1      -4.471  -0.967   1.274  0.00  0.00    +0.233 C 
ATOM     25  C   UNL     1      -3.857  -1.361  -1.081  0.00  0.00    +0.183 C 
ATOM     26  C   UNL     1      -3.901  -3.238   0.550  0.00  0.00    +0.123 C 
ATOM     27  H   UNL     1      -3.556  -1.977  -3.017  0.00  0.00    +0.145 HD
ATOM     28  H   UNL     1      -3.763  -3.244  -1.894  0.00  0.00    +0.145 HD
ENDBRANCH  16  21
ENDBRANCH   1  16
TORSDOF 5
