REMARK  Name = 46937091
REMARK  8 active torsions:
REMARK  status: ('A' for Active; 'I' for Inactive)
REMARK    1  A    between atoms: C_1  and  C_4
REMARK    2  A    between atoms: C_1  and  C_18
REMARK    3  A    between atoms: C_10  and  C_12
REMARK    4  A    between atoms: C_18  and  C_19
REMARK    5  A    between atoms: C_19  and  N_20
REMARK    6  A    between atoms: C_19  and  C_30
REMARK    7  A    between atoms: C_24  and  C_27
REMARK    8  A    between atoms: C_30  and  O_32
REMARK                            x       y       z     vdW  Elec       q    Type
REMARK                         _______ _______ _______ _____ _____    ______ ____
ROOT
ATOM      1  C   UNL     1      -2.244  -1.156   1.750  0.00  0.00    +0.031 C 
ENDROOT
BRANCH   1   4
ATOM      2  O   UNL     1       0.597  -1.284   0.626  0.00  0.00    -0.425 OA
ATOM      3  N   UNL     1       1.464  -2.828  -0.788  0.00  0.00    -0.368 NA
ATOM      4  C   UNL     1      -1.692  -2.197   0.810  0.00  0.00    +0.014 C 
ATOM      5  C   UNL     1      -0.384  -2.189   0.339  0.00  0.00    +0.170 C 
ATOM      6  C   UNL     1      -2.493  -3.249   0.353  0.00  0.00    -0.005 C 
ATOM      7  C   UNL     1       0.150  -3.133  -0.526  0.00  0.00    +0.151 C 
ATOM      8  C   UNL     1      -1.993  -4.222  -0.521  0.00  0.00    -0.019 C 
ATOM      9  C   UNL     1      -0.666  -4.181  -0.974  0.00  0.00    +0.088 C 
ATOM     10  C   UNL     1       1.667  -1.736  -0.085  0.00  0.00    +0.282 C 
BRANCH  10  12
ATOM     11 CL   UNL     1       6.609   1.531   0.439  0.00  0.00    -0.082 Cl
ATOM     12  C   UNL     1       2.861  -0.946   0.042  0.00  0.00    +0.066 C 
ATOM     13  C   UNL     1       4.018  -1.317  -0.643  0.00  0.00    +0.007 C 
ATOM     14  C   UNL     1       2.863   0.191   0.849  0.00  0.00    +0.007 C 
ATOM     15  C   UNL     1       5.177  -0.551  -0.520  0.00  0.00    +0.012 C 
ATOM     16  C   UNL     1       4.022   0.957   0.972  0.00  0.00    +0.012 C 
ATOM     17  C   UNL     1       5.179   0.586   0.287  0.00  0.00    +0.058 C 
ENDBRANCH  10  12
ENDBRANCH   1   4
BRANCH   1  18
ATOM     18  C   UNL     1      -3.509  -0.445   1.239  0.00  0.00    +0.023 C 
BRANCH  18  19
ATOM     19  C   UNL     1      -3.325   0.365  -0.072  0.00  0.00    +0.087 C 
BRANCH  19  20
ATOM     20  N   UNL     1      -2.253   1.441   0.046  0.00  0.00    -0.246 NA
ATOM     21  N   UNL     1      -1.205   3.264   0.760  0.00  0.00    -0.251 NA
ATOM     22  C   UNL     1      -1.095   1.512  -0.674  0.00  0.00    +0.125 C 
ATOM     23  C   UNL     1      -2.276   2.513   0.894  0.00  0.00    +0.201 C 
ATOM     24  C   UNL     1      -0.464   2.645  -0.216  0.00  0.00    +0.124 C 
BRANCH  24  27
ATOM     25  O   UNL     1       1.461   2.591  -1.572  0.00  0.00    -0.269 OA
ATOM     26  N   UNL     1       1.292   4.328  -0.085  0.00  0.00    -0.324 N 
ATOM     27  C   UNL     1       0.795   3.152  -0.666  0.00  0.00    +0.257 C 
ATOM     28  H   UNL     1       2.157   4.696  -0.379  0.00  0.00    +0.145 HD
ATOM     29  H   UNL     1       0.776   4.786   0.617  0.00  0.00    +0.145 HD
ENDBRANCH  24  27
ENDBRANCH  19  20
BRANCH  19  30
ATOM     30  C   UNL     1      -4.689   0.921  -0.563  0.00  0.00    +0.125 C 
ATOM     31  C   UNL     1      -4.615   1.636  -1.908  0.00  0.00    +0.033 C 
BRANCH  30  32
ATOM     32  O   UNL     1      -5.256   1.800   0.406  0.00  0.00    -0.383 OA
ATOM     33  H   UNL     1      -5.304   1.348   1.263  0.00  0.00    +0.210 HD
ENDBRANCH  30  32
ENDBRANCH  19  30
ENDBRANCH  18  19
ENDBRANCH   1  18
TORSDOF 8
