REMARK  Name = 16105493
REMARK  3 active torsions:
REMARK  status: ('A' for Active; 'I' for Inactive)
REMARK    1  A    between atoms: N_3  and  C_14
REMARK    2  A    between atoms: C_5  and  C_13
REMARK    3  A    between atoms: C_14  and  C_17
REMARK                            x       y       z     vdW  Elec       q    Type
REMARK                         _______ _______ _______ _____ _____    ______ ____
ROOT
ATOM      1  S   UNL     1      -1.835  -1.169  -1.286  0.00  0.00    -0.043 S 
ATOM      2  O   UNL     1      -2.347   0.393   2.183  0.00  0.00    -0.213 OA
ATOM      3  N   UNL     1       0.718  -1.608  -0.689  0.00  0.00    -0.301 N 
ATOM      4  N   UNL     1      -0.661  -0.567   0.948  0.00  0.00    -0.314 NA
ATOM      5  C   UNL     1      -2.895  -0.376  -0.035  0.00  0.00    +0.236 C 
ATOM      6  C   UNL     1      -0.454  -1.099  -0.213  0.00  0.00    +0.221 C 
ATOM      7  C   UNL     1      -1.958  -0.139   1.146  0.00  0.00    +0.198 C 
ATOM      8  C   UNL     1      -4.023  -1.323   0.363  0.00  0.00    +0.038 C 
ATOM      9  H   UNL     1       0.735  -1.985  -1.598  0.00  0.00    +0.150 HD
ENDROOT
BRANCH   5  13
ATOM     10  F   UNL     1      -2.404   1.723  -0.978  0.00  0.00    -0.168 F 
ATOM     11  F   UNL     1      -4.247   0.736  -1.608  0.00  0.00    -0.168 F 
ATOM     12  F   UNL     1      -4.100   1.599   0.392  0.00  0.00    -0.168 F 
ATOM     13  C   UNL     1      -3.424   0.951  -0.570  0.00  0.00    +0.420 C 
ENDBRANCH   5  13
BRANCH   3  14
ATOM     14  C   UNL     1       1.925  -1.614   0.084  0.00  0.00    +0.096 C 
ATOM     15  C   UNL     1       2.758  -2.855  -0.231  0.00  0.00    +0.026 C 
BRANCH  14  17
ATOM     16  F   UNL     1       2.405   0.236   2.182  0.00  0.00    -0.204 F 
ATOM     17  C   UNL     1       2.705  -0.331  -0.104  0.00  0.00    +0.023 C 
ATOM     18  C   UNL     1       2.903   0.533   0.973  0.00  0.00    +0.138 C 
ATOM     19  C   UNL     1       3.226  -0.012  -1.358  0.00  0.00    -0.000 C 
ATOM     20  C   UNL     1       3.622   1.715   0.796  0.00  0.00    +0.029 C 
ATOM     21  C   UNL     1       3.945   1.170  -1.535  0.00  0.00    -0.000 C 
ATOM     22  C   UNL     1       4.142   2.034  -0.458  0.00  0.00    +0.002 C 
ENDBRANCH  14  17
ENDBRANCH   3  14
TORSDOF 3
