REMARK  Name = 11349402
REMARK  6 active torsions:
REMARK  status: ('A' for Active; 'I' for Inactive)
REMARK    1  A    between atoms: C_2  and  C_25
REMARK    2  A    between atoms: C_8  and  S_13
REMARK    3  A    between atoms: S_13  and  N_16
REMARK    4  A    between atoms: N_16  and  C_18
REMARK    5  A    between atoms: C_18  and  C_19
REMARK    6  A    between atoms: C_19  and  C_23
REMARK                            x       y       z     vdW  Elec       q    Type
REMARK                         _______ _______ _______ _____ _____    ______ ____
ROOT
ATOM      1  N   UNL     1      -3.248   1.854   0.875  0.00  0.00    +0.390 N 
ATOM      2  C   UNL     1      -4.299   0.985   0.335  0.00  0.00    -0.021 C 
ATOM      3  C   UNL     1      -3.735   0.160  -0.834  0.00  0.00    +0.007 C 
ATOM      4  C   UNL     1      -2.419  -0.496  -0.499  0.00  0.00    -0.030 C 
ATOM      5  C   UNL     1      -1.653  -0.036   0.587  0.00  0.00    -0.046 C 
ATOM      6  C   UNL     1      -2.177   1.057   1.484  0.00  0.00    -0.054 C 
ATOM      7  C   UNL     1      -0.423  -0.644   0.870  0.00  0.00    +0.013 C 
ATOM      8  C   UNL     1       0.055  -1.679   0.067  0.00  0.00    +0.122 C 
ATOM      9  C   UNL     1      -1.926  -1.530  -1.306  0.00  0.00    -0.003 C 
ATOM     10  C   UNL     1      -0.695  -2.120  -1.022  0.00  0.00    +0.020 C 
ATOM     11  H   UNL     1      -3.652   2.468   1.582  0.00  0.00    -0.084 HD
ATOM     12  H   UNL     1      -2.854   2.404   0.111  0.00  0.00    -0.084 HD
ENDROOT
BRANCH   8  13
ATOM     13  S   UNL     1       1.592  -2.424   0.426  0.00  0.00    +0.060 S 
ATOM     14  O   UNL     1       1.880  -2.245   1.844  0.00  0.00    -0.153 OA
ATOM     15  O   UNL     1       1.577  -3.768  -0.135  0.00  0.00    -0.153 OA
BRANCH  13  16
ATOM     16  N   UNL     1       2.685  -1.468  -0.477  0.00  0.00    -0.179 NA
ATOM     17  H   UNL     1       2.421  -1.567  -1.458  0.00  0.00    +0.149 HD
BRANCH  16  18
ATOM     18  C   UNL     1       2.792  -0.027  -0.208  0.00  0.00    +0.100 C 
BRANCH  18  19
ATOM     19  C   UNL     1       4.214   0.436  -0.495  0.00  0.00    +0.122 C 
BRANCH  19  23
ATOM     20  F   UNL     1       5.637   2.326  -0.542  0.00  0.00    -0.170 F 
ATOM     21  F   UNL     1       4.137   2.231   1.043  0.00  0.00    -0.170 F 
ATOM     22  F   UNL     1       3.529   2.629  -1.013  0.00  0.00    -0.170 F 
ATOM     23  C   UNL     1       4.385   1.918  -0.246  0.00  0.00    +0.399 C 
ENDBRANCH  19  23
ENDBRANCH  18  19
ENDBRANCH  16  18
ENDBRANCH  13  16
ENDBRANCH   8  13
BRANCH   2  25
ATOM     24  F   UNL     1      -6.428   1.006  -0.623  0.00  0.00    -0.237 F 
ATOM     25  C   UNL     1      -5.480   1.836  -0.129  0.00  0.00    +0.172 C 
ENDBRANCH   2  25
TORSDOF 6
