REMARK  Name = 5287652
REMARK  2 active torsions:
REMARK  status: ('A' for Active; 'I' for Inactive)
REMARK    1  A    between atoms: C_18  and  O_22
REMARK    2  A    between atoms: C_19  and  O_24
REMARK                            x       y       z     vdW  Elec       q    Type
REMARK                         _______ _______ _______ _____ _____    ______ ____
ROOT
ATOM      1  O   UNL     1      -5.777  -1.355  -0.177  0.00  0.00    -0.435 OA
ATOM      2  O   UNL     1      -5.724   1.039   0.096  0.00  0.00    -0.435 OA
ATOM      3  N   UNL     1      -0.287   2.092   0.233  0.00  0.00    -0.312 N 
ATOM      4  C   UNL     1       0.094  -0.246  -0.028  0.00  0.00    +0.014 C 
ATOM      5  C   UNL     1      -0.746  -1.500  -0.173  0.00  0.00    +0.001 C 
ATOM      6  C   UNL     1      -0.748   0.857   0.093  0.00  0.00    +0.048 C 
ATOM      7  C   UNL     1      -2.162  -0.943  -0.117  0.00  0.00    +0.004 C 
ATOM      8  C   UNL     1      -2.128   0.475   0.044  0.00  0.00    +0.017 C 
ATOM      9  C   UNL     1       1.472  -0.067  -0.002  0.00  0.00    +0.006 C 
ATOM     10  C   UNL     1       1.953   1.258   0.149  0.00  0.00    +0.018 C 
ATOM     11  C   UNL     1      -3.355  -1.641  -0.201  0.00  0.00    +0.040 C 
ATOM     12  C   UNL     1      -3.292   1.220   0.124  0.00  0.00    +0.041 C 
ATOM     13  C   UNL     1      -4.503  -0.875  -0.118  0.00  0.00    +0.176 C 
ATOM     14  C   UNL     1      -4.472   0.503   0.038  0.00  0.00    +0.176 C 
ATOM     15  C   UNL     1       1.037   2.322   0.265  0.00  0.00    +0.062 C 
ATOM     16  C   UNL     1       2.389  -1.128  -0.117  0.00  0.00    +0.040 C 
ATOM     17  C   UNL     1       3.337   1.483   0.180  0.00  0.00    +0.041 C 
ATOM     18  C   UNL     1       3.761  -0.882  -0.083  0.00  0.00    +0.172 C 
ATOM     19  C   UNL     1       4.234   0.420   0.065  0.00  0.00    +0.172 C 
ATOM     20  C   UNL     1      -6.541  -0.141  -0.042  0.00  0.00    +0.429 C 
ATOM     21  H   UNL     1      -0.917   2.845   0.315  0.00  0.00    +0.152 HD
ENDROOT
BRANCH  18  22
ATOM     22  O   UNL     1       4.630  -1.925  -0.196  0.00  0.00    -0.468 OA
ATOM     23  C   UNL     1       5.038  -2.562   1.013  0.00  0.00    +0.253 C 
ENDBRANCH  18  22
BRANCH  19  24
ATOM     24  O   UNL     1       5.573   0.668   0.100  0.00  0.00    -0.468 OA
ATOM     25  C   UNL     1       6.217   0.927  -1.146  0.00  0.00    +0.253 C 
ENDBRANCH  19  24
TORSDOF 2
