REMARK  Name = 13023332
REMARK  7 active torsions:
REMARK  status: ('A' for Active; 'I' for Inactive)
REMARK    1  A    between atoms: C_6  and  O_15
REMARK    2  A    between atoms: O_15  and  C_16
REMARK    3  A    between atoms: C_16  and  C_17
REMARK    4  A    between atoms: C_17  and  O_18
REMARK    5  A    between atoms: C_17  and  C_20
REMARK    6  A    between atoms: C_20  and  N_21
REMARK    7  A    between atoms: N_21  and  C_24
REMARK                            x       y       z     vdW  Elec       q    Type
REMARK                         _______ _______ _______ _____ _____    ______ ____
ROOT
ATOM      1  N   UNL     1       3.214   0.347   0.891  0.00  0.00    -0.353 N 
ATOM      2  C   UNL     1       1.260   0.822  -0.074  0.00  0.00    +0.051 A 
ATOM      3  C   UNL     1       1.636  -0.512  -0.431  0.00  0.00    +0.020 A 
ATOM      4  C   UNL     1       2.264   1.331   0.751  0.00  0.00    +0.060 A 
ATOM      5  C   UNL     1       2.859  -0.779   0.186  0.00  0.00    +0.057 A 
ATOM      6  C   UNL     1       0.154   1.644  -0.377  0.00  0.00    +0.140 C 
ATOM      7  C   UNL     1       2.219   2.622   1.288  0.00  0.00    +0.017 C 
ATOM      8  C   UNL     1       0.096   2.937   0.153  0.00  0.00    +0.037 C 
ATOM      9  C   UNL     1       1.047  -1.519  -1.224  0.00  0.00    +0.002 C 
ATOM     10  C   UNL     1       3.524  -2.003   0.050  0.00  0.00    +0.017 C 
ATOM     11  C   UNL     1       1.114   3.417   0.973  0.00  0.00    +0.005 C 
ATOM     12  C   UNL     1       1.700  -2.748  -1.369  0.00  0.00    +0.000 C 
ATOM     13  C   UNL     1       2.921  -2.985  -0.740  0.00  0.00    +0.001 C 
ATOM     14  H   UNL     1       4.037   0.437   1.423  0.00  0.00    +0.166 HD
ENDROOT
BRANCH   6  15
ATOM     15  O   UNL     1      -0.867   1.209  -1.181  0.00  0.00    -0.473 OA
BRANCH  15  16
ATOM     16  C   UNL     1      -2.157   1.752  -0.926  0.00  0.00    +0.232 C 
BRANCH  16  17
ATOM     17  C   UNL     1      -3.213   0.724  -1.326  0.00  0.00    +0.133 C 
BRANCH  17  18
ATOM     18  O   UNL     1      -3.091   0.462  -2.727  0.00  0.00    -0.383 OA
ATOM     19  H   UNL     1      -3.757  -0.191  -2.993  0.00  0.00    +0.210 HD
ENDBRANCH  17  18
BRANCH  17  20
ATOM     20  C   UNL     1      -3.076  -0.605  -0.579  0.00  0.00    -0.048 C 
BRANCH  20  21
ATOM     21  N   UNL     1      -3.250  -0.445   0.859  0.00  0.00    +0.387 N 
ATOM     22  H   UNL     1      -4.162  -0.027   1.040  0.00  0.00    -0.084 HD
ATOM     23  H   UNL     1      -2.505   0.155   1.212  0.00  0.00    -0.084 HD
BRANCH  21  24
ATOM     24  C   UNL     1      -3.172  -1.731   1.539  0.00  0.00    -0.062 C 
ATOM     25  C   UNL     1      -3.345  -1.544   3.044  0.00  0.00    -0.023 C 
ATOM     26  C   UNL     1      -1.837  -2.395   1.219  0.00  0.00    -0.023 C 
ENDBRANCH  21  24
ENDBRANCH  20  21
ENDBRANCH  17  20
ENDBRANCH  16  17
ENDBRANCH  15  16
ENDBRANCH   6  15
TORSDOF 7
