REMARK  Name = 44129620
REMARK  6 active torsions:
REMARK  status: ('A' for Active; 'I' for Inactive)
REMARK    1  A    between atoms: C_1  and  O_16
REMARK    2  A    between atoms: C_4  and  N_7
REMARK    3  A    between atoms: N_7  and  C_9
REMARK    4  A    between atoms: C_9  and  C_10
REMARK    5  A    between atoms: O_16  and  C_17
REMARK    6  A    between atoms: C_17  and  C_19
REMARK                            x       y       z     vdW  Elec       q    Type
REMARK                         _______ _______ _______ _____ _____    ______ ____
ROOT
ATOM      1  C   UNL     1       1.828   0.814   0.357  0.00  0.00    +0.139 C 
ATOM      2  C   UNL     1       1.027   0.395   1.418  0.00  0.00    +0.038 C 
ATOM      3  C   UNL     1       1.259   1.058  -0.893  0.00  0.00    +0.038 C 
ATOM      4  C   UNL     1      -0.914   0.465  -0.019  0.00  0.00    +0.045 C 
ATOM      5  C   UNL     1      -0.344   0.220   1.231  0.00  0.00    +0.017 C 
ATOM      6  C   UNL     1      -0.112   0.884  -1.081  0.00  0.00    +0.017 C 
ENDROOT
BRANCH   4   7
ATOM      7  N   UNL     1      -2.300   0.288  -0.209  0.00  0.00    -0.329 N 
ATOM      8  H   UNL     1      -2.680   0.466  -1.100  0.00  0.00    +0.147 HD
BRANCH   7   9
ATOM      9  C   UNL     1      -3.179  -0.140   0.835  0.00  0.00    +0.114 C 
BRANCH   9  10
ATOM     10  C   UNL     1      -4.585  -0.271   0.320  0.00  0.00    -0.003 C 
ATOM     11  C   UNL     1      -5.452   0.821   0.373  0.00  0.00    -0.003 C 
ATOM     12  C   UNL     1      -5.024  -1.484  -0.211  0.00  0.00    -0.003 C 
ATOM     13  C   UNL     1      -6.757   0.699  -0.104  0.00  0.00    -0.000 C 
ATOM     14  C   UNL     1      -6.328  -1.606  -0.688  0.00  0.00    -0.000 C 
ATOM     15  C   UNL     1      -7.195  -0.514  -0.635  0.00  0.00    -0.000 C 
ENDBRANCH   9  10
ENDBRANCH   7   9
ENDBRANCH   4   7
BRANCH   1  16
ATOM     16  O   UNL     1       3.177   0.983   0.542  0.00  0.00    -0.478 OA
BRANCH  16  17
ATOM     17  C   UNL     1       4.013   0.761  -0.582  0.00  0.00    +0.184 C 
BRANCH  17  19
ATOM     18  N   UNL     1       6.258  -0.084  -1.212  0.00  0.00    +0.388 N 
ATOM     19  C   UNL     1       5.367   0.269  -0.097  0.00  0.00    -0.017 C 
ATOM     20  C   UNL     1       5.280  -1.024   0.699  0.00  0.00    -0.020 C 
ATOM     21  C   UNL     1       6.665  -1.638   0.557  0.00  0.00    -0.025 C 
ATOM     22  C   UNL     1       7.317  -0.894  -0.600  0.00  0.00    -0.082 C 
ATOM     23  H   UNL     1       6.648   0.755  -1.641  0.00  0.00    -0.084 HD
ATOM     24  H   UNL     1       5.768  -0.586  -1.954  0.00  0.00    -0.084 HD
ENDBRANCH  17  19
ENDBRANCH  16  17
ENDBRANCH   1  16
TORSDOF 6
