REMARK  Name = 6793
REMARK  2 active torsions:
REMARK  status: ('A' for Active; 'I' for Inactive)
REMARK    1  A    between atoms: C_3  and  S_11
REMARK    2  A    between atoms: C_4  and  N_15
REMARK                            x       y       z     vdW  Elec       q    Type
REMARK                         _______ _______ _______ _____ _____    ______ ____
ROOT
ATOM      1  C   UNL     1      -0.166   0.210  -0.026  0.00  0.00    +0.019 C 
ATOM      2  C   UNL     1      -1.367  -0.540   0.002  0.00  0.00    +0.014 C 
ATOM      3  C   UNL     1       1.065  -0.466  -0.044  0.00  0.00    +0.112 C 
ATOM      4  C   UNL     1      -2.598   0.136   0.019  0.00  0.00    +0.042 C 
ATOM      5  C   UNL     1      -0.233   1.612  -0.036  0.00  0.00    +0.001 C 
ATOM      6  C   UNL     1      -1.301  -1.942   0.012  0.00  0.00    +0.001 C 
ATOM      7  C   UNL     1       1.112  -1.861  -0.033  0.00  0.00    +0.019 C 
ATOM      8  C   UNL     1      -0.069  -2.598  -0.006  0.00  0.00    +0.001 C 
ATOM      9  C   UNL     1      -2.645   1.530   0.009  0.00  0.00    +0.014 C 
ATOM     10  C   UNL     1      -1.464   2.267  -0.019  0.00  0.00    +0.001 C 
ENDROOT
BRANCH   3  11
ATOM     11  S   UNL     1       2.610   0.370  -0.077  0.00  0.00    +0.042 S 
ATOM     12  O   UNL     1       2.746   1.056   1.397  0.00  0.00    -0.065 OA
ATOM     13  O   UNL     1       3.651  -0.637  -0.183  0.00  0.00    -0.065 OA
ATOM     14  O   UNL     1       2.486   1.427  -1.064  0.00  0.00    -0.065 OA
ENDBRANCH   3  11
BRANCH   4  15
ATOM     15  N   UNL     1      -3.828  -0.565   0.049  0.00  0.00    -0.357 N 
ATOM     16  H   UNL     1      -3.834  -1.550   0.056  0.00  0.00    +0.142 HD
ATOM     17  H   UNL     1      -4.678  -0.068   0.061  0.00  0.00    +0.142 HD
ENDBRANCH   4  15
TORSDOF 2
