REMARK  Name = 3540
REMARK  5 active torsions:
REMARK  status: ('A' for Active; 'I' for Inactive)
REMARK    1  A    between atoms: S_1  and  C_5
REMARK    2  A    between atoms: S_1  and  N_14
REMARK    3  A    between atoms: N_14  and  C_16
REMARK    4  A    between atoms: C_16  and  C_17
REMARK    5  A    between atoms: C_17  and  N_18
REMARK                            x       y       z     vdW  Elec       q    Type
REMARK                         _______ _______ _______ _____ _____    ______ ____
ROOT
ATOM      1  S   UNL     1       0.592  -1.479  -1.163  0.00  0.00    +0.060 S 
ATOM      2  O   UNL     1       1.264  -2.682  -0.697  0.00  0.00    -0.153 OA
ATOM      3  O   UNL     1      -0.064  -1.476  -2.460  0.00  0.00    -0.153 OA
ENDROOT
BRANCH   1   5
ATOM      4  N   UNL     1      -3.311   2.180  -0.502  0.00  0.00    -0.242 NA
ATOM      5  C   UNL     1      -0.609  -1.016   0.033  0.00  0.00    +0.122 C 
ATOM      6  C   UNL     1      -1.500   0.051  -0.162  0.00  0.00    +0.022 C 
ATOM      7  C   UNL     1      -2.434   0.358   0.849  0.00  0.00    +0.020 C 
ATOM      8  C   UNL     1      -0.643  -1.765   1.210  0.00  0.00    +0.020 C 
ATOM      9  C   UNL     1      -2.460  -0.402   2.030  0.00  0.00    +0.002 C 
ATOM     10  C   UNL     1      -1.491   0.820  -1.331  0.00  0.00    +0.022 C 
ATOM     11  C   UNL     1      -1.567  -1.459   2.207  0.00  0.00    +0.001 C 
ATOM     12  C   UNL     1      -3.305   1.425   0.620  0.00  0.00    +0.099 C 
ATOM     13  C   UNL     1      -2.404   1.857  -1.448  0.00  0.00    +0.099 C 
ENDBRANCH   1   5
BRANCH   1  14
ATOM     14  N   UNL     1       1.688  -0.172  -1.095  0.00  0.00    -0.182 NA
ATOM     15  H   UNL     1       1.166   0.663  -1.362  0.00  0.00    +0.149 HD
BRANCH  14  16
ATOM     16  C   UNL     1       2.378   0.145   0.164  0.00  0.00    +0.068 C 
BRANCH  16  17
ATOM     17  C   UNL     1       3.719   0.793  -0.147  0.00  0.00    -0.063 C 
BRANCH  17  18
ATOM     18  N   UNL     1       4.425   1.113   1.087  0.00  0.00    +0.383 N 
ATOM     19  C   UNL     1       5.723   1.708   0.805  0.00  0.00    -0.106 C 
ATOM     20  H   UNL     1       4.560   0.257   1.625  0.00  0.00    -0.085 HD
ATOM     21  H   UNL     1       3.867   1.783   1.617  0.00  0.00    -0.085 HD
ENDBRANCH  17  18
ENDBRANCH  16  17
ENDBRANCH  14  16
ENDBRANCH   1  14
TORSDOF 5
