REMARK  Name = 2352168
REMARK  5 active torsions:
REMARK  status: ('A' for Active; 'I' for Inactive)
REMARK    1  A    between atoms: C_1  and  C_9
REMARK    2  A    between atoms: C_2  and  O_18
REMARK    3  A    between atoms: N_8  and  C_11
REMARK    4  A    between atoms: C_11  and  C_13
REMARK    5  A    between atoms: O_18  and  C_19
REMARK                            x       y       z     vdW  Elec       q    Type
REMARK                         _______ _______ _______ _____ _____    ______ ____
ROOT
ATOM      1  C   UNL     1      -0.274   1.435   0.147  0.00  0.00    +0.054 C 
ATOM      2  C   UNL     1       2.469   1.263  -0.328  0.00  0.00    +0.145 C 
ATOM      3  C   UNL     1       0.264   1.956  -1.029  0.00  0.00    +0.008 C 
ATOM      4  C   UNL     1       0.559   0.827   1.086  0.00  0.00    +0.008 C 
ATOM      5  C   UNL     1       1.635   1.871  -1.266  0.00  0.00    +0.038 C 
ATOM      6  C   UNL     1       1.931   0.742   0.849  0.00  0.00    +0.038 C 
ENDROOT
BRANCH   1   9
ATOM      7  O   UNL     1      -2.380   2.428  -0.130  0.00  0.00    -0.270 OA
ATOM      8  N   UNL     1      -2.270   0.546   1.220  0.00  0.00    -0.296 N 
ATOM      9  C   UNL     1      -1.705   1.525   0.395  0.00  0.00    +0.246 C 
ATOM     10  H   UNL     1      -1.676  -0.139   1.603  0.00  0.00    +0.150 HD
BRANCH   8  11
ATOM     11  C   UNL     1      -3.678   0.487   1.541  0.00  0.00    +0.136 C 
BRANCH  11  13
ATOM     12  N   UNL     1      -4.940   0.225  -0.508  0.00  0.00    -0.246 NA
ATOM     13  C   UNL     1      -4.436  -0.385   0.583  0.00  0.00    +0.079 C 
ATOM     14  C   UNL     1      -4.573  -1.730   0.865  0.00  0.00    +0.016 C 
ATOM     15  C   UNL     1      -5.281  -2.510  -0.042  0.00  0.00    +0.003 C 
ATOM     16  C   UNL     1      -5.622  -0.565  -1.368  0.00  0.00    +0.099 C 
ATOM     17  C   UNL     1      -5.819  -1.924  -1.183  0.00  0.00    +0.021 C 
ENDBRANCH  11  13
ENDBRANCH   8  11
ENDBRANCH   1   9
BRANCH   2  18
ATOM     18  O   UNL     1       3.808   1.181  -0.558  0.00  0.00    -0.453 OA
BRANCH  18  19
ATOM     19  C   UNL     1       4.433  -0.028  -0.301  0.00  0.00    +0.145 C 
ATOM     20  C   UNL     1       3.836  -1.199  -0.732  0.00  0.00    +0.037 C 
ATOM     21  C   UNL     1       5.636  -0.033   0.380  0.00  0.00    +0.037 C 
ATOM     22  C   UNL     1       4.465  -2.417  -0.472  0.00  0.00    +0.003 C 
ATOM     23  C   UNL     1       6.265  -1.251   0.639  0.00  0.00    +0.003 C 
ATOM     24  C   UNL     1       5.679  -2.443   0.213  0.00  0.00    +0.000 C 
ENDBRANCH  18  19
ENDBRANCH   2  18
TORSDOF 5
