REMARK  Name = 5288018
REMARK  3 active torsions:
REMARK  status: ('A' for Active; 'I' for Inactive)
REMARK    1  A    between atoms: C_9  and  N_24
REMARK    2  A    between atoms: C_10  and  C_17
REMARK    3  A    between atoms: N_23  and  N_29
REMARK                            x       y       z     vdW  Elec       q    Type
REMARK                         _______ _______ _______ _____ _____    ______ ____
ROOT
ATOM      1  O   UNL     1       0.896   0.828   0.007  0.00  0.00    -0.286 OA
ATOM      2  N   UNL     1       4.813  -1.306   0.100  0.00  0.00    -0.278 N 
ATOM      3  N   UNL     1       4.138  -2.490   0.116  0.00  0.00    -0.173 NA
ATOM      4  C   UNL     1       0.633  -1.610   0.054  0.00  0.00    +0.054 C 
ATOM      5  C   UNL     1       2.744  -0.684   0.061  0.00  0.00    +0.072 A 
ATOM      6  C   UNL     1       1.577  -2.674   0.088  0.00  0.00    +0.024 C 
ATOM      7  C   UNL     1       2.879  -2.079   0.092  0.00  0.00    +0.105 A 
ATOM      8  C   UNL     1       1.361  -0.293   0.036  0.00  0.00    +0.199 C 
ATOM      9  C   UNL     1      -0.710  -1.859   0.042  0.00  0.00    +0.055 C 
ATOM     10  C   UNL     1       4.008  -0.185   0.067  0.00  0.00    +0.073 A 
ATOM     11  C   UNL     1       1.179  -3.991   0.109  0.00  0.00    +0.002 C 
ATOM     12  C   UNL     1      -1.136  -3.180   0.063  0.00  0.00    +0.015 C 
ATOM     13  C   UNL     1      -0.198  -4.237   0.097  0.00  0.00    +0.001 C 
ATOM     14  H   UNL     1       5.796  -1.254   0.111  0.00  0.00    +0.189 HD
ENDROOT
BRANCH  10  17
ATOM     15  S   UNL     1       3.625   2.439   0.739  0.00  0.00    -0.075 S 
ATOM     16  N   UNL     1       5.905   2.974  -0.356  0.00  0.00    -0.407 NA
ATOM     17  C   UNL     1       4.504   1.136   0.045  0.00  0.00    +0.141 C 
ATOM     18  C   UNL     1       5.687   1.617  -0.486  0.00  0.00    +0.103 C 
ATOM     19  C   UNL     1       4.883   3.510   0.274  0.00  0.00    +0.135 C 
ATOM     20  C   UNL     1       6.725   0.816  -1.171  0.00  0.00    +0.063 C 
ATOM     21  C   UNL     1       4.759   4.948   0.597  0.00  0.00    +0.074 C 
ENDBRANCH  10  17
BRANCH   9  24
ATOM     22  O   UNL     1      -3.709  -1.958   0.007  0.00  0.00    -0.251 OA
ATOM     23  N   UNL     1      -3.630   0.353  -0.038  0.00  0.00    -0.231 N 
ATOM     24  N   UNL     1      -1.660  -0.813   0.009  0.00  0.00    -0.267 N 
ATOM     25  C   UNL     1      -3.055  -0.918  -0.006  0.00  0.00    +0.318 C 
ATOM     26  H   UNL     1      -3.062   1.157  -0.048  0.00  0.00    +0.171 HD
ATOM     27  H   UNL     1      -1.296   0.102  -0.006  0.00  0.00    +0.156 HD
BRANCH  23  29
ATOM     28  N   UNL     1      -7.438   2.027  -0.088  0.00  0.00    +0.387 N 
ATOM     29  N   UNL     1      -5.007   0.470  -0.058  0.00  0.00    -0.209 NA
ATOM     30  C   UNL     1      -6.966   1.328  -1.290  0.00  0.00    -0.058 C 
ATOM     31  C   UNL     1      -7.000   1.321   1.123  0.00  0.00    -0.058 C 
ATOM     32  C   UNL     1      -5.441   1.174  -1.268  0.00  0.00    +0.069 C 
ATOM     33  C   UNL     1      -5.476   1.167   1.144  0.00  0.00    +0.069 C 
ATOM     34  C   UNL     1      -8.892   2.171  -0.108  0.00  0.00    -0.101 C 
ATOM     35  H   UNL     1      -7.029   2.962  -0.079  0.00  0.00    -0.080 HD
ENDBRANCH  23  29
ENDBRANCH   9  24
TORSDOF 3
