1723
  -OEChem-10051721083D

 47 49  0     0  0  0  0  0  0999 V2000
   -0.1428   -0.5430   -0.3627 S   0  0  0  0  0  0  0  0  0  0  0  0
   -5.7024   -2.2351    1.0246 F   0  0  0  0  0  0  0  0  0  0  0  0
    5.5566    0.8963    2.1946 F   0  0  0  0  0  0  0  0  0  0  0  0
    6.3610    2.4742    0.9253 F   0  0  0  0  0  0  0  0  0  0  0  0
    4.2143    2.0769    0.9486 F   0  0  0  0  0  0  0  0  0  0  0  0
    5.5079    1.2095   -1.4070 O   0  0  0  0  0  0  0  0  0  0  0  0
    6.9338   -0.0550   -0.0923 O   0  0  0  0  0  0  0  0  0  0  0  0
   -4.1278    2.0101   -0.5957 N   0  0  0  0  0  0  0  0  0  0  0  0
   -3.4537   -2.1173   -0.2168 N   0  0  0  0  0  0  0  0  0  0  0  0
   -2.7629    0.0572   -0.9843 C   0  0  0  0  0  0  0  0  0  0  0  0
   -3.7035   -0.7269   -0.3319 C   0  0  0  0  0  0  0  0  0  0  0  0
   -1.5158   -0.5319   -1.5550 C   0  0  0  0  0  0  0  0  0  0  0  0
   -4.8648   -0.1443    0.1931 C   0  0  0  0  0  0  0  0  0  0  0  0
    4.5882   -0.5966   -0.1082 C   0  0  0  0  0  0  0  0  0  0  0  0
    2.4273   -1.4662   -0.7084 C   0  0  0  0  0  0  0  0  0  0  0  0
    5.6056    0.4926   -0.1639 C   0  0  0  0  0  0  0  0  0  0  0  0
   -3.0208    1.4089   -1.0885 C   0  0  0  0  0  0  0  0  0  0  0  0
    1.1113   -1.3039   -1.4179 C   0  0  0  0  0  0  0  0  0  0  0  0
   -5.0390    1.2467    0.0368 C   0  0  0  0  0  0  0  0  0  0  0  0
    3.3679   -0.4462   -0.7672 C   0  0  0  0  0  0  0  0  0  0  0  0
    4.8567   -1.7658    0.6038 C   0  0  0  0  0  0  0  0  0  0  0  0
    2.6853   -2.6340   -0.0023 C   0  0  0  0  0  0  0  0  0  0  0  0
   -5.8365   -0.9108    0.8587 C   0  0  0  0  0  0  0  0  0  0  0  0
    5.4327    1.4944    0.9874 C   0  0  0  0  0  0  0  0  0  0  0  0
    3.9053   -2.7844    0.6566 C   0  0  0  0  0  0  0  0  0  0  0  0
   -2.0515    2.3128   -1.7779 C   0  0  0  0  0  0  0  0  0  0  0  0
   -6.1926    1.8250    0.5590 C   0  0  0  0  0  0  0  0  0  0  0  0
   -6.9809   -0.3064    1.3709 C   0  0  0  0  0  0  0  0  0  0  0  0
   -7.1588    1.0633    1.2208 C   0  0  0  0  0  0  0  0  0  0  0  0
   -1.6844   -1.5454   -1.9337 H   0  0  0  0  0  0  0  0  0  0  0  0
   -1.1923    0.0217   -2.4426 H   0  0  0  0  0  0  0  0  0  0  0  0
    1.2498   -0.6910   -2.3163 H   0  0  0  0  0  0  0  0  0  0  0  0
    0.7530   -2.2827   -1.7579 H   0  0  0  0  0  0  0  0  0  0  0  0
    3.1392    0.4644   -1.3147 H   0  0  0  0  0  0  0  0  0  0  0  0
    5.7939   -1.9032    1.1361 H   0  0  0  0  0  0  0  0  0  0  0  0
    1.9510   -3.4332    0.0472 H   0  0  0  0  0  0  0  0  0  0  0  0
    4.1130   -3.6934    1.2135 H   0  0  0  0  0  0  0  0  0  0  0  0
   -2.3853    3.3546   -1.7085 H   0  0  0  0  0  0  0  0  0  0  0  0
   -1.0609    2.2669   -1.3170 H   0  0  0  0  0  0  0  0  0  0  0  0
   -1.9805    2.0711   -2.8429 H   0  0  0  0  0  0  0  0  0  0  0  0
   -6.3556    2.8962    0.4544 H   0  0  0  0  0  0  0  0  0  0  0  0
   -4.1269   -2.7128    0.2458 H   0  0  0  0  0  0  0  0  0  0  0  0
   -2.5440   -2.5056   -0.4191 H   0  0  0  0  0  0  0  0  0  0  0  0
   -7.7296   -0.9016    1.8845 H   0  0  0  0  0  0  0  0  0  0  0  0
   -8.0486    1.5433    1.6175 H   0  0  0  0  0  0  0  0  0  0  0  0
    5.8502    2.1079   -1.2627 H   0  0  0  0  0  0  0  0  0  0  0  0
    7.5199    0.6272    0.2764 H   0  0  0  0  0  0  0  0  0  0  0  0
  1 12  1  0  0  0  0
  1 18  1  0  0  0  0
  2 23  1  0  0  0  0
  3 24  1  0  0  0  0
  4 24  1  0  0  0  0
  5 24  1  0  0  0  0
  6 16  1  0  0  0  0
  6 46  1  0  0  0  0
  7 16  1  0  0  0  0
  7 47  1  0  0  0  0
  8 17  1  0  0  0  0
  8 19  2  0  0  0  0
  9 11  1  0  0  0  0
  9 42  1  0  0  0  0
  9 43  1  0  0  0  0
 10 11  1  0  0  0  0
 10 12  1  0  0  0  0
 10 17  2  0  0  0  0
 11 13  2  0  0  0  0
 12 30  1  0  0  0  0
 12 31  1  0  0  0  0
 13 19  1  0  0  0  0
 13 23  1  0  0  0  0
 14 16  1  0  0  0  0
 14 20  1  0  0  0  0
 14 21  2  0  0  0  0
 15 18  1  0  0  0  0
 15 20  2  0  0  0  0
 15 22  1  0  0  0  0
 16 24  1  0  0  0  0
 17 26  1  0  0  0  0
 18 32  1  0  0  0  0
 18 33  1  0  0  0  0
 19 27  1  0  0  0  0
 20 34  1  0  0  0  0
 21 25  1  0  0  0  0
 21 35  1  0  0  0  0
 22 25  2  0  0  0  0
 22 36  1  0  0  0  0
 23 28  2  0  0  0  0
 25 37  1  0  0  0  0
 26 38  1  0  0  0  0
 26 39  1  0  0  0  0
 26 40  1  0  0  0  0
 27 29  2  0  0  0  0
 27 41  1  0  0  0  0
 28 29  1  0  0  0  0
 28 44  1  0  0  0  0
 29 45  1  0  0  0  0
M  END
> <DATABASE_ID>
DB07756

> <DATABASE_NAME>
drugbank

> <ORIGINAL_SOURCE>
PUBCHEM

> <ORIGINAL_SOURCE_URL>
https://pubchem.ncbi.nlm.nih.gov/rest/pug/compound/inchikey/GPBGHVRNVGXPNM-UHFFFAOYSA-N/SDF?record_type=3d

> <SMILES>
CC1=C(CSCC2=CC(=CC=C2)C(O)(O)C(F)(F)F)C(N)=C2C(F)=CC=CC2=N1

> <INCHI_IDENTIFIER>
InChI=1S/C20H18F4N2O2S/c1-11-14(18(25)17-15(21)6-3-7-16(17)26-11)10-29-9-12-4-2-5-13(8-12)19(27,28)20(22,23)24/h2-8,27-28H,9-10H2,1H3,(H2,25,26)

> <INCHI_KEY>
GPBGHVRNVGXPNM-UHFFFAOYSA-N

> <FORMULA>
C20H18F4N2O2S

> <MOLECULAR_WEIGHT>
426.428

> <EXACT_MASS>
426.10251134

> <JCHEM_ACCEPTOR_COUNT>
4

> <JCHEM_AVERAGE_POLARIZABILITY>
40.02387481647063

> <JCHEM_BIOAVAILABILITY>
1

> <JCHEM_DONOR_COUNT>
3

> <JCHEM_FORMAL_CHARGE>
0

> <JCHEM_GHOSE_FILTER>
1

> <JCHEM_IUPAC>
1-[3-({[(4-amino-5-fluoro-2-methylquinolin-3-yl)methyl]sulfanyl}methyl)phenyl]-2,2,2-trifluoroethane-1,1-diol

> <ALOGPS_LOGP>
3.64

> <JCHEM_LOGP>
3.1779716201369475

> <ALOGPS_LOGS>
-5.00

> <JCHEM_MDDR_LIKE_RULE>
1

> <JCHEM_NUMBER_OF_RINGS>
3

> <JCHEM_PHYSIOLOGICAL_CHARGE>
1

> <JCHEM_PKA>
9.70056850880513

> <JCHEM_PKA_STRONGEST_ACIDIC>
7.588419876078142

> <JCHEM_PKA_STRONGEST_BASIC>
8.423206044860855

> <JCHEM_POLAR_SURFACE_AREA>
79.37

> <JCHEM_REFRACTIVITY>
105.04840000000003

> <JCHEM_ROTATABLE_BOND_COUNT>
6

> <JCHEM_RULE_OF_FIVE>
1

> <ALOGPS_SOLUBILITY>
4.22e-03 g/l

> <JCHEM_TRADITIONAL_IUPAC>
1-[3-({[(4-amino-5-fluoro-2-methylquinolin-3-yl)methyl]sulfanyl}methyl)phenyl]-2,2,2-trifluoroethane-1,1-diol

> <JCHEM_VEBER_RULE>
0

> <DRUGBANK_ID>
DB07756

> <DRUG_GROUPS>
experimental

> <GENERIC_NAME>
1-[3-({[(4-AMINO-5-FLUORO-2-METHYLQUINOLIN-3-YL)METHYL]THIO}METHYL)PHENYL]-2,2,2-TRIFLUOROETHANE-1,1-DIOL

$$$$
