REMARK  Name = 46937079
REMARK  1 active torsions:
REMARK  status: ('A' for Active; 'I' for Inactive)
REMARK    1  A    between atoms: C_6  and  C_12
REMARK                            x       y       z     vdW  Elec       q    Type
REMARK                         _______ _______ _______ _____ _____    ______ ____
ROOT
ATOM      1  S   UNL     1      -2.612  -1.441  -0.057  0.00  0.00    -0.027 S 
ATOM      2  O   UNL     1      -0.287   1.567   0.050  0.00  0.00    -0.209 OA
ATOM      3  N   UNL     1      -2.567   1.149   0.042  0.00  0.00    -0.311 NA
ATOM      4  N   UNL     1      -4.741   0.164   0.013  0.00  0.00    -0.327 N 
ATOM      5  C   UNL     1      -1.073  -0.686  -0.034  0.00  0.00    +0.129 C 
ATOM      6  C   UNL     1       0.106  -1.307  -0.063  0.00  0.00    +0.038 C 
ATOM      7  C   UNL     1      -1.231   0.790   0.024  0.00  0.00    +0.213 C 
ATOM      8  C   UNL     1      -3.379   0.137   0.007  0.00  0.00    +0.222 C 
ATOM      9  H   UNL     1      -5.251  -0.678  -0.017  0.00  0.00    +0.145 HD
ATOM     10  H   UNL     1      -5.216   1.026   0.049  0.00  0.00    +0.145 HD
ENDROOT
BRANCH   6  12
ATOM     11  N   UNL     1       1.975  -0.457   1.178  0.00  0.00    -0.244 NA
ATOM     12  C   UNL     1       1.429  -0.654  -0.043  0.00  0.00    +0.083 C 
ATOM     13  C   UNL     1       2.035  -0.282  -1.232  0.00  0.00    +0.019 C 
ATOM     14  C   UNL     1       3.281   0.330  -1.164  0.00  0.00    +0.003 C 
ATOM     15  C   UNL     1       3.875   0.549   0.074  0.00  0.00    +0.021 C 
ATOM     16  C   UNL     1       3.187   0.141   1.205  0.00  0.00    +0.099 C 
ENDBRANCH   6  12
TORSDOF 1
