REMARK  Name = 5305969
REMARK  1 active torsions:
REMARK  status: ('A' for Active; 'I' for Inactive)
REMARK    1  A    between atoms: C_8  and  C_15
REMARK                            x       y       z     vdW  Elec       q    Type
REMARK                         _______ _______ _______ _____ _____    ______ ____
ROOT
ATOM      1  O   UNL     1      -0.361   1.950   0.344  0.00  0.00    -0.265 OA
ATOM      2  N   UNL     1       0.369  -0.281   0.070  0.00  0.00    -0.155 N 
ATOM      3  N   UNL     1      -0.340  -1.457   0.023  0.00  0.00    -0.285 N 
ATOM      4  N   UNL     1       2.595  -1.157  -0.177  0.00  0.00    -0.091 NA
ATOM      5  N   UNL     1       2.329   1.081   0.038  0.00  0.00    -0.068 NA
ATOM      6  N   UNL     1       3.743  -0.466  -0.204  0.00  0.00    -0.138 N 
ATOM      7  N   UNL     1       3.633   0.864  -0.080  0.00  0.00    -0.020 NA
ATOM      8  C   UNL     1      -1.918   0.114   0.254  0.00  0.00    +0.049 A 
ATOM      9  C   UNL     1      -1.683  -1.199   0.104  0.00  0.00    +0.052 A 
ATOM     10  C   UNL     1      -0.560   0.751   0.233  0.00  0.00    +0.284 A 
ATOM     11  C   UNL     1      -2.664  -2.312   0.001  0.00  0.00    +0.051 C 
ATOM     12  C   UNL     1       1.724  -0.146  -0.023  0.00  0.00    +0.163 C 
ATOM     13  H   UNL     1       0.059  -2.353  -0.058  0.00  0.00    +0.188 HD
ATOM     14  H   UNL     1       4.615  -0.910  -0.308  0.00  0.00    +0.197 HD
ENDROOT
BRANCH   8  15
ATOM     15  C   UNL     1      -3.164   0.900   0.383  0.00  0.00    +0.032 C 
ATOM     16  C   UNL     1      -3.703   1.359  -0.966  0.00  0.00    +0.005 C 
ENDBRANCH   8  15
TORSDOF 1
