REMARK  Name = 46937081
REMARK  6 active torsions:
REMARK  status: ('A' for Active; 'I' for Inactive)
REMARK    1  A    between atoms: N_1  and  C_10
REMARK    2  A    between atoms: C_4  and  C_16
REMARK    3  A    between atoms: C_9  and  C_31
REMARK    4  A    between atoms: C_16  and  C_17
REMARK    5  A    between atoms: C_18  and  N_23
REMARK    6  A    between atoms: C_31  and  N_32
REMARK                            x       y       z     vdW  Elec       q    Type
REMARK                         _______ _______ _______ _____ _____    ______ ____
ROOT
ATOM      1  N   UNL     1      -2.265  -0.128  -0.830  0.00  0.00    -0.267 N 
ATOM      2  N   UNL     1      -4.059   0.038   0.774  0.00  0.00    -0.341 NA
ATOM      3  N   UNL     1      -5.119  -2.104   1.238  0.00  0.00    -0.188 NA
ATOM      4  C   UNL     1      -1.673  -1.125  -1.560  0.00  0.00    +0.035 C 
ATOM      5  C   UNL     1      -3.271  -0.657  -0.065  0.00  0.00    +0.199 C 
ATOM      6  C   UNL     1      -3.323  -2.023  -0.312  0.00  0.00    +0.066 C 
ATOM      7  C   UNL     1      -2.308  -2.311  -1.260  0.00  0.00    +0.016 C 
ATOM      8  C   UNL     1      -4.294  -2.747   0.379  0.00  0.00    +0.114 C 
ATOM      9  C   UNL     1      -4.953  -0.770   1.380  0.00  0.00    +0.042 C 
ENDROOT
BRANCH   1  10
ATOM     10  C   UNL     1      -1.873   1.338  -0.859  0.00  0.00    +0.079 C 
ATOM     11  C   UNL     1      -3.018   2.228  -1.373  0.00  0.00    +0.020 C 
ATOM     12  C   UNL     1      -1.371   1.824   0.512  0.00  0.00    +0.020 C 
ATOM     13  C   UNL     1      -2.609   3.700  -1.408  0.00  0.00    +0.002 C 
ATOM     14  C   UNL     1      -0.969   3.297   0.470  0.00  0.00    +0.002 C 
ATOM     15  C   UNL     1      -2.104   4.176  -0.049  0.00  0.00    +0.000 C 
ENDBRANCH   1  10
BRANCH   4  16
ATOM     16  C   UNL     1      -0.520  -0.856  -2.508  0.00  0.00    +0.068 C 
BRANCH  16  17
ATOM     17  C   UNL     1       0.799  -0.706  -1.829  0.00  0.00    -0.016 C 
ATOM     18  C   UNL     1       3.266  -0.424  -0.557  0.00  0.00    +0.048 C 
ATOM     19  C   UNL     1       1.545   0.460  -2.004  0.00  0.00    -0.003 C 
ATOM     20  C   UNL     1       1.286  -1.730  -1.018  0.00  0.00    -0.003 C 
ATOM     21  C   UNL     1       2.778   0.601  -1.368  0.00  0.00    +0.014 C 
ATOM     22  C   UNL     1       2.520  -1.590  -0.382  0.00  0.00    +0.014 C 
BRANCH  18  23
ATOM     23  N   UNL     1       4.503  -0.283   0.081  0.00  0.00    -0.312 N 
ATOM     24  N   UNL     1       6.906  -0.044   1.607  0.00  0.00    +0.388 N 
ATOM     25  C   UNL     1       5.318  -1.470   0.359  0.00  0.00    +0.068 C 
ATOM     26  C   UNL     1       4.674   0.837   1.014  0.00  0.00    +0.068 C 
ATOM     27  C   UNL     1       6.159   1.154   1.206  0.00  0.00    -0.056 C 
ATOM     28  C   UNL     1       6.782  -1.079   0.573  0.00  0.00    -0.056 C 
ATOM     29  C   UNL     1       8.312   0.282   1.840  0.00  0.00    -0.101 C 
ATOM     30  H   UNL     1       6.514  -0.401   2.478  0.00  0.00    -0.080 HD
ENDBRANCH  18  23
ENDBRANCH  16  17
ENDBRANCH   4  16
BRANCH   9  31
ATOM     31  C   UNL     1      -5.884  -0.102   2.337  0.00  0.00    +0.030 C 
BRANCH  31  32
ATOM     32  N   UNL     1      -5.237   0.217   3.610  0.00  0.00    +0.390 N 
ATOM     33  H   UNL     1      -5.910   0.671   4.229  0.00  0.00    -0.088 HD
ATOM     34  H   UNL     1      -4.451   0.845   3.444  0.00  0.00    -0.088 HD
ATOM     35  H   UNL     1      -4.900  -0.642   4.045  0.00  0.00    -0.088 HD
ENDBRANCH  31  32
ENDBRANCH   9  31
TORSDOF 6
