REMARK  Name = 3000505
REMARK  8 active torsions:
REMARK  status: ('A' for Active; 'I' for Inactive)
REMARK    1  A    between atoms: N_1  and  C_4
REMARK    2  A    between atoms: N_1  and  C_15
REMARK    3  A    between atoms: C_4  and  N_5
REMARK    4  A    between atoms: C_10  and  C_14
REMARK    5  A    between atoms: C_15  and  C_16
REMARK    6  A    between atoms: C_16  and  C_19
REMARK    7  A    between atoms: C_21  and  O_24
REMARK    8  A    between atoms: O_24  and  C_25
REMARK                            x       y       z     vdW  Elec       q    Type
REMARK                         _______ _______ _______ _____ _____    ______ ____
ROOT
ATOM      1  N   UNL     1      -2.712  -2.433   0.488  0.00  0.00    -0.315 N 
ATOM      2  H   UNL     1      -3.321  -3.124   0.141  0.00  0.00    +0.148 HD
ENDROOT
BRANCH   1   4
ATOM      3  S   UNL     1      -0.976  -3.808  -0.910  0.00  0.00    -0.019 S 
ATOM      4  C   UNL     1      -1.386  -2.517   0.082  0.00  0.00    +0.136 C 
BRANCH   4   5
ATOM      5  N   UNL     1      -0.542  -1.519   0.591  0.00  0.00    -0.281 N 
ATOM      6  N   UNL     1       1.523  -2.028  -0.444  0.00  0.00    -0.228 NA
ATOM      7  C   UNL     1       0.824  -1.261   0.424  0.00  0.00    +0.133 C 
ATOM      8  C   UNL     1       1.375  -0.228   1.164  0.00  0.00    +0.035 C 
ATOM      9  C   UNL     1       2.731   0.037   1.004  0.00  0.00    +0.015 C 
ATOM     10  C   UNL     1       3.484  -0.730   0.120  0.00  0.00    +0.088 C 
ATOM     11  C   UNL     1       2.838  -1.741  -0.573  0.00  0.00    +0.111 C 
ATOM     12  H   UNL     1      -0.998  -0.875   1.179  0.00  0.00    +0.155 HD
BRANCH  10  14
ATOM     13  N   UNL     1       6.014  -0.283  -0.214  0.00  0.00    -0.191 NA
ATOM     14  C   UNL     1       4.876  -0.484  -0.064  0.00  0.00    +0.102 C 
ENDBRANCH  10  14
ENDBRANCH   4   5
ENDBRANCH   1   4
BRANCH   1  15
ATOM     15  C   UNL     1      -3.297  -1.437   1.366  0.00  0.00    +0.095 C 
BRANCH  15  16
ATOM     16  C   UNL     1      -3.838  -0.229   0.605  0.00  0.00    +0.069 C 
BRANCH  16  19
ATOM     17  F   UNL     1      -2.268   1.872   1.638  0.00  0.00    -0.200 F 
ATOM     18  N   UNL     1      -2.628   0.036  -1.473  0.00  0.00    -0.246 NA
ATOM     19  C   UNL     1      -2.781   0.474  -0.211  0.00  0.00    +0.091 C 
ATOM     20  C   UNL     1      -2.059   1.492   0.371  0.00  0.00    +0.187 C 
ATOM     21  C   UNL     1      -1.094   2.118  -0.410  0.00  0.00    +0.169 C 
ATOM     22  C   UNL     1      -0.895   1.704  -1.723  0.00  0.00    +0.060 C 
ATOM     23  C   UNL     1      -1.681   0.668  -2.202  0.00  0.00    +0.102 C 
BRANCH  21  24
ATOM     24  O   UNL     1      -0.345   3.130   0.106  0.00  0.00    -0.473 OA
BRANCH  24  25
ATOM     25  C   UNL     1       0.977   3.287  -0.408  0.00  0.00    +0.206 C 
ATOM     26  C   UNL     1       1.857   3.880   0.672  0.00  0.00    +0.051 C 
ENDBRANCH  24  25
ENDBRANCH  21  24
ENDBRANCH  16  19
ENDBRANCH  15  16
ENDBRANCH   1  15
TORSDOF 8
