REMARK  Name = 24892822
REMARK  8 active torsions:
REMARK  status: ('A' for Active; 'I' for Inactive)
REMARK    1  A    between atoms: N_2  and  C_5
REMARK    2  A    between atoms: C_3  and  C_17
REMARK    3  A    between atoms: C_7  and  C_14
REMARK    4  A    between atoms: C_9  and  C_16
REMARK    5  A    between atoms: C_17  and  O_19
REMARK    6  A    between atoms: C_17  and  C_21
REMARK    7  A    between atoms: C_21  and  O_22
REMARK    8  A    between atoms: O_22  and  C_25
REMARK                            x       y       z     vdW  Elec       q    Type
REMARK                         _______ _______ _______ _____ _____    ______ ____
ROOT
ATOM      1  O   UNL     1       0.029   3.686   0.994  0.00  0.00    -0.272 OA
ATOM      2  N   UNL     1      -0.073   1.746  -0.312  0.00  0.00    -0.282 N 
ATOM      3  C   UNL     1       0.514   2.908   0.175  0.00  0.00    +0.254 C 
ATOM      4  H   UNL     1       0.454   1.235  -0.968  0.00  0.00    +0.155 HD
ENDROOT
BRANCH   2   5
ATOM      5  C   UNL     1      -1.341   1.211   0.023  0.00  0.00    +0.050 C 
ATOM      6  C   UNL     1      -1.776   0.025  -0.567  0.00  0.00    +0.019 C 
ATOM      7  C   UNL     1      -3.025  -0.502  -0.236  0.00  0.00    +0.082 C 
ATOM      8  C   UNL     1      -2.154   1.872   0.944  0.00  0.00    +0.015 C 
ATOM      9  C   UNL     1      -3.838   0.159   0.685  0.00  0.00    +0.072 C 
ATOM     10  C   UNL     1      -3.403   1.345   1.275  0.00  0.00    +0.011 C 
BRANCH   7  14
ATOM     11  F   UNL     1      -2.537  -2.281  -1.759  0.00  0.00    -0.166 F 
ATOM     12  F   UNL     1      -3.704  -2.783   0.000  0.00  0.00    -0.166 F 
ATOM     13  F   UNL     1      -4.606  -1.629  -1.607  0.00  0.00    -0.166 F 
ATOM     14  C   UNL     1      -3.458  -1.776  -0.887  0.00  0.00    +0.419 C 
ENDBRANCH   7  14
BRANCH   9  16
ATOM     15  N   UNL     1      -6.164  -0.783   1.331  0.00  0.00    -0.191 NA
ATOM     16  C   UNL     1      -5.122  -0.362   1.042  0.00  0.00    +0.100 C 
ENDBRANCH   9  16
ENDBRANCH   2   5
BRANCH   3  17
ATOM     17  C   UNL     1       1.909   3.169  -0.425  0.00  0.00    +0.197 C 
ATOM     18  C   UNL     1       1.832   3.311  -1.947  0.00  0.00    +0.043 C 
BRANCH  17  19
ATOM     19  O   UNL     1       2.380   4.408   0.105  0.00  0.00    -0.375 OA
ATOM     20  H   UNL     1       2.438   4.345   1.071  0.00  0.00    +0.211 HD
ENDBRANCH  17  19
BRANCH  17  21
ATOM     21  C   UNL     1       2.928   2.091  -0.034  0.00  0.00    +0.241 C 
BRANCH  21  22
ATOM     22  O   UNL     1       2.800   0.942  -0.866  0.00  0.00    -0.472 OA
BRANCH  22  25
ATOM     23 CL   UNL     1       4.575  -4.176   1.421  0.00  0.00    -0.080 Cl
ATOM     24  F   UNL     1       2.431  -3.790  -0.589  0.00  0.00    -0.203 F 
ATOM     25  C   UNL     1       3.213  -0.250  -0.335  0.00  0.00    +0.141 C 
ATOM     26  C   UNL     1       2.604  -1.440  -0.735  0.00  0.00    +0.067 C 
ATOM     27  C   UNL     1       4.242  -0.276   0.606  0.00  0.00    +0.038 C 
ATOM     28  C   UNL     1       3.025  -2.655  -0.195  0.00  0.00    +0.154 C 
ATOM     29  C   UNL     1       4.663  -1.491   1.147  0.00  0.00    +0.017 C 
ATOM     30  C   UNL     1       4.054  -2.680   0.747  0.00  0.00    +0.085 C 
ENDBRANCH  22  25
ENDBRANCH  21  22
ENDBRANCH  17  21
ENDBRANCH   3  17
TORSDOF 8
