REMARK  Name = 12598931
REMARK  4 active torsions:
REMARK  status: ('A' for Active; 'I' for Inactive)
REMARK    1  A    between atoms: N_2  and  N_5
REMARK    2  A    between atoms: C_3  and  C_16
REMARK    3  A    between atoms: C_18  and  S_22
REMARK    4  A    between atoms: S_22  and  N_25
REMARK                            x       y       z     vdW  Elec       q    Type
REMARK                         _______ _______ _______ _____ _____    ______ ____
ROOT
ATOM      1  O   UNL     1      -0.113  -1.225   1.327  0.00  0.00    -0.269 OA
ATOM      2  N   UNL     1      -1.154  -0.135  -0.437  0.00  0.00    -0.229 N 
ATOM      3  C   UNL     1      -0.065  -0.471   0.358  0.00  0.00    +0.262 C 
ATOM      4  H   UNL     1      -1.043   0.477  -1.200  0.00  0.00    +0.173 HD
ENDROOT
BRANCH   2   5
ATOM      5  N   UNL     1      -2.382  -0.664  -0.148  0.00  0.00    -0.240 N 
ATOM      6  C   UNL     1      -2.953  -1.701  -1.015  0.00  0.00    +0.097 C 
ATOM      7  C   UNL     1      -4.487  -1.662  -0.782  0.00  0.00    +0.049 C 
ATOM      8  C   UNL     1      -4.668  -0.295  -0.203  0.00  0.00    -0.006 C 
ATOM      9  C   UNL     1      -3.422   0.235   0.150  0.00  0.00    +0.061 C 
ATOM     10  C   UNL     1      -2.361  -3.064  -0.688  0.00  0.00    +0.024 C 
ATOM     11  C   UNL     1      -5.845   0.401   0.014  0.00  0.00    -0.003 C 
ATOM     12  C   UNL     1      -3.337   1.493   0.729  0.00  0.00    +0.016 C 
ATOM     13  C   UNL     1      -5.762   1.668   0.592  0.00  0.00    -0.000 C 
ATOM     14  C   UNL     1      -4.517   2.211   0.946  0.00  0.00    +0.001 C 
ENDBRANCH   2   5
BRANCH   3  16
ATOM     15 CL   UNL     1       5.111   2.105  -1.129  0.00  0.00    -0.081 Cl
ATOM     16  C   UNL     1       1.230   0.160  -0.005  0.00  0.00    +0.056 C 
ATOM     17  C   UNL     1       2.402  -0.493   0.315  0.00  0.00    +0.025 C 
ATOM     18  C   UNL     1       3.618   0.099  -0.027  0.00  0.00    +0.132 C 
ATOM     19  C   UNL     1       1.218   1.378  -0.652  0.00  0.00    +0.006 C 
ATOM     20  C   UNL     1       3.634   1.331  -0.682  0.00  0.00    +0.076 C 
ATOM     21  C   UNL     1       2.434   1.970  -0.994  0.00  0.00    +0.013 C 
BRANCH  18  22
ATOM     22  S   UNL     1       5.093  -0.750   0.390  0.00  0.00    +0.058 S 
ATOM     23  O   UNL     1       4.783  -2.166   0.505  0.00  0.00    -0.153 OA
ATOM     24  O   UNL     1       6.145  -0.306  -0.511  0.00  0.00    -0.153 OA
BRANCH  22  25
ATOM     25  N   UNL     1       5.396  -0.119   1.947  0.00  0.00    -0.203 NA
ATOM     26  H   UNL     1       6.248  -0.535   2.323  0.00  0.00    +0.144 HD
ATOM     27  H   UNL     1       4.611  -0.337   2.561  0.00  0.00    +0.144 HD
ENDBRANCH  22  25
ENDBRANCH  18  22
ENDBRANCH   3  16
TORSDOF 4
