REMARK  Name = 3220
REMARK  3 active torsions:
REMARK  status: ('A' for Active; 'I' for Inactive)
REMARK    1  A    between atoms: C_10  and  O_18
REMARK    2  A    between atoms: C_12  and  O_20
REMARK    3  A    between atoms: C_15  and  O_22
REMARK                            x       y       z     vdW  Elec       q    Type
REMARK                         _______ _______ _______ _____ _____    ______ ____
ROOT
ATOM      1  O   UNL     1       0.018   2.537   0.000  0.00  0.00    -0.286 OA
ATOM      2  O   UNL     1      -0.009  -2.807   0.001  0.00  0.00    -0.287 OA
ATOM      3  C   UNL     1      -1.272  -0.827   0.000  0.00  0.00    +0.045 C 
ATOM      4  C   UNL     1      -1.265   0.570   0.000  0.00  0.00    +0.076 C 
ATOM      5  C   UNL     1       1.282   0.557   0.001  0.00  0.00    +0.076 C 
ATOM      6  C   UNL     1       1.274  -0.840   0.000  0.00  0.00    +0.048 C 
ATOM      7  C   UNL     1       0.012   1.313   0.000  0.00  0.00    +0.202 C 
ATOM      8  C   UNL     1      -0.002  -1.582   0.001  0.00  0.00    +0.196 C 
ATOM      9  C   UNL     1      -2.489  -1.519   0.000  0.00  0.00    -0.001 C 
ATOM     10  C   UNL     1      -2.475   1.274  -0.001  0.00  0.00    +0.136 C 
ATOM     11  C   UNL     1      -3.692  -0.813   0.000  0.00  0.00    -0.019 C 
ATOM     12  C   UNL     1       2.499   1.249   0.001  0.00  0.00    +0.140 C 
ATOM     13  C   UNL     1       2.485  -1.544   0.000  0.00  0.00    +0.040 C 
ATOM     14  C   UNL     1      -3.685   0.580  -0.001  0.00  0.00    +0.032 C 
ATOM     15  C   UNL     1       3.695  -0.850  -0.001  0.00  0.00    +0.137 C 
ATOM     16  C   UNL     1       3.702   0.543   0.000  0.00  0.00    +0.073 C 
ATOM     17  C   UNL     1      -4.988  -1.551   0.000  0.00  0.00    +0.031 C 
ENDROOT
BRANCH  10  18
ATOM     18  O   UNL     1      -2.542   2.636   0.000  0.00  0.00    -0.505 OA
ATOM     19  H   UNL     1      -1.754   3.144   0.000  0.00  0.00    +0.292 HD
ENDBRANCH  10  18
BRANCH  12  20
ATOM     20  O   UNL     1       2.579   2.610   0.001  0.00  0.00    -0.505 OA
ATOM     21  H   UNL     1       1.797   3.126   0.002  0.00  0.00    +0.292 HD
ENDBRANCH  12  20
BRANCH  15  22
ATOM     22  O   UNL     1       4.871  -1.536  -0.001  0.00  0.00    -0.505 OA
ATOM     23  H   UNL     1       4.868  -2.473  -0.001  0.00  0.00    +0.292 HD
ENDBRANCH  15  22
TORSDOF 3
