REMARK  Name = 11992146
REMARK  2 active torsions:
REMARK  status: ('A' for Active; 'I' for Inactive)
REMARK    1  A    between atoms: C_2  and  C_14
REMARK    2  A    between atoms: C_5  and  C_20
REMARK                            x       y       z     vdW  Elec       q    Type
REMARK                         _______ _______ _______ _____ _____    ______ ____
ROOT
ATOM      1  N   UNL     1       2.504  -2.045  -0.272  0.00  0.00    -0.244 NA
ATOM      2  C   UNL     1      -0.105  -1.059  -0.107  0.00  0.00    +0.016 C 
ATOM      3  C   UNL     1       0.975  -0.210   0.105  0.00  0.00    +0.020 C 
ATOM      4  C   UNL     1       0.116  -2.399  -0.401  0.00  0.00    +0.022 C 
ATOM      5  C   UNL     1       2.249  -0.748   0.012  0.00  0.00    +0.084 C 
ATOM      6  C   UNL     1       1.429  -2.839  -0.471  0.00  0.00    +0.099 C 
ENDROOT
BRANCH   2  14
ATOM      7  O   UNL     1      -4.083   2.887  -0.364  0.00  0.00    -0.270 OA
ATOM      8  N   UNL     1      -2.502  -1.339   0.383  0.00  0.00    -0.316 N 
ATOM      9  N   UNL     1      -5.658   1.240   0.019  0.00  0.00    -0.300 N 
ATOM     10  C   UNL     1      -3.646  -0.594   0.370  0.00  0.00    +0.031 C 
ATOM     11  C   UNL     1      -4.996  -1.058   0.765  0.00  0.00    +0.063 C 
ATOM     12  C   UNL     1      -3.337   0.682  -0.053  0.00  0.00    +0.064 C 
ATOM     13  C   UNL     1      -6.024  -0.181   0.040  0.00  0.00    +0.096 C 
ATOM     14  C   UNL     1      -1.453  -0.551  -0.022  0.00  0.00    +0.048 C 
ATOM     15  C   UNL     1      -1.942   0.712  -0.294  0.00  0.00    +0.020 C 
ATOM     16  C   UNL     1      -4.356   1.708  -0.158  0.00  0.00    +0.247 C 
ATOM     17  H   UNL     1      -2.440  -2.288   0.641  0.00  0.00    +0.152 HD
ATOM     18  H   UNL     1      -6.376   1.904   0.137  0.00  0.00    +0.150 HD
ENDBRANCH   2  14
BRANCH   5  20
ATOM     19  F   UNL     1       3.512   0.618  -2.094  0.00  0.00    -0.204 F 
ATOM     20  C   UNL     1       3.419   0.072   0.219  0.00  0.00    +0.045 C 
ATOM     21  C   UNL     1       4.016   0.732  -0.857  0.00  0.00    +0.142 C 
ATOM     22  C   UNL     1       3.958   0.205   1.500  0.00  0.00    +0.004 C 
ATOM     23  C   UNL     1       5.149   1.521  -0.652  0.00  0.00    +0.030 C 
ATOM     24  C   UNL     1       5.090   0.993   1.705  0.00  0.00    +0.000 C 
ATOM     25  C   UNL     1       5.686   1.651   0.629  0.00  0.00    +0.002 C 
ENDBRANCH   5  20
TORSDOF 2
