REMARK  Name = 42627755
REMARK  2 active torsions:
REMARK  status: ('A' for Active; 'I' for Inactive)
REMARK    1  A    between atoms: N_5  and  C_20
REMARK    2  A    between atoms: C_7  and  C_28
REMARK                            x       y       z     vdW  Elec       q    Type
REMARK                         _______ _______ _______ _____ _____    ______ ____
ROOT
ATOM      1  N   UNL     1       2.502   1.143  -0.377  0.00  0.00    -0.239 N 
ATOM      2  N   UNL     1       1.585   0.169  -0.256  0.00  0.00    -0.166 NA
ATOM      3  N   UNL     1       1.839  -2.253  -0.083  0.00  0.00    -0.271 N 
ATOM      4  N   UNL     1      -0.518  -1.929   0.013  0.00  0.00    -0.322 NA
ATOM      5  N   UNL     1      -2.842  -1.657   0.111  0.00  0.00    -0.247 N 
ATOM      6  N   UNL     1      -1.981  -3.831   0.234  0.00  0.00    -0.170 NA
ATOM      7  C   UNL     1       3.788   0.689  -0.409  0.00  0.00    +0.045 C 
ATOM      8  C   UNL     1       3.705  -0.678  -0.300  0.00  0.00    +0.048 C 
ATOM      9  C   UNL     1       2.326  -0.942  -0.210  0.00  0.00    +0.152 C 
ATOM     10  C   UNL     1       0.529  -2.780   0.024  0.00  0.00    +0.199 C 
ATOM     11  C   UNL     1       0.402  -4.149   0.136  0.00  0.00    +0.070 C 
ATOM     12  C   UNL     1      -1.727  -2.514   0.120  0.00  0.00    +0.150 C 
ATOM     13  C   UNL     1      -0.889  -4.624   0.238  0.00  0.00    +0.116 C 
ATOM     14  H   UNL     1       2.268   2.098  -0.437  0.00  0.00    +0.174 HD
ATOM     15  H   UNL     1       2.545  -2.938  -0.066  0.00  0.00    +0.156 HD
ATOM     16  H   UNL     1      -3.703  -2.127   0.192  0.00  0.00    +0.165 HD
ENDROOT
BRANCH   5  20
ATOM     17  N   UNL     1      -1.348   3.010   0.749  0.00  0.00    -0.315 N 
ATOM     18  N   UNL     1      -3.158   3.889  -0.195  0.00  0.00    -0.315 N 
ATOM     19  C   UNL     1      -2.124   1.942   0.382  0.00  0.00    +0.060 C 
ATOM     20  C   UNL     1      -2.967  -0.252   0.010  0.00  0.00    +0.059 C 
ATOM     21  C   UNL     1      -3.248   2.516  -0.205  0.00  0.00    +0.059 C 
ATOM     22  C   UNL     1      -1.946   0.564   0.509  0.00  0.00    +0.031 C 
ATOM     23  C   UNL     1      -4.106   0.294  -0.584  0.00  0.00    +0.017 C 
ATOM     24  C   UNL     1      -4.264   1.681  -0.701  0.00  0.00    +0.017 C 
ATOM     25  C   UNL     1      -2.008   4.151   0.384  0.00  0.00    +0.182 C 
ATOM     26  H   UNL     1      -0.472   2.965   1.196  0.00  0.00    +0.148 HD
ATOM     27  H   UNL     1      -3.813   4.535  -0.546  0.00  0.00    +0.148 HD
ENDBRANCH   5  20
BRANCH   7  28
ATOM     28  C   UNL     1       5.049   1.532  -0.539  0.00  0.00    +0.037 C 
ATOM     29  C   UNL     1       6.120   1.393   0.502  0.00  0.00    +0.006 C 
ATOM     30  C   UNL     1       5.282   2.637   0.450  0.00  0.00    +0.006 C 
ENDBRANCH   7  28
TORSDOF 2
