REMARK  Name = 131704304
REMARK  10 active torsions:
REMARK  status: ('A' for Active; 'I' for Inactive)
REMARK    1  A    between atoms: N_2  and  C_12
REMARK    2  A    between atoms: N_3  and  C_31
REMARK    3  A    between atoms: C_5  and  O_10
REMARK    4  A    between atoms: C_12  and  C_13
REMARK    5  A    between atoms: C_13  and  N_14
REMARK    6  A    between atoms: N_14  and  C_17
REMARK    7  A    between atoms: C_17  and  C_19
REMARK    8  A    between atoms: C_23  and  N_27
REMARK    9  A    between atoms: C_31  and  C_34
REMARK   10  A    between atoms: C_34  and  C_36
REMARK                            x       y       z     vdW  Elec       q    Type
REMARK                         _______ _______ _______ _____ _____    ______ ____
ROOT
ATOM      1 CL   UNL     1      -1.174  -4.044   0.759  0.00  0.00    -0.064 Cl
ATOM      2  N   UNL     1      -0.415  -1.813  -0.482  0.00  0.00    -0.273 N 
ATOM      3  N   UNL     1       2.888  -0.087  -0.578  0.00  0.00    -0.313 N 
ATOM      4  N   UNL     1       2.240  -2.044   0.523  0.00  0.00    -0.227 NA
ATOM      5  C   UNL     1       0.618  -0.917  -1.024  0.00  0.00    +0.246 C 
ATOM      6  C   UNL     1       0.003  -2.859   0.336  0.00  0.00    +0.128 C 
ATOM      7  C   UNL     1       1.961  -1.063  -0.296  0.00  0.00    +0.153 C 
ATOM      8  C   UNL     1       1.260  -2.962   0.782  0.00  0.00    +0.126 C 
ATOM      9  H   UNL     1       2.646   0.634  -1.204  0.00  0.00    +0.148 HD
ENDROOT
BRANCH   5  10
ATOM     10  O   UNL     1       0.867  -1.199  -2.394  0.00  0.00    -0.362 OA
ATOM     11  H   UNL     1       0.041  -1.118  -2.896  0.00  0.00    +0.213 HD
ENDBRANCH   5  10
BRANCH   2  12
ATOM     12  C   UNL     1      -1.761  -1.609  -0.960  0.00  0.00    +0.071 C 
BRANCH  12  13
ATOM     13  C   UNL     1      -2.608  -0.992   0.145  0.00  0.00    -0.060 C 
BRANCH  13  14
ATOM     14  N   UNL     1      -3.966  -0.753  -0.329  0.00  0.00    +0.385 N 
ATOM     15  H   UNL     1      -3.931  -0.139  -1.143  0.00  0.00    -0.084 HD
ATOM     16  H   UNL     1      -4.386  -1.650  -0.574  0.00  0.00    -0.084 HD
BRANCH  14  17
ATOM     17  C   UNL     1      -4.777  -0.129   0.702  0.00  0.00    -0.084 C 
BRANCH  17  19
ATOM     18  N   UNL     1      -8.457   1.041   0.745  0.00  0.00    +0.375 N 
ATOM     19  C   UNL     1      -6.198   0.129   0.194  0.00  0.00    -0.041 C 
ATOM     20  C   UNL     1      -7.115   0.746   1.278  0.00  0.00    -0.067 C 
ATOM     21  C   UNL     1      -6.141   1.040  -1.042  0.00  0.00    -0.008 C 
ATOM     22  C   UNL     1      -7.546   1.365  -1.538  0.00  0.00    -0.043 C 
ATOM     23  C   UNL     1      -8.448   1.919  -0.430  0.00  0.00    -0.135 C 
ATOM     24  C   UNL     1      -7.298  -0.183   2.482  0.00  0.00    -0.024 C 
ATOM     25  H   UNL     1      -9.002   1.493   1.480  0.00  0.00    -0.087 HD
ATOM     26  H   UNL     1      -8.862   0.153   0.450  0.00  0.00    -0.087 HD
BRANCH  23  27
ATOM     27  N   UNL     1      -8.094   3.294  -0.078  0.00  0.00    +0.370 N 
ATOM     28  H   UNL     1      -8.714   3.626   0.660  0.00  0.00    -0.092 HD
ATOM     29  H   UNL     1      -8.192   3.891  -0.899  0.00  0.00    -0.092 HD
ATOM     30  H   UNL     1      -7.129   3.323   0.250  0.00  0.00    -0.092 HD
ENDBRANCH  23  27
ENDBRANCH  17  19
ENDBRANCH  14  17
ENDBRANCH  13  14
ENDBRANCH  12  13
ENDBRANCH   2  12
BRANCH   3  31
ATOM     31  C   UNL     1       4.189  -0.085   0.008  0.00  0.00    +0.162 C 
BRANCH  31  34
ATOM     32  F   UNL     1       4.309   2.246  -0.248  0.00  0.00    -0.196 F 
ATOM     33  F   UNL     1       5.042   1.019  -1.880  0.00  0.00    -0.196 F 
ATOM     34  C   UNL     1       5.000   1.099  -0.517  0.00  0.00    +0.316 C 
BRANCH  34  36
ATOM     35  N   UNL     1       6.528   1.808   1.244  0.00  0.00    -0.243 NA
ATOM     36  C   UNL     1       6.382   1.118   0.091  0.00  0.00    +0.121 C 
ATOM     37  C   UNL     1       7.412   0.443  -0.545  0.00  0.00    +0.020 C 
ATOM     38  C   UNL     1       8.672   0.478   0.041  0.00  0.00    +0.003 C 
ATOM     39  C   UNL     1       7.767   1.819   1.784  0.00  0.00    +0.099 C 
ATOM     40  C   UNL     1       8.861   1.177   1.228  0.00  0.00    +0.021 C 
ENDBRANCH  34  36
ENDBRANCH  31  34
ENDBRANCH   3  31
TORSDOF 10
