REMARK  Name = 11790
REMARK  1 active torsions:
REMARK  status: ('A' for Active; 'I' for Inactive)
REMARK    1  A    between atoms: C_7  and  C_16
REMARK                            x       y       z     vdW  Elec       q    Type
REMARK                         _______ _______ _______ _____ _____    ______ ____
ROOT
ATOM      1  O   UNL     1       0.343   0.284   0.004  0.00  0.00    -0.453 OA
ATOM      2  O   UNL     1      -0.096  -3.757  -0.133  0.00  0.00    -0.286 OA
ATOM      3  C   UNL     1      -0.924  -0.255  -0.006  0.00  0.00    +0.148 C 
ATOM      4  C   UNL     1      -2.018   0.640   0.035  0.00  0.00    +0.035 C 
ATOM      5  C   UNL     1      -1.134  -1.634  -0.055  0.00  0.00    +0.074 C 
ATOM      6  C   UNL     1      -3.332   0.108   0.026  0.00  0.00    +0.003 C 
ATOM      7  C   UNL     1       1.437  -0.564  -0.041  0.00  0.00    +0.148 C 
ATOM      8  C   UNL     1      -2.428  -2.152  -0.064  0.00  0.00    +0.006 C 
ATOM      9  C   UNL     1      -3.518  -1.283  -0.024  0.00  0.00    +0.000 C 
ATOM     10  C   UNL     1       0.025  -2.540  -0.094  0.00  0.00    +0.202 C 
ATOM     11  C   UNL     1      -1.865   2.042   0.087  0.00  0.00    +0.003 C 
ATOM     12  C   UNL     1       1.355  -1.902  -0.082  0.00  0.00    +0.080 C 
ATOM     13  C   UNL     1      -4.435   0.977   0.068  0.00  0.00    +0.000 C 
ATOM     14  C   UNL     1      -2.972   2.891   0.128  0.00  0.00    +0.000 C 
ATOM     15  C   UNL     1      -4.256   2.358   0.118  0.00  0.00    +0.000 C 
ENDROOT
BRANCH   7  16
ATOM     16  C   UNL     1       2.738   0.135  -0.017  0.00  0.00    +0.035 C 
ATOM     17  C   UNL     1       3.851  -0.471   0.571  0.00  0.00    +0.003 C 
ATOM     18  C   UNL     1       2.861   1.407  -0.582  0.00  0.00    +0.003 C 
ATOM     19  C   UNL     1       5.079   0.189   0.593  0.00  0.00    +0.000 C 
ATOM     20  C   UNL     1       4.090   2.068  -0.560  0.00  0.00    +0.000 C 
ATOM     21  C   UNL     1       5.199   1.459   0.028  0.00  0.00    +0.000 C 
ENDBRANCH   7  16
TORSDOF 1
