REMARK  Name = 11441375
REMARK  6 active torsions:
REMARK  status: ('A' for Active; 'I' for Inactive)
REMARK    1  A    between atoms: C_1  and  C_13
REMARK    2  A    between atoms: C_9  and  O_18
REMARK    3  A    between atoms: N_12  and  C_15
REMARK    4  A    between atoms: O_18  and  C_21
REMARK    5  A    between atoms: C_24  and  O_29
REMARK    6  A    between atoms: C_27  and  O_31
REMARK                            x       y       z     vdW  Elec       q    Type
REMARK                         _______ _______ _______ _____ _____    ______ ____
ROOT
ATOM      1  C   UNL     1       4.019   0.177   1.104  0.00  0.00    +0.053 C 
ATOM      2  C   UNL     1       2.788   0.215   0.428  0.00  0.00    +0.005 C 
ATOM      3  C   UNL     1       4.066   0.016   2.489  0.00  0.00    +0.005 C 
ATOM      4  C   UNL     1       1.589   0.088   1.168  0.00  0.00    +0.003 C 
ATOM      5  C   UNL     1       2.723   0.376  -0.965  0.00  0.00    +0.003 C 
ATOM      6  C   UNL     1       2.886  -0.109   3.216  0.00  0.00    +0.000 C 
ATOM      7  C   UNL     1       1.654  -0.073   2.561  0.00  0.00    +0.000 C 
ATOM      8  C   UNL     1       0.358   0.126   0.492  0.00  0.00    +0.037 C 
ATOM      9  C   UNL     1       0.311   0.286  -0.893  0.00  0.00    +0.145 C 
ATOM     10  C   UNL     1       1.491   0.411  -1.620  0.00  0.00    +0.037 C 
ENDROOT
BRANCH   1  13
ATOM     11  O   UNL     1       5.804   1.418   0.222  0.00  0.00    -0.270 OA
ATOM     12  N   UNL     1       5.893  -0.883  -0.034  0.00  0.00    -0.302 N 
ATOM     13  C   UNL     1       5.298   0.300   0.411  0.00  0.00    +0.246 C 
ATOM     14  H   UNL     1       5.436  -1.736   0.150  0.00  0.00    +0.150 HD
BRANCH  12  15
ATOM     15  C   UNL     1       7.139  -0.916  -0.748  0.00  0.00    +0.072 C 
ATOM     16  C   UNL     1       7.176  -0.704  -2.226  0.00  0.00    +0.021 C 
ATOM     17  C   UNL     1       7.472  -2.058  -1.651  0.00  0.00    +0.021 C 
ENDBRANCH  12  15
ENDBRANCH   1  13
BRANCH   9  18
ATOM     18  O   UNL     1      -0.889   0.319  -1.534  0.00  0.00    -0.453 OA
BRANCH  18  21
ATOM     19  N   UNL     1      -3.853   2.701   0.121  0.00  0.00    -0.244 NA
ATOM     20  C   UNL     1      -3.098   0.523  -0.580  0.00  0.00    +0.055 C 
ATOM     21  C   UNL     1      -1.894   1.094  -0.979  0.00  0.00    +0.148 C 
ATOM     22  C   UNL     1      -4.070   1.380  -0.024  0.00  0.00    +0.087 C 
ATOM     23  C   UNL     1      -3.358  -0.851  -0.716  0.00  0.00    +0.045 C 
ATOM     24  C   UNL     1      -4.577  -1.381  -0.304  0.00  0.00    +0.173 C 
ATOM     25  C   UNL     1      -1.653   2.443  -0.839  0.00  0.00    +0.058 C 
ATOM     26  C   UNL     1      -5.280   0.823   0.380  0.00  0.00    +0.059 C 
ATOM     27  C   UNL     1      -5.540  -0.543   0.245  0.00  0.00    +0.174 C 
ATOM     28  C   UNL     1      -2.664   3.202  -0.284  0.00  0.00    +0.102 C 
BRANCH  24  29
ATOM     29  O   UNL     1      -4.814  -2.715  -0.442  0.00  0.00    -0.468 OA
ATOM     30  C   UNL     1      -4.444  -3.556   0.650  0.00  0.00    +0.253 C 
ENDBRANCH  24  29
BRANCH  27  31
ATOM     31  O   UNL     1      -6.739  -1.040   0.656  0.00  0.00    -0.468 OA
ATOM     32  C   UNL     1      -7.792  -1.071  -0.305  0.00  0.00    +0.253 C 
ENDBRANCH  27  31
ENDBRANCH  18  21
ENDBRANCH   9  18
TORSDOF 6
