REMARK  Name = 24861080
REMARK  3 active torsions:
REMARK  status: ('A' for Active; 'I' for Inactive)
REMARK    1  A    between atoms: N_1  and  C_15
REMARK    2  A    between atoms: N_2  and  C_21
REMARK    3  A    between atoms: C_23  and  C_29
REMARK                            x       y       z     vdW  Elec       q    Type
REMARK                         _______ _______ _______ _____ _____    ______ ____
ROOT
ATOM      1  N   UNL     1      -2.312  -1.277  -0.691  0.00  0.00    -0.284 N 
ATOM      2  N   UNL     1       2.257  -2.171   0.102  0.00  0.00    -0.247 N 
ATOM      3  N   UNL     1      -0.009  -1.704  -0.291  0.00  0.00    -0.322 NA
ATOM      4  N   UNL     1       0.767  -3.975  -0.075  0.00  0.00    -0.170 NA
ATOM      5  C   UNL     1      -1.254  -2.186  -0.480  0.00  0.00    +0.198 C 
ATOM      6  C   UNL     1       0.940  -2.639  -0.098  0.00  0.00    +0.150 C 
ATOM      7  C   UNL     1      -1.564  -3.531  -0.479  0.00  0.00    +0.070 C 
ATOM      8  C   UNL     1      -0.502  -4.388  -0.270  0.00  0.00    +0.116 C 
ATOM      9  H   UNL     1      -3.035  -1.636  -1.254  0.00  0.00    +0.155 HD
ATOM     10  H   UNL     1       2.916  -2.889   0.239  0.00  0.00    +0.165 HD
ENDROOT
BRANCH   1  15
ATOM     11 CL   UNL     1      -3.958   0.510  -2.538  0.00  0.00    -0.081 Cl
ATOM     12  O   UNL     1      -1.288  -0.269   1.818  0.00  0.00    -0.433 OA
ATOM     13  O   UNL     1      -1.643   1.979   2.611  0.00  0.00    -0.435 OA
ATOM     14  C   UNL     1      -2.027   0.476   0.950  0.00  0.00    +0.191 C 
ATOM     15  C   UNL     1      -2.538   0.042  -0.256  0.00  0.00    +0.098 C 
ATOM     16  C   UNL     1      -2.229   1.759   1.403  0.00  0.00    +0.178 C 
ATOM     17  C   UNL     1      -3.276   0.955  -1.013  0.00  0.00    +0.074 C 
ATOM     18  C   UNL     1      -2.954   2.680   0.675  0.00  0.00    +0.041 C 
ATOM     19  C   UNL     1      -1.048   0.691   2.868  0.00  0.00    +0.429 C 
ATOM     20  C   UNL     1      -3.482   2.267  -0.550  0.00  0.00    +0.016 C 
ENDBRANCH   1  15
BRANCH   2  21
ATOM     21  C   UNL     1       2.811  -0.878   0.144  0.00  0.00    +0.058 C 
ATOM     22  C   UNL     1       2.240   0.151  -0.605  0.00  0.00    +0.020 C 
ATOM     23  C   UNL     1       2.790   1.432  -0.563  0.00  0.00    +0.054 C 
ATOM     24  C   UNL     1       3.933  -0.626   0.934  0.00  0.00    +0.015 C 
ATOM     25  C   UNL     1       3.912   1.684   0.226  0.00  0.00    +0.005 C 
ATOM     26  C   UNL     1       4.484   0.655   0.975  0.00  0.00    +0.001 C 
BRANCH  23  29
ATOM     27  O   UNL     1       2.675   3.652  -1.340  0.00  0.00    -0.270 OA
ATOM     28  N   UNL     1       1.078   2.201  -2.116  0.00  0.00    -0.325 N 
ATOM     29  C   UNL     1       2.196   2.505  -1.345  0.00  0.00    +0.243 C 
ATOM     30  H   UNL     1       0.648   2.902  -2.658  0.00  0.00    +0.145 HD
ATOM     31  H   UNL     1       0.716   1.286  -2.120  0.00  0.00    +0.145 HD
ENDBRANCH  23  29
ENDBRANCH   2  21
TORSDOF 3
