REMARK  Name = 448642
REMARK  5 active torsions:
REMARK  status: ('A' for Active; 'I' for Inactive)
REMARK    1  A    between atoms: N_1  and  C_28
REMARK    2  A    between atoms: C_4  and  C_13
REMARK    3  A    between atoms: C_14  and  C_19
REMARK    4  A    between atoms: C_28  and  C_29
REMARK    5  A    between atoms: C_29  and  C_31
REMARK                            x       y       z     vdW  Elec       q    Type
REMARK                         _______ _______ _______ _____ _____    ______ ____
ROOT
ATOM      1  N   UNL     1      -1.679  -1.349   0.058  0.00  0.00    -0.286 N 
ATOM      2  C   UNL     1      -1.193  -1.454  -1.219  0.00  0.00    +0.052 C 
ATOM      3  C   UNL     1      -0.667  -1.365   0.969  0.00  0.00    +0.066 C 
ATOM      4  C   UNL     1       0.514  -1.485   0.274  0.00  0.00    +0.021 C 
ATOM      5  C   UNL     1       0.197  -1.543  -1.112  0.00  0.00    +0.015 C 
ATOM      6  C   UNL     1      -1.860  -1.479  -2.449  0.00  0.00    +0.015 C 
ATOM      7  C   UNL     1       0.961  -1.662  -2.291  0.00  0.00    +0.001 C 
ATOM      8  C   UNL     1      -1.081  -1.598  -3.604  0.00  0.00    +0.001 C 
ATOM      9  C   UNL     1       0.307  -1.688  -3.528  0.00  0.00    +0.000 C 
ENDROOT
BRANCH   4  13
ATOM     10  O   UNL     1       1.940  -3.921   1.212  0.00  0.00    -0.270 OA
ATOM     11  O   UNL     1       4.830  -0.516   2.216  0.00  0.00    -0.270 OA
ATOM     12  N   UNL     1       3.640  -2.479   1.862  0.00  0.00    -0.248 N 
ATOM     13  C   UNL     1       1.807  -1.538   0.882  0.00  0.00    +0.059 C 
ATOM     14  C   UNL     1       2.652  -0.536   1.188  0.00  0.00    +0.059 C 
ATOM     15  C   UNL     1       2.435  -2.812   1.319  0.00  0.00    +0.252 C 
ATOM     16  C   UNL     1       3.854  -1.133   1.825  0.00  0.00    +0.252 C 
ATOM     17  H   UNL     1       4.278  -3.130   2.236  0.00  0.00    +0.158 HD
BRANCH  14  19
ATOM     18  N   UNL     1       1.988   3.002   1.296  0.00  0.00    -0.312 N 
ATOM     19  C   UNL     1       2.517   0.869   0.961  0.00  0.00    +0.020 C 
ATOM     20  C   UNL     1       2.931   1.618  -0.178  0.00  0.00    +0.015 C 
ATOM     21  C   UNL     1       1.940   1.750   1.849  0.00  0.00    +0.062 C 
ATOM     22  C   UNL     1       2.588   2.951   0.058  0.00  0.00    +0.048 C 
ATOM     23  C   UNL     1       3.568   1.286  -1.390  0.00  0.00    +0.001 C 
ATOM     24  C   UNL     1       2.851   3.973  -0.861  0.00  0.00    +0.015 C 
ATOM     25  C   UNL     1       3.837   2.297  -2.320  0.00  0.00    +0.000 C 
ATOM     26  C   UNL     1       3.483   3.619  -2.057  0.00  0.00    +0.001 C 
ATOM     27  H   UNL     1       1.643   3.820   1.722  0.00  0.00    +0.152 HD
ENDBRANCH  14  19
ENDBRANCH   4  13
BRANCH   1  28
ATOM     28  C   UNL     1      -3.090  -1.231   0.411  0.00  0.00    +0.093 C 
BRANCH  28  29
ATOM     29  C   UNL     1      -3.545   0.224   0.468  0.00  0.00    +0.001 C 
BRANCH  29  31
ATOM     30  N   UNL     1      -5.521   1.708   0.858  0.00  0.00    +0.387 N 
ATOM     31  C   UNL     1      -5.016   0.328   0.849  0.00  0.00    -0.057 C 
ATOM     32  C   UNL     1      -5.919  -0.355  -0.181  0.00  0.00    -0.023 C 
ATOM     33  C   UNL     1      -7.201   0.471  -0.204  0.00  0.00    -0.025 C 
ATOM     34  C   UNL     1      -6.979   1.576   0.815  0.00  0.00    -0.077 C 
ATOM     35  C   UNL     1      -5.088   2.473   2.021  0.00  0.00    -0.101 C 
ATOM     36  H   UNL     1      -5.152   2.232   0.065  0.00  0.00    -0.080 HD
ENDBRANCH  29  31
ENDBRANCH  28  29
ENDBRANCH   1  28
TORSDOF 5
