REMARK  Name = 10138993
REMARK  4 active torsions:
REMARK  status: ('A' for Active; 'I' for Inactive)
REMARK    1  A    between atoms: C_5  and  N_18
REMARK    2  A    between atoms: C_12  and  C_22
REMARK    3  A    between atoms: C_22  and  C_26
REMARK    4  A    between atoms: C_23  and  N_29
REMARK                            x       y       z     vdW  Elec       q    Type
REMARK                         _______ _______ _______ _____ _____    ______ ____
ROOT
ATOM      1  O   UNL     1      -1.041  -3.089   0.663  0.00  0.00    -0.274 OA
ATOM      2  N   UNL     1       2.695  -3.371  -1.243  0.00  0.00    -0.275 N 
ATOM      3  N   UNL     1       0.683  -1.502   0.826  0.00  0.00    -0.268 N 
ATOM      4  N   UNL     1       1.524  -3.214  -0.604  0.00  0.00    -0.157 NA
ATOM      5  C   UNL     1       4.899  -0.061  -0.253  0.00  0.00    +0.069 C 
ATOM      6  C   UNL     1       3.598  -0.290   0.212  0.00  0.00    +0.020 C 
ATOM      7  C   UNL     1       5.530  -0.975  -1.100  0.00  0.00    +0.018 C 
ATOM      8  C   UNL     1       2.936  -1.461  -0.193  0.00  0.00    +0.052 A 
ATOM      9  C   UNL     1       3.587  -2.353  -1.038  0.00  0.00    +0.077 A 
ATOM     10  C   UNL     1       4.884  -2.145  -1.513  0.00  0.00    +0.020 C 
ATOM     11  C   UNL     1       1.687  -2.058   0.023  0.00  0.00    +0.155 A 
ATOM     12  C   UNL     1      -0.576  -2.036   1.086  0.00  0.00    +0.232 C 
ATOM     13  H   UNL     1       2.894  -4.150  -1.811  0.00  0.00    +0.189 HD
ATOM     14  H   UNL     1       0.890  -0.640   1.253  0.00  0.00    +0.156 HD
ENDROOT
BRANCH   5  18
ATOM     15  S   UNL     1       4.698   2.625   0.274  0.00  0.00    +0.057 S 
ATOM     16  O   UNL     1       3.762   2.740  -0.827  0.00  0.00    -0.154 OA
ATOM     17  O   UNL     1       4.298   2.832   1.650  0.00  0.00    -0.154 OA
ATOM     18  N   UNL     1       5.602   1.143   0.154  0.00  0.00    -0.194 N 
ATOM     19  C   UNL     1       6.104   3.666  -0.088  0.00  0.00    +0.174 C 
ATOM     20  C   UNL     1       7.322   2.805   0.201  0.00  0.00    +0.051 C 
ATOM     21  C   UNL     1       6.988   1.411  -0.325  0.00  0.00    +0.117 C 
ENDBRANCH   5  18
BRANCH  12  22
ATOM     22  C   UNL     1      -1.373  -1.121   2.013  0.00  0.00    +0.112 C 
BRANCH  22  26
ATOM     23  C   UNL     1      -5.060   0.313   0.309  0.00  0.00    +0.048 C 
ATOM     24  C   UNL     1      -3.860   1.032   0.147  0.00  0.00    +0.014 C 
ATOM     25  C   UNL     1      -5.021  -0.888   1.043  0.00  0.00    +0.014 C 
ATOM     26  C   UNL     1      -2.650  -0.625   1.423  0.00  0.00    -0.013 C 
ATOM     27  C   UNL     1      -2.666   0.568   0.699  0.00  0.00    -0.003 C 
ATOM     28  C   UNL     1      -3.827  -1.352   1.595  0.00  0.00    -0.003 C 
BRANCH  23  29
ATOM     29  N   UNL     1      -6.259   0.779  -0.246  0.00  0.00    -0.307 N 
ATOM     30  C   UNL     1      -8.672   1.714  -1.524  0.00  0.00    +0.004 C 
ATOM     31  C   UNL     1      -7.958   2.548  -0.468  0.00  0.00    +0.021 C 
ATOM     32  C   UNL     1      -8.430   0.230  -1.274  0.00  0.00    +0.021 C 
ATOM     33  C   UNL     1      -6.466   2.223  -0.406  0.00  0.00    +0.091 C 
ATOM     34  C   UNL     1      -6.938  -0.090  -1.218  0.00  0.00    +0.091 C 
ENDBRANCH  23  29
ENDBRANCH  22  26
ENDBRANCH  12  22
TORSDOF 4
