REMARK  Name = 54929
REMARK  7 active torsions:
REMARK  status: ('A' for Active; 'I' for Inactive)
REMARK    1  A    between atoms: N_3  and  C_17
REMARK    2  A    between atoms: C_5  and  C_10
REMARK    3  A    between atoms: C_10  and  C_11
REMARK    4  A    between atoms: C_17  and  O_18
REMARK    5  A    between atoms: O_18  and  C_19
REMARK    6  A    between atoms: C_19  and  C_20
REMARK    7  A    between atoms: C_20  and  O_21
REMARK                            x       y       z     vdW  Elec       q    Type
REMARK                         _______ _______ _______ _____ _____    ______ ____
ROOT
ATOM      1  O   UNL     1       1.805  -2.856   0.523  0.00  0.00    -0.270 OA
ATOM      2  O   UNL     1      -2.753  -2.479   1.005  0.00  0.00    -0.252 OA
ATOM      3  N   UNL     1      -1.667  -1.038  -0.474  0.00  0.00    -0.216 N 
ATOM      4  N   UNL     1      -0.480  -2.656   0.755  0.00  0.00    -0.236 N 
ATOM      5  C   UNL     1       0.708  -1.191  -0.764  0.00  0.00    +0.051 C 
ATOM      6  C   UNL     1      -0.477  -0.636  -1.046  0.00  0.00    +0.072 C 
ATOM      7  C   UNL     1       0.750  -2.304   0.221  0.00  0.00    +0.250 C 
ATOM      8  C   UNL     1      -1.720  -2.079   0.463  0.00  0.00    +0.315 C 
ATOM      9  H   UNL     1      -0.480  -3.390   1.411  0.00  0.00    +0.159 HD
ENDROOT
BRANCH   5  10
ATOM     10  C   UNL     1       1.995  -0.752  -1.385  0.00  0.00    +0.059 C 
BRANCH  10  11
ATOM     11  C   UNL     1       2.677   0.334  -0.598  0.00  0.00    -0.018 C 
ATOM     12  C   UNL     1       3.580  -0.009   0.400  0.00  0.00    -0.004 C 
ATOM     13  C   UNL     1       2.394   1.663  -0.879  0.00  0.00    -0.004 C 
ATOM     14  C   UNL     1       4.212   0.998   1.130  0.00  0.00    -0.000 C 
ATOM     15  C   UNL     1       3.026   2.670  -0.149  0.00  0.00    -0.000 C 
ATOM     16  C   UNL     1       3.935   2.337   0.856  0.00  0.00    -0.000 C 
ENDBRANCH  10  11
ENDBRANCH   5  10
BRANCH   3  17
ATOM     17  C   UNL     1      -2.884  -0.342  -0.877  0.00  0.00    +0.248 C 
BRANCH  17  18
ATOM     18  O   UNL     1      -3.085   0.762  -0.008  0.00  0.00    -0.331 OA
BRANCH  18  19
ATOM     19  C   UNL     1      -4.277   1.466  -0.326  0.00  0.00    +0.176 C 
BRANCH  19  20
ATOM     20  C   UNL     1      -4.436   2.630   0.633  0.00  0.00    +0.169 C 
BRANCH  20  21
ATOM     21  O   UNL     1      -3.304   3.483   0.519  0.00  0.00    -0.379 OA
ATOM     22  H   UNL     1      -3.399   4.230   1.131  0.00  0.00    +0.211 HD
ENDBRANCH  20  21
ENDBRANCH  19  20
ENDBRANCH  18  19
ENDBRANCH  17  18
ENDBRANCH   3  17
TORSDOF 7
