REMARK  Name = 25011729
REMARK  3 active torsions:
REMARK  status: ('A' for Active; 'I' for Inactive)
REMARK    1  A    between atoms: N_1  and  C_15
REMARK    2  A    between atoms: N_2  and  C_22
REMARK    3  A    between atoms: C_21  and  S_27
REMARK                            x       y       z     vdW  Elec       q    Type
REMARK                         _______ _______ _______ _____ _____    ______ ____
ROOT
ATOM      1  N   UNL     1      -2.508  -1.046  -0.766  0.00  0.00    -0.284 N 
ATOM      2  N   UNL     1       1.872  -2.583   0.098  0.00  0.00    -0.247 N 
ATOM      3  N   UNL     1      -0.297  -1.797  -0.330  0.00  0.00    -0.322 NA
ATOM      4  N   UNL     1       0.161  -4.160  -0.205  0.00  0.00    -0.170 NA
ATOM      5  C   UNL     1      -1.589  -2.098  -0.573  0.00  0.00    +0.198 C 
ATOM      6  C   UNL     1       0.512  -2.860  -0.159  0.00  0.00    +0.150 C 
ATOM      7  C   UNL     1      -2.075  -3.387  -0.647  0.00  0.00    +0.070 C 
ATOM      8  C   UNL     1      -1.145  -4.388  -0.453  0.00  0.00    +0.116 C 
ATOM      9  H   UNL     1      -3.255  -1.278  -1.365  0.00  0.00    +0.155 HD
ATOM     10  H   UNL     1       2.425  -3.389   0.216  0.00  0.00    +0.165 HD
ENDROOT
BRANCH   1  15
ATOM     11 CL   UNL     1      -3.841   1.029  -2.565  0.00  0.00    -0.081 Cl
ATOM     12  O   UNL     1      -1.440  -0.299   1.814  0.00  0.00    -0.433 OA
ATOM     13  O   UNL     1      -1.515   1.938   2.707  0.00  0.00    -0.435 OA
ATOM     14  C   UNL     1      -2.044   0.576   0.965  0.00  0.00    +0.191 C 
ATOM     15  C   UNL     1      -2.570   0.271  -0.273  0.00  0.00    +0.098 C 
ATOM     16  C   UNL     1      -2.087   1.854   1.475  0.00  0.00    +0.178 C 
ATOM     17  C   UNL     1      -3.155   1.309  -1.003  0.00  0.00    +0.074 C 
ATOM     18  C   UNL     1      -2.659   2.897   0.775  0.00  0.00    +0.041 C 
ATOM     19  C   UNL     1      -1.107   0.571   2.916  0.00  0.00    +0.429 C 
ATOM     20  C   UNL     1      -3.199   2.614  -0.482  0.00  0.00    +0.016 C 
ENDBRANCH   1  15
BRANCH   2  22
ATOM     21  C   UNL     1       2.902   0.942  -0.376  0.00  0.00    +0.107 C 
ATOM     22  C   UNL     1       2.593  -1.380   0.217  0.00  0.00    +0.059 C 
ATOM     23  C   UNL     1       2.188  -0.251  -0.494  0.00  0.00    +0.034 C 
ATOM     24  C   UNL     1       4.022   1.004   0.454  0.00  0.00    +0.018 C 
ATOM     25  C   UNL     1       3.713  -1.317   1.046  0.00  0.00    +0.015 C 
ATOM     26  C   UNL     1       4.427  -0.125   1.165  0.00  0.00    +0.003 C 
BRANCH  21  27
ATOM     27  S   UNL     1       2.395   2.356  -1.265  0.00  0.00    +0.010 S 
ATOM     28  O   UNL     1       3.557   3.216  -1.441  0.00  0.00    -0.169 OA
ATOM     29  O   UNL     1       1.627   1.932  -2.428  0.00  0.00    -0.169 OA
ATOM     30  C   UNL     1       1.263   3.183  -0.171  0.00  0.00    +0.182 C 
ENDBRANCH  21  27
ENDBRANCH   2  22
TORSDOF 3
