REMARK  Name = 78058
REMARK  16 active torsions:
REMARK  status: ('A' for Active; 'I' for Inactive)
REMARK    1  A    between atoms: C_1  and  O_2
REMARK    2  A    between atoms: C_1  and  C_11
REMARK    3  A    between atoms: O_2  and  C_3
REMARK    4  A    between atoms: C_3  and  C_4
REMARK    5  A    between atoms: C_4  and  O_5
REMARK    6  A    between atoms: O_5  and  C_6
REMARK    7  A    between atoms: C_6  and  C_7
REMARK    8  A    between atoms: C_7  and  O_8
REMARK    9  A    between atoms: O_8  and  C_9
REMARK   10  A    between atoms: C_11  and  O_12
REMARK   11  A    between atoms: O_12  and  C_13
REMARK   12  A    between atoms: C_13  and  C_14
REMARK   13  A    between atoms: C_14  and  O_15
REMARK   14  A    between atoms: O_15  and  C_16
REMARK   15  A    between atoms: C_16  and  C_17
REMARK   16  A    between atoms: C_17  and  O_18
REMARK                            x       y       z     vdW  Elec       q    Type
REMARK                         _______ _______ _______ _____ _____    ______ ____
ROOT
ATOM      1  C   UNL     1       1.715   3.120  -0.601  0.00  0.00    +0.174 C 
ENDROOT
BRANCH   1   2
ATOM      2  O   UNL     1       0.653   2.640   0.214  0.00  0.00    -0.348 OA
BRANCH   2   3
ATOM      3  C   UNL     1      -0.526   3.412   0.040  0.00  0.00    +0.174 C 
BRANCH   3   4
ATOM      4  C   UNL     1      -1.619   2.855   0.932  0.00  0.00    +0.174 C 
BRANCH   4   5
ATOM      5  O   UNL     1      -1.882   1.508   0.557  0.00  0.00    -0.348 OA
BRANCH   5   6
ATOM      6  C   UNL     1      -2.886   0.926   1.377  0.00  0.00    +0.174 C 
BRANCH   6   7
ATOM      7  C   UNL     1      -3.122  -0.504   0.930  0.00  0.00    +0.174 C 
BRANCH   7   8
ATOM      8  O   UNL     1      -3.566  -0.501  -0.421  0.00  0.00    -0.351 OA
BRANCH   8   9
ATOM      9  C   UNL     1      -3.783  -1.821  -0.901  0.00  0.00    +0.142 C 
ATOM     10  C   UNL     1      -4.252  -1.752  -2.338  0.00  0.00    +0.035 C 
ENDBRANCH   8   9
ENDBRANCH   7   8
ENDBRANCH   6   7
ENDBRANCH   5   6
ENDBRANCH   4   5
ENDBRANCH   3   4
ENDBRANCH   2   3
ENDBRANCH   1   2
BRANCH   1  11
ATOM     11  C   UNL     1       2.950   2.274  -0.354  0.00  0.00    +0.174 C 
BRANCH  11  12
ATOM     12  O   UNL     1       2.653   0.920  -0.665  0.00  0.00    -0.348 OA
BRANCH  12  13
ATOM     13  C   UNL     1       3.786   0.081  -0.472  0.00  0.00    +0.174 C 
BRANCH  13  14
ATOM     14  C   UNL     1       3.409  -1.347  -0.818  0.00  0.00    +0.174 C 
BRANCH  14  15
ATOM     15  O   UNL     1       2.362  -1.771   0.043  0.00  0.00    -0.348 OA
BRANCH  15  16
ATOM     16  C   UNL     1       1.951  -3.101  -0.252  0.00  0.00    +0.174 C 
BRANCH  16  17
ATOM     17  C   UNL     1       0.836  -3.497   0.697  0.00  0.00    +0.169 C 
BRANCH  17  18
ATOM     18  O   UNL     1       1.322  -3.443   2.032  0.00  0.00    -0.379 OA
ATOM     19  H   UNL     1       0.613  -3.695   2.645  0.00  0.00    +0.211 HD
ENDBRANCH  17  18
ENDBRANCH  16  17
ENDBRANCH  15  16
ENDBRANCH  14  15
ENDBRANCH  13  14
ENDBRANCH  12  13
ENDBRANCH  11  12
ENDBRANCH   1  11
TORSDOF 16
