REMARK  Name = 25011730
REMARK  4 active torsions:
REMARK  status: ('A' for Active; 'I' for Inactive)
REMARK    1  A    between atoms: N_1  and  C_15
REMARK    2  A    between atoms: N_2  and  C_22
REMARK    3  A    between atoms: C_21  and  N_27
REMARK    4  A    between atoms: N_27  and  S_29
REMARK                            x       y       z     vdW  Elec       q    Type
REMARK                         _______ _______ _______ _____ _____    ______ ____
ROOT
ATOM      1  N   UNL     1      -2.647   0.452  -1.163  0.00  0.00    -0.284 N 
ATOM      2  N   UNL     1       1.220   2.861   0.079  0.00  0.00    -0.247 N 
ATOM      3  N   UNL     1      -0.691   1.644  -0.531  0.00  0.00    -0.322 NA
ATOM      4  N   UNL     1      -0.585   4.029  -0.860  0.00  0.00    -0.170 NA
ATOM      5  C   UNL     1      -1.934   1.665  -1.055  0.00  0.00    +0.198 C 
ATOM      6  C   UNL     1      -0.083   2.844  -0.464  0.00  0.00    +0.150 C 
ATOM      7  C   UNL     1      -2.561   2.812  -1.497  0.00  0.00    +0.070 C 
ATOM      8  C   UNL     1      -1.831   3.976  -1.374  0.00  0.00    +0.116 C 
ATOM      9  H   UNL     1      -3.278   0.431  -1.918  0.00  0.00    +0.155 HD
ATOM     10  H   UNL     1       1.625   3.758   0.108  0.00  0.00    +0.165 HD
ENDROOT
BRANCH   1  15
ATOM     11 CL   UNL     1      -3.304  -2.130  -2.651  0.00  0.00    -0.081 Cl
ATOM     12  O   UNL     1      -2.035   0.418   1.663  0.00  0.00    -0.433 OA
ATOM     13  O   UNL     1      -2.002  -1.581   3.009  0.00  0.00    -0.435 OA
ATOM     14  C   UNL     1      -2.337  -0.697   0.942  0.00  0.00    +0.191 C 
ATOM     15  C   UNL     1      -2.635  -0.733  -0.405  0.00  0.00    +0.098 C 
ATOM     16  C   UNL     1      -2.318  -1.838   1.711  0.00  0.00    +0.178 C 
ATOM     17  C   UNL     1      -2.919  -1.978  -0.972  0.00  0.00    +0.074 C 
ATOM     18  C   UNL     1      -2.596  -3.079   1.175  0.00  0.00    +0.041 C 
ATOM     19  C   UNL     1      -1.825  -0.150   2.972  0.00  0.00    +0.429 C 
ATOM     20  C   UNL     1      -2.900  -3.144  -0.187  0.00  0.00    +0.016 C 
ENDBRANCH   1  15
BRANCH   2  22
ATOM     21  C   UNL     1       2.780  -0.457   0.594  0.00  0.00    +0.066 C 
ATOM     22  C   UNL     1       2.054   1.847   0.588  0.00  0.00    +0.059 C 
ATOM     23  C   UNL     1       1.955   0.548   0.090  0.00  0.00    +0.031 C 
ATOM     24  C   UNL     1       3.705  -0.163   1.596  0.00  0.00    +0.016 C 
ATOM     25  C   UNL     1       2.978   2.141   1.590  0.00  0.00    +0.015 C 
ATOM     26  C   UNL     1       3.804   1.137   2.094  0.00  0.00    +0.003 C 
BRANCH  21  27
ATOM     27  N   UNL     1       2.679  -1.787   0.084  0.00  0.00    -0.219 N 
ATOM     28  H   UNL     1       2.300  -2.511   0.632  0.00  0.00    +0.173 HD
BRANCH  27  29
ATOM     29  S   UNL     1       3.239  -2.089  -1.516  0.00  0.00    +0.056 S 
ATOM     30  O   UNL     1       2.806  -3.417  -1.910  0.00  0.00    -0.154 OA
ATOM     31  O   UNL     1       2.993  -0.949  -2.376  0.00  0.00    -0.154 OA
ATOM     32  C   UNL     1       4.991  -2.184  -1.224  0.00  0.00    +0.200 C 
ENDBRANCH  27  29
ENDBRANCH  21  27
ENDBRANCH   2  22
TORSDOF 4
