9884318
  -OEChem-10051720573D

 46 48  0     0  0  0  0  0  0999 V2000
   -5.5703   -1.7937    1.0886 O   0  0  0  0  0  0  0  0  0  0  0  0
   -0.7665   -3.1151   -0.2096 O   0  0  0  0  0  0  0  0  0  0  0  0
    2.2892   -1.3965   -0.0187 O   0  0  0  0  0  0  0  0  0  0  0  0
   -0.6311    1.9967   -0.0337 N   0  0  0  0  0  0  0  0  0  0  0  0
   -0.3043   -0.8334   -0.1234 N   0  0  0  0  0  0  0  0  0  0  0  0
    5.5060   -0.2139    0.1908 N   0  0  0  0  0  0  0  0  0  0  0  0
    1.5709    3.8665    0.1603 C   0  0  0  0  0  0  0  0  0  0  0  0
    1.0326    3.3931   -1.1934 C   0  0  0  0  0  0  0  0  0  0  0  0
    1.3501    2.7714    1.2089 C   0  0  0  0  0  0  0  0  0  0  0  0
   -0.4367    2.9811   -1.1033 C   0  0  0  0  0  0  0  0  0  0  0  0
   -0.1207    2.3668    1.2934 C   0  0  0  0  0  0  0  0  0  0  0  0
    3.0494    4.2334    0.0601 C   0  0  0  0  0  0  0  0  0  0  0  0
   -1.7328    1.1342   -0.0833 C   0  0  0  0  0  0  0  0  0  0  0  0
   -1.5823   -0.2670   -0.1279 C   0  0  0  0  0  0  0  0  0  0  0  0
   -3.0405    1.6591   -0.0897 C   0  0  0  0  0  0  0  0  0  0  0  0
   -2.6943   -1.1079   -0.1772 C   0  0  0  0  0  0  0  0  0  0  0  0
   -4.1522    0.8183   -0.1389 C   0  0  0  0  0  0  0  0  0  0  0  0
   -3.9792   -0.5651   -0.1826 C   0  0  0  0  0  0  0  0  0  0  0  0
   -5.1684   -1.4636   -0.2353 C   0  0  0  0  0  0  0  0  0  0  0  0
    0.0482   -2.1960   -0.1631 C   0  0  0  0  0  0  0  0  0  0  0  0
    1.4947   -2.4673   -0.1027 C   0  0  0  0  0  0  0  0  0  0  0  0
    2.1531   -3.6376   -0.1192 C   0  0  0  0  0  0  0  0  0  0  0  0
    3.5194   -3.2776   -0.0367 C   0  0  0  0  0  0  0  0  0  0  0  0
    3.5493   -1.9038    0.0224 C   0  0  0  0  0  0  0  0  0  0  0  0
    4.6163   -0.9823    0.1143 C   0  0  0  0  0  0  0  0  0  0  0  0
    1.0168    4.7640    0.4657 H   0  0  0  0  0  0  0  0  0  0  0  0
    1.6237    2.5376   -1.5465 H   0  0  0  0  0  0  0  0  0  0  0  0
    1.1411    4.1866   -1.9422 H   0  0  0  0  0  0  0  0  0  0  0  0
    1.6885    3.1163    2.1930 H   0  0  0  0  0  0  0  0  0  0  0  0
    1.9522    1.8888    0.9547 H   0  0  0  0  0  0  0  0  0  0  0  0
   -1.0618    3.8625   -0.9147 H   0  0  0  0  0  0  0  0  0  0  0  0
   -0.7411    2.5600   -2.0694 H   0  0  0  0  0  0  0  0  0  0  0  0
   -0.2104    1.5257    1.9920 H   0  0  0  0  0  0  0  0  0  0  0  0
   -0.7184    3.1931    1.6979 H   0  0  0  0  0  0  0  0  0  0  0  0
    3.6551    3.3720   -0.2416 H   0  0  0  0  0  0  0  0  0  0  0  0
    3.2024    5.0294   -0.6762 H   0  0  0  0  0  0  0  0  0  0  0  0
    3.4264    4.5910    1.0239 H   0  0  0  0  0  0  0  0  0  0  0  0
   -3.1989    2.7347   -0.0505 H   0  0  0  0  0  0  0  0  0  0  0  0
   -2.6456   -2.1855   -0.2094 H   0  0  0  0  0  0  0  0  0  0  0  0
   -5.1483    1.2530   -0.1396 H   0  0  0  0  0  0  0  0  0  0  0  0
    0.4629   -0.1654   -0.0826 H   0  0  0  0  0  0  0  0  0  0  0  0
   -6.0059   -0.9767   -0.7473 H   0  0  0  0  0  0  0  0  0  0  0  0
   -4.9432   -2.3880   -0.7784 H   0  0  0  0  0  0  0  0  0  0  0  0
   -6.3452   -2.3763    1.0141 H   0  0  0  0  0  0  0  0  0  0  0  0
    1.7395   -4.6338   -0.1814 H   0  0  0  0  0  0  0  0  0  0  0  0
    4.3722   -3.9419   -0.0224 H   0  0  0  0  0  0  0  0  0  0  0  0
  1 19  1  0  0  0  0
  1 44  1  0  0  0  0
  2 20  2  0  0  0  0
  3 21  1  0  0  0  0
  3 24  1  0  0  0  0
  4 10  1  0  0  0  0
  4 11  1  0  0  0  0
  4 13  1  0  0  0  0
  5 14  1  0  0  0  0
  5 20  1  0  0  0  0
  5 41  1  0  0  0  0
  6 25  3  0  0  0  0
  7  8  1  0  0  0  0
  7  9  1  0  0  0  0
  7 12  1  0  0  0  0
  7 26  1  0  0  0  0
  8 10  1  0  0  0  0
  8 27  1  0  0  0  0
  8 28  1  0  0  0  0
  9 11  1  0  0  0  0
  9 29  1  0  0  0  0
  9 30  1  0  0  0  0
 10 31  1  0  0  0  0
 10 32  1  0  0  0  0
 11 33  1  0  0  0  0
 11 34  1  0  0  0  0
 12 35  1  0  0  0  0
 12 36  1  0  0  0  0
 12 37  1  0  0  0  0
 13 14  2  0  0  0  0
 13 15  1  0  0  0  0
 14 16  1  0  0  0  0
 15 17  2  0  0  0  0
 15 38  1  0  0  0  0
 16 18  2  0  0  0  0
 16 39  1  0  0  0  0
 17 18  1  0  0  0  0
 17 40  1  0  0  0  0
 18 19  1  0  0  0  0
 19 42  1  0  0  0  0
 19 43  1  0  0  0  0
 20 21  1  0  0  0  0
 21 22  2  0  0  0  0
 22 23  1  0  0  0  0
 22 45  1  0  0  0  0
 23 24  2  0  0  0  0
 23 46  1  0  0  0  0
 24 25  1  0  0  0  0
M  END
> <DATABASE_ID>
DB07167

> <DATABASE_NAME>
drugbank

> <ORIGINAL_SOURCE>
PUBCHEM

> <ORIGINAL_SOURCE_URL>
https://pubchem.ncbi.nlm.nih.gov/rest/pug/compound/inchikey/NNPCFFIJVKYGHR-UHFFFAOYSA-N/SDF?record_type=3d

> <SMILES>
CC1CCN(CC1)C1=CC=C(CO)C=C1NC(=O)C1=CC=C(O1)C#N

> <INCHI_IDENTIFIER>
InChI=1S/C19H21N3O3/c1-13-6-8-22(9-7-13)17-4-2-14(12-23)10-16(17)21-19(24)18-5-3-15(11-20)25-18/h2-5,10,13,23H,6-9,12H2,1H3,(H,21,24)

> <INCHI_KEY>
NNPCFFIJVKYGHR-UHFFFAOYSA-N

> <FORMULA>
C19H21N3O3

> <MOLECULAR_WEIGHT>
339.3883

> <EXACT_MASS>
339.158291553

> <JCHEM_ACCEPTOR_COUNT>
4

> <JCHEM_AVERAGE_POLARIZABILITY>
36.94211564768042

> <JCHEM_BIOAVAILABILITY>
1

> <JCHEM_DONOR_COUNT>
2

> <JCHEM_FORMAL_CHARGE>
0

> <JCHEM_GHOSE_FILTER>
1

> <JCHEM_IUPAC>
5-cyano-N-[5-(hydroxymethyl)-2-(4-methylpiperidin-1-yl)phenyl]furan-2-carboxamide

> <ALOGPS_LOGP>
3.01

> <JCHEM_LOGP>
2.379553896999999

> <ALOGPS_LOGS>
-2.96

> <JCHEM_MDDR_LIKE_RULE>
0

> <JCHEM_NUMBER_OF_RINGS>
3

> <JCHEM_PHYSIOLOGICAL_CHARGE>
0

> <JCHEM_PKA>
15.120801400662742

> <JCHEM_PKA_STRONGEST_ACIDIC>
10.005439677738323

> <JCHEM_PKA_STRONGEST_BASIC>
3.9857761610019313

> <JCHEM_POLAR_SURFACE_AREA>
89.5

> <JCHEM_REFRACTIVITY>
97.51659999999998

> <JCHEM_ROTATABLE_BOND_COUNT>
4

> <JCHEM_RULE_OF_FIVE>
1

> <ALOGPS_SOLUBILITY>
3.74e-01 g/l

> <JCHEM_TRADITIONAL_IUPAC>
5-cyano-N-[5-(hydroxymethyl)-2-(4-methylpiperidin-1-yl)phenyl]furan-2-carboxamide

> <JCHEM_VEBER_RULE>
0

> <DRUGBANK_ID>
DB07167

> <DRUG_GROUPS>
experimental

> <GENERIC_NAME>
5-CYANO-FURAN-2-CARBOXYLIC ACID [5-HYDROXYMETHYL-2-(4-METHYL-PIPERIDIN-1-YL)-PHENYL]-AMIDE

$$$$
