REMARK  Name = 23653533
REMARK  9 active torsions:
REMARK  status: ('A' for Active; 'I' for Inactive)
REMARK    1  A    between atoms: N_2  and  C_24
REMARK    2  A    between atoms: C_3  and  C_5
REMARK    3  A    between atoms: C_10  and  O_13
REMARK    4  A    between atoms: O_13  and  C_14
REMARK    5  A    between atoms: C_14  and  C_15
REMARK    6  A    between atoms: C_15  and  N_16
REMARK    7  A    between atoms: C_21  and  N_27
REMARK    8  A    between atoms: C_26  and  O_33
REMARK    9  A    between atoms: O_33  and  C_34
REMARK                            x       y       z     vdW  Elec       q    Type
REMARK                         _______ _______ _______ _____ _____    ______ ____
ROOT
ATOM      1  O   UNL     1       0.124   1.748  -0.064  0.00  0.00    -0.270 OA
ATOM      2  N   UNL     1       0.288  -0.589  -0.268  0.00  0.00    -0.278 N 
ATOM      3  C   UNL     1      -0.382   0.639  -0.201  0.00  0.00    +0.250 C 
ATOM      4  H   UNL     1      -0.280  -1.385  -0.381  0.00  0.00    +0.155 HD
ENDROOT
BRANCH   3   5
ATOM      5  C   UNL     1      -1.864   0.560  -0.282  0.00  0.00    +0.053 C 
ATOM      6  C   UNL     1      -3.885  -0.663   0.068  0.00  0.00    +0.012 C 
ATOM      7  C   UNL     1      -3.952   1.568  -0.855  0.00  0.00    +0.012 C 
ATOM      8  C   UNL     1      -2.561   1.641  -0.780  0.00  0.00    +0.003 C 
ATOM      9  C   UNL     1      -2.494  -0.591   0.144  0.00  0.00    +0.003 C 
ATOM     10  C   UNL     1      -4.614   0.416  -0.431  0.00  0.00    +0.130 C 
ATOM     11  C   UNL     1      -4.576  -1.905   0.527  0.00  0.00    +0.034 C 
ATOM     12  C   UNL     1      -4.715   2.734  -1.392  0.00  0.00    +0.034 C 
BRANCH  10  13
ATOM     13  O   UNL     1      -5.974   0.345  -0.505  0.00  0.00    -0.478 OA
BRANCH  13  14
ATOM     14  C   UNL     1      -6.707   0.793   0.632  0.00  0.00    +0.182 C 
BRANCH  14  15
ATOM     15  C   UNL     1      -8.193   0.654   0.342  0.00  0.00    -0.038 C 
BRANCH  15  16
ATOM     16  N   UNL     1      -8.983   1.085   1.486  0.00  0.00    +0.383 N 
ATOM     17  H   UNL     1      -9.975   0.984   1.271  0.00  0.00    -0.089 HD
ATOM     18  H   UNL     1      -8.778   2.063   1.691  0.00  0.00    -0.089 HD
ATOM     19  H   UNL     1      -8.750   0.511   2.296  0.00  0.00    -0.089 HD
ENDBRANCH  15  16
ENDBRANCH  14  15
ENDBRANCH  13  14
ENDBRANCH  10  13
ENDBRANCH   3   5
BRANCH   2  24
ATOM     20 CL   UNL     1       4.208  -3.924  -0.303  0.00  0.00    -0.079 Cl
ATOM     21  C   UNL     1       3.923   0.065   0.044  0.00  0.00    +0.050 C 
ATOM     22  C   UNL     1       2.530   0.259  -0.034  0.00  0.00    +0.032 C 
ATOM     23  C   UNL     1       4.415  -1.252  -0.043  0.00  0.00    +0.029 C 
ATOM     24  C   UNL     1       1.663  -0.822  -0.194  0.00  0.00    +0.087 C 
ATOM     25  C   UNL     1       3.548  -2.333  -0.203  0.00  0.00    +0.094 C 
ATOM     26  C   UNL     1       2.172  -2.118  -0.278  0.00  0.00    +0.162 C 
BRANCH  21  27
ATOM     27  N   UNL     1       4.793   1.150   0.205  0.00  0.00    -0.307 N 
ATOM     28  C   UNL     1       6.550   3.431   0.402  0.00  0.00    +0.004 C 
ATOM     29  C   UNL     1       6.994   2.143  -0.281  0.00  0.00    +0.021 C 
ATOM     30  C   UNL     1       5.522   3.124   1.484  0.00  0.00    +0.021 C 
ATOM     31  C   UNL     1       5.803   1.368  -0.840  0.00  0.00    +0.091 C 
ATOM     32  C   UNL     1       4.333   2.342   0.927  0.00  0.00    +0.091 C 
ENDBRANCH  21  27
BRANCH  26  33
ATOM     33  O   UNL     1       1.318  -3.171  -0.435  0.00  0.00    -0.473 OA
BRANCH  33  34
ATOM     34  C   UNL     1       0.827  -3.785   0.753  0.00  0.00    +0.206 C 
ATOM     35  C   UNL     1      -0.109  -4.913   0.375  0.00  0.00    +0.051 C 
ENDBRANCH  33  34
ENDBRANCH  26  33
ENDBRANCH   2  24
TORSDOF 9
