REMARK  Name = 5288636
REMARK  6 active torsions:
REMARK  status: ('A' for Active; 'I' for Inactive)
REMARK    1  A    between atoms: C_1  and  N_3
REMARK    2  A    between atoms: C_1  and  C_9
REMARK    3  A    between atoms: C_1  and  C_12
REMARK    4  A    between atoms: N_3  and  O_6
REMARK    5  A    between atoms: C_9  and  O_10
REMARK    6  A    between atoms: C_12  and  C_13
REMARK                            x       y       z     vdW  Elec       q    Type
REMARK                         _______ _______ _______ _____ _____    ______ ____
ROOT
ATOM      1  C   UNL     1      -0.274   0.128  -0.200  0.00  0.00    +0.201 C 
ENDROOT
BRANCH   1   3
ATOM      2  O   UNL     1       1.245  -1.820  -1.642  0.00  0.00    -0.273 OA
ATOM      3  N   UNL     1       0.405  -1.020   0.343  0.00  0.00    -0.163 N 
ATOM      4  C   UNL     1       1.115  -1.911  -0.420  0.00  0.00    +0.248 C 
ATOM      5  C   UNL     1       1.764  -3.046   0.333  0.00  0.00    +0.097 C 
BRANCH   3   6
ATOM      6  O   UNL     1       0.262  -1.130   1.734  0.00  0.00    -0.291 OA
ATOM      7  H   UNL     1      -0.278  -0.395   2.063  0.00  0.00    +0.242 HD
ENDBRANCH   3   6
ENDBRANCH   1   3
BRANCH   1   9
ATOM      8  O   UNL     1      -2.226  -1.015   0.700  0.00  0.00    -0.248 OA
ATOM      9  C   UNL     1      -1.753  -0.088   0.055  0.00  0.00    +0.338 C 
BRANCH   9  10
ATOM     10  O   UNL     1      -2.468   0.882  -0.590  0.00  0.00    -0.443 OA
ATOM     11  C   UNL     1      -3.891   0.775  -0.479  0.00  0.00    +0.256 C 
ENDBRANCH   9  10
ENDBRANCH   1   9
BRANCH   1  12
ATOM     12  C   UNL     1       0.183   1.440   0.444  0.00  0.00    +0.034 C 
BRANCH  12  13
ATOM     13  C   UNL     1       1.660   1.803   0.191  0.00  0.00    +0.002 C 
ATOM     14  C   UNL     1       1.923   1.876  -1.315  0.00  0.00    +0.000 C 
ATOM     15  C   UNL     1       2.055   3.127   0.847  0.00  0.00    +0.000 C 
ENDBRANCH  12  13
ENDBRANCH   1  12
TORSDOF 6
