REMARK  Name = 10180201
REMARK  11 active torsions:
REMARK  status: ('A' for Active; 'I' for Inactive)
REMARK    1  A    between atoms: C_2  and  O_22
REMARK    2  A    between atoms: C_3  and  O_24
REMARK    3  A    between atoms: C_4  and  N_6
REMARK    4  A    between atoms: C_5  and  C_26
REMARK    5  A    between atoms: N_15  and  C_17
REMARK    6  A    between atoms: C_17  and  C_18
REMARK    7  A    between atoms: C_18  and  C_19
REMARK    8  A    between atoms: C_26  and  O_27
REMARK    9  A    between atoms: O_27  and  P_28
REMARK   10  A    between atoms: P_28  and  O_30
REMARK   11  A    between atoms: P_28  and  O_32
REMARK                            x       y       z     vdW  Elec       q    Type
REMARK                         _______ _______ _______ _____ _____    ______ ____
ROOT
ATOM      1  O   UNL     1       2.783   0.662  -1.015  0.00  0.00    -0.333 OA
ATOM      2  C   UNL     1       2.371   1.970   0.915  0.00  0.00    +0.187 C 
ATOM      3  C   UNL     1       3.836   2.111   0.553  0.00  0.00    +0.171 C 
ATOM      4  C   UNL     1       1.778   1.491  -0.401  0.00  0.00    +0.225 C 
ATOM      5  C   UNL     1       4.056   0.924  -0.380  0.00  0.00    +0.176 C 
ENDROOT
BRANCH   4   6
ATOM      6  N   UNL     1       0.537   0.735  -0.255  0.00  0.00    -0.247 N 
ATOM      7  N   UNL     1      -0.817  -1.008   0.065  0.00  0.00    -0.242 NA
ATOM      8  N   UNL     1      -1.112   2.495  -0.544  0.00  0.00    -0.228 NA
ATOM      9  N   UNL     1      -3.383   1.621  -0.365  0.00  0.00    -0.228 NA
ATOM     10  C   UNL     1      -0.736   1.226  -0.326  0.00  0.00    +0.152 C 
ATOM     11  C   UNL     1       0.436  -0.611  -0.019  0.00  0.00    +0.223 C 
ATOM     12  C   UNL     1      -1.560   0.130  -0.125  0.00  0.00    +0.140 C 
ATOM     13  C   UNL     1      -2.944   0.347  -0.147  0.00  0.00    +0.146 C 
ATOM     14  C   UNL     1      -2.459   2.595  -0.547  0.00  0.00    +0.253 C 
ATOM     15  N   UNL     1      -3.841  -0.692   0.047  0.00  0.00    -0.317 N 
ATOM     16  H   UNL     1      -3.479  -1.594   0.202  0.00  0.00    +0.148 HD
BRANCH  15  17
ATOM     17  C   UNL     1      -5.274  -0.526   0.035  0.00  0.00    +0.088 C 
BRANCH  17  18
ATOM     18  C   UNL     1      -5.977  -1.861   0.282  0.00  0.00    +0.021 C 
BRANCH  18  19
ATOM     19  C   UNL     1      -7.518  -1.796   0.300  0.00  0.00    +0.002 C 
ATOM     20  C   UNL     1      -8.101  -1.391  -1.055  0.00  0.00    +0.000 C 
ATOM     21  C   UNL     1      -7.980  -0.809   1.376  0.00  0.00    +0.000 C 
ENDBRANCH  18  19
ENDBRANCH  17  18
ENDBRANCH  15  17
ENDBRANCH   4   6
BRANCH   2  22
ATOM     22  O   UNL     1       1.788   3.183   1.346  0.00  0.00    -0.378 OA
ATOM     23  H   UNL     1       2.191   3.455   2.185  0.00  0.00    +0.211 HD
ENDBRANCH   2  22
BRANCH   3  24
ATOM     24  O   UNL     1       4.030   3.318  -0.185  0.00  0.00    -0.379 OA
ATOM     25  H   UNL     1       3.893   4.079   0.400  0.00  0.00    +0.211 HD
ENDBRANCH   3  24
BRANCH   5  26
ATOM     26  C   UNL     1       4.494  -0.336   0.355  0.00  0.00    +0.186 C 
BRANCH  26  27
ATOM     27  O   UNL     1       4.660  -1.378  -0.591  0.00  0.00    -0.271 OA
BRANCH  27  28
ATOM     28  P   UNL     1       5.126  -2.835  -0.060  0.00  0.00    +0.473 P 
ATOM     29  O   UNL     1       5.277  -3.879  -1.127  0.00  0.00    -0.227 OA
BRANCH  28  30
ATOM     30  O   UNL     1       6.475  -2.503   0.768  0.00  0.00    -0.303 OA
ATOM     31  H   UNL     1       6.288  -1.822   1.433  0.00  0.00    +0.222 HD
ENDBRANCH  28  30
BRANCH  28  32
ATOM     32  O   UNL     1       4.054  -3.182   1.100  0.00  0.00    -0.303 OA
ATOM     33  H   UNL     1       4.024  -2.454   1.741  0.00  0.00    +0.222 HD
ENDBRANCH  28  32
ENDBRANCH  27  28
ENDBRANCH  26  27
ENDBRANCH   5  26
TORSDOF 11
