REMARK  Name = 24748050
REMARK  5 active torsions:
REMARK  status: ('A' for Active; 'I' for Inactive)
REMARK    1  A    between atoms: C_1  and  C_11
REMARK    2  A    between atoms: C_2  and  C_9
REMARK    3  A    between atoms: C_4  and  O_7
REMARK    4  A    between atoms: C_11  and  C_12
REMARK    5  A    between atoms: C_12  and  N_13
REMARK                            x       y       z     vdW  Elec       q    Type
REMARK                         _______ _______ _______ _____ _____    ______ ____
ROOT
ATOM      1  C   UNL     1      -1.002   0.328   0.384  0.00  0.00    -0.024 C 
ATOM      2  C   UNL     1       1.300  -0.402   0.339  0.00  0.00    +0.011 C 
ATOM      3  C   UNL     1      -0.048  -0.671   0.573  0.00  0.00    -0.006 C 
ATOM      4  C   UNL     1       1.694   0.868  -0.083  0.00  0.00    +0.130 C 
ATOM      5  C   UNL     1      -0.608   1.598  -0.038  0.00  0.00    -0.001 C 
ATOM      6  C   UNL     1       0.740   1.868  -0.271  0.00  0.00    +0.036 C 
ENDROOT
BRANCH   4   7
ATOM      7  O   UNL     1       3.007   1.148  -0.316  0.00  0.00    -0.506 OA
ATOM      8  H   UNL     1       3.657   0.485  -0.193  0.00  0.00    +0.292 HD
ENDBRANCH   4   7
BRANCH   2   9
ATOM      9  C   UNL     1       2.308  -1.484   0.545  0.00  0.00    +0.029 C 
ATOM     10  C   UNL     1       2.782  -2.092  -0.771  0.00  0.00    +0.005 C 
ENDBRANCH   2   9
BRANCH   1  11
ATOM     11  C   UNL     1      -2.444   0.040   0.634  0.00  0.00    +0.002 C 
BRANCH  11  12
ATOM     12  C   UNL     1      -3.157  -0.475  -0.624  0.00  0.00    -0.081 C 
BRANCH  12  13
ATOM     13  N   UNL     1      -4.572  -0.728  -0.373  0.00  0.00    +0.381 N 
ATOM     14  H   UNL     1      -5.014  -1.068  -1.227  0.00  0.00    -0.089 HD
ATOM     15  H   UNL     1      -5.025   0.137  -0.077  0.00  0.00    -0.089 HD
ATOM     16  H   UNL     1      -4.667  -1.430   0.361  0.00  0.00    -0.089 HD
ENDBRANCH  12  13
ENDBRANCH  11  12
ENDBRANCH   1  11
TORSDOF 5
