REMARK  Name = 16122525
REMARK  9 active torsions:
REMARK  status: ('A' for Active; 'I' for Inactive)
REMARK    1  A    between atoms: N_2  and  C_16
REMARK    2  A    between atoms: C_3  and  C_5
REMARK    3  A    between atoms: C_8  and  O_11
REMARK    4  A    between atoms: O_11  and  C_15
REMARK    5  A    between atoms: C_16  and  C_17
REMARK    6  A    between atoms: C_17  and  O_18
REMARK    7  A    between atoms: O_18  and  P_19
REMARK    8  A    between atoms: P_19  and  O_21
REMARK    9  A    between atoms: P_19  and  O_23
REMARK                            x       y       z     vdW  Elec       q    Type
REMARK                         _______ _______ _______ _____ _____    ______ ____
ROOT
ATOM      1  O   UNL     1      -1.133  -2.600  -1.069  0.00  0.00    -0.270 OA
ATOM      2  N   UNL     1      -1.769  -1.411   0.817  0.00  0.00    -0.298 N 
ATOM      3  C   UNL     1      -0.836  -1.833  -0.136  0.00  0.00    +0.246 C 
ATOM      4  H   UNL     1      -1.465  -0.803   1.529  0.00  0.00    +0.150 HD
ENDROOT
BRANCH   3   5
ATOM      5  C   UNL     1       0.529  -1.355   0.019  0.00  0.00    +0.054 C 
ATOM      6  C   UNL     1       1.593  -2.107  -0.478  0.00  0.00    +0.008 C 
ATOM      7  C   UNL     1       0.774  -0.143   0.665  0.00  0.00    +0.008 C 
ATOM      8  C   UNL     1       3.146  -0.436   0.317  0.00  0.00    +0.147 C 
ATOM      9  C   UNL     1       2.901  -1.648  -0.329  0.00  0.00    +0.037 C 
ATOM     10  C   UNL     1       2.082   0.317   0.814  0.00  0.00    +0.037 C 
BRANCH   8  11
ATOM     11  O   UNL     1       4.423   0.011   0.463  0.00  0.00    -0.404 OA
BRANCH  11  15
ATOM     12  F   UNL     1       4.032   1.507  -1.222  0.00  0.00    -0.133 F 
ATOM     13  F   UNL     1       6.071   1.228  -0.486  0.00  0.00    -0.133 F 
ATOM     14  F   UNL     1       4.615   2.270   0.769  0.00  0.00    -0.133 F 
ATOM     15  C   UNL     1       4.770   1.263  -0.118  0.00  0.00    +0.575 C 
ENDBRANCH  11  15
ENDBRANCH   8  11
ENDBRANCH   3   5
BRANCH   2  16
ATOM     16  C   UNL     1      -3.156  -1.818   0.813  0.00  0.00    +0.122 C 
BRANCH  16  17
ATOM     17  C   UNL     1      -4.015  -0.865   0.002  0.00  0.00    +0.175 C 
BRANCH  17  18
ATOM     18  O   UNL     1      -3.958   0.432   0.582  0.00  0.00    -0.272 OA
BRANCH  18  19
ATOM     19  P   UNL     1      -4.801   1.622  -0.115  0.00  0.00    +0.473 P 
ATOM     20  O   UNL     1      -4.689   2.959   0.558  0.00  0.00    -0.227 OA
BRANCH  19  21
ATOM     21  O   UNL     1      -6.300   1.024  -0.218  0.00  0.00    -0.303 OA
ATOM     22  H   UNL     1      -6.274   0.163  -0.665  0.00  0.00    +0.222 HD
ENDBRANCH  19  21
BRANCH  19  23
ATOM     23  O   UNL     1      -4.279   1.582  -1.645  0.00  0.00    -0.303 OA
ATOM     24  H   UNL     1      -4.387   0.686  -2.000  0.00  0.00    +0.222 HD
ENDBRANCH  19  23
ENDBRANCH  18  19
ENDBRANCH  17  18
ENDBRANCH  16  17
ENDBRANCH   2  16
TORSDOF 9
