REMARK  Name = 656952
REMARK  4 active torsions:
REMARK  status: ('A' for Active; 'I' for Inactive)
REMARK    1  A    between atoms: C_4  and  C_10
REMARK    2  A    between atoms: C_7  and  C_21
REMARK    3  A    between atoms: C_8  and  O_18
REMARK    4  A    between atoms: C_15  and  O_16
REMARK                            x       y       z     vdW  Elec       q    Type
REMARK                         _______ _______ _______ _____ _____    ______ ____
ROOT
ATOM      1  O   UNL     1       0.203  -0.580   0.001  0.00  0.00    -0.453 OA
ATOM      2  C   UNL     1       1.579   1.212   0.001  0.00  0.00    +0.041 C 
ATOM      3  C   UNL     1       1.505  -0.177   0.000  0.00  0.00    +0.155 C 
ATOM      4  C   UNL     1      -0.558   0.546   0.002  0.00  0.00    +0.145 C 
ATOM      5  C   UNL     1       0.235   1.670   0.002  0.00  0.00    +0.041 C 
ATOM      6  C   UNL     1       2.848   1.817   0.000  0.00  0.00    +0.040 C 
ATOM      7  C   UNL     1       2.615  -1.019   0.000  0.00  0.00    +0.106 C 
ATOM      8  C   UNL     1       3.984   0.996  -0.001  0.00  0.00    +0.135 C 
ATOM      9  C   UNL     1       3.867  -0.397  -0.001  0.00  0.00    +0.050 C 
ENDROOT
BRANCH   4  10
ATOM     10  C   UNL     1      -1.977   0.328   0.001  0.00  0.00    +0.035 C 
ATOM     11  C   UNL     1      -2.856   1.415   0.000  0.00  0.00    +0.006 C 
ATOM     12  C   UNL     1      -2.490  -0.973   0.002  0.00  0.00    +0.006 C 
ATOM     13  C   UNL     1      -4.235   1.204  -0.001  0.00  0.00    +0.037 C 
ATOM     14  C   UNL     1      -3.869  -1.185   0.001  0.00  0.00    +0.037 C 
ATOM     15  C   UNL     1      -4.741  -0.096  -0.001  0.00  0.00    +0.134 C 
BRANCH  15  16
ATOM     16  O   UNL     1      -6.087  -0.302  -0.003  0.00  0.00    -0.506 OA
ATOM     17  H   UNL     1      -6.673   0.429  -0.004  0.00  0.00    +0.292 HD
ENDBRANCH  15  16
ENDBRANCH   4  10
BRANCH   8  18
ATOM     18  O   UNL     1       5.222   1.567  -0.001  0.00  0.00    -0.505 OA
ATOM     19  H   UNL     1       5.307   2.500  -0.002  0.00  0.00    +0.292 HD
ENDBRANCH   8  18
BRANCH   7  21
ATOM     20  N   UNL     1       2.310  -3.592   0.000  0.00  0.00    -0.191 NA
ATOM     21  C   UNL     1       2.448  -2.432   0.000  0.00  0.00    +0.104 C 
ENDBRANCH   7  21
TORSDOF 4
