REMARK  Name = 25210531
REMARK  10 active torsions:
REMARK  status: ('A' for Active; 'I' for Inactive)
REMARK    1  A    between atoms: C_1  and  O_2
REMARK    2  A    between atoms: C_1  and  C_15
REMARK    3  A    between atoms: O_2  and  N_3
REMARK    4  A    between atoms: N_3  and  C_4
REMARK    5  A    between atoms: C_4  and  C_5
REMARK    6  A    between atoms: C_6  and  C_12
REMARK    7  A    between atoms: C_12  and  O_13
REMARK    8  A    between atoms: C_15  and  O_16
REMARK    9  A    between atoms: O_16  and  N_17
REMARK   10  A    between atoms: N_17  and  C_18
REMARK                            x       y       z     vdW  Elec       q    Type
REMARK                         _______ _______ _______ _____ _____    ______ ____
ROOT
ATOM      1  C   UNL     1       0.158  -0.672   0.021  0.00  0.00    +0.203 C 
ENDROOT
BRANCH   1   2
ATOM      2  O   UNL     1       1.265   0.222   0.013  0.00  0.00    -0.263 OA
BRANCH   2   3
ATOM      3  N   UNL     1       2.438  -0.543   0.013  0.00  0.00    -0.079 NA
BRANCH   3   4
ATOM      4  C   UNL     1       3.452   0.260   0.005  0.00  0.00    +0.148 C 
BRANCH   4   5
ATOM      5  C   UNL     1       4.840  -0.229   0.003  0.00  0.00    -0.002 C 
ATOM      6  C   UNL     1       7.215   0.215  -0.007  0.00  0.00    +0.075 C 
ATOM      7  C   UNL     1       5.900   0.679  -0.005  0.00  0.00    +0.004 C 
ATOM      8  C   UNL     1       5.097  -1.600   0.008  0.00  0.00    -0.003 C 
ATOM      9  C   UNL     1       7.471  -1.156  -0.002  0.00  0.00    +0.006 C 
ATOM     10  C   UNL     1       6.412  -2.063   0.006  0.00  0.00    -0.000 C 
BRANCH   6  12
ATOM     11  O   UNL     1       8.210   2.391  -0.020  0.00  0.00    -0.245 OA
ATOM     12  C   UNL     1       8.320   1.161  -0.015  0.00  0.00    +0.338 C 
BRANCH  12  13
ATOM     13  O   UNL     1       9.533   0.544  -0.015  0.00  0.00    -0.477 OA
ATOM     14  H   UNL     1       9.583  -0.392  -0.011  0.00  0.00    +0.295 HD
ENDBRANCH  12  13
ENDBRANCH   6  12
ENDBRANCH   4   5
ENDBRANCH   3   4
ENDBRANCH   2   3
ENDBRANCH   1   2
BRANCH   1  15
ATOM     15  C   UNL     1      -1.128   0.133   0.022  0.00  0.00    +0.210 C 
BRANCH  15  16
ATOM     16  O   UNL     1      -2.232  -0.759   0.010  0.00  0.00    -0.233 OA
BRANCH  16  17
ATOM     17  N   UNL     1      -3.408   0.004   0.010  0.00  0.00    -0.129 NA
BRANCH  17  18
ATOM     18  C   UNL     1      -4.422  -0.798  -0.001  0.00  0.00    +0.138 C 
ATOM     19  O   UNL     1      -7.508   2.792   0.013  0.00  0.00    -0.252 OA
ATOM     20  O   UNL     1      -9.134  -1.535  -0.028  0.00  0.00    -0.274 OA
ATOM     21  N   UNL     1      -6.033   1.025   0.006  0.00  0.00    -0.270 N 
ATOM     22  N   UNL     1      -8.342   0.640  -0.008  0.00  0.00    -0.239 N 
ATOM     23  C   UNL     1      -5.806  -0.325  -0.004  0.00  0.00    +0.059 C 
ATOM     24  C   UNL     1      -6.795  -1.224  -0.016  0.00  0.00    +0.128 C 
ATOM     25  C   UNL     1      -7.306   1.578   0.005  0.00  0.00    +0.310 C 
ATOM     26  C   UNL     1      -8.197  -0.741  -0.018  0.00  0.00    +0.235 C 
ATOM     27  H   UNL     1      -5.257   1.632   0.015  0.00  0.00    +0.156 HD
ATOM     28  H   UNL     1      -9.262   0.991  -0.009  0.00  0.00    +0.159 HD
ENDBRANCH  17  18
ENDBRANCH  16  17
ENDBRANCH  15  16
ENDBRANCH   1  15
TORSDOF 10
