REMARK  Name = 445015
REMARK  13 active torsions:
REMARK  status: ('A' for Active; 'I' for Inactive)
REMARK    1  A    between atoms: C_1  and  C_4
REMARK    2  A    between atoms: C_2  and  C_15
REMARK    3  A    between atoms: C_4  and  C_5
REMARK    4  A    between atoms: C_5  and  C_7
REMARK    5  A    between atoms: C_6  and  C_9
REMARK    6  A    between atoms: C_9  and  C_10
REMARK    7  A    between atoms: C_10  and  C_11
REMARK    8  A    between atoms: C_15  and  O_16
REMARK    9  A    between atoms: O_16  and  N_18
REMARK   10  A    between atoms: C_19  and  C_21
REMARK   11  A    between atoms: C_21  and  P_22
REMARK   12  A    between atoms: P_22  and  O_24
REMARK   13  A    between atoms: P_22  and  O_26
REMARK                            x       y       z     vdW  Elec       q    Type
REMARK                         _______ _______ _______ _____ _____    ______ ____
ROOT
ATOM      1  C   UNL     1      -3.585   2.065  -0.161  0.00  0.00    -0.045 C 
ATOM      2  C   UNL     1      -2.440   1.897  -0.850  0.00  0.00    -0.000 C 
ATOM      3  C   UNL     1      -3.627   2.984   1.032  0.00  0.00    +0.026 C 
ENDROOT
BRANCH   1   4
ATOM      4  C   UNL     1      -4.900   1.402  -0.508  0.00  0.00    +0.026 C 
BRANCH   4   5
ATOM      5  C   UNL     1      -5.097   0.083   0.248  0.00  0.00    +0.030 C 
BRANCH   5   7
ATOM      6  C   UNL     1      -3.137  -1.536   0.637  0.00  0.00    -0.048 C 
ATOM      7  C   UNL     1      -4.055  -0.929  -0.141  0.00  0.00    -0.034 C 
ATOM      8  C   UNL     1      -3.078  -1.212   2.109  0.00  0.00    +0.026 C 
BRANCH   6   9
ATOM      9  C   UNL     1      -2.085  -2.510   0.149  0.00  0.00    +0.026 C 
BRANCH   9  10
ATOM     10  C   UNL     1      -0.805  -1.843  -0.375  0.00  0.00    +0.030 C 
BRANCH  10  11
ATOM     11  C   UNL     1       0.157  -2.825  -0.983  0.00  0.00    -0.034 C 
ATOM     12  C   UNL     1       1.161  -3.491  -0.381  0.00  0.00    -0.048 C 
ATOM     13  C   UNL     1       2.088  -4.462  -1.053  0.00  0.00    +0.026 C 
ATOM     14  C   UNL     1       1.437  -3.289   1.085  0.00  0.00    +0.026 C 
ENDBRANCH  10  11
ENDBRANCH   9  10
ENDBRANCH   6   9
ENDBRANCH   5   7
ENDBRANCH   4   5
ENDBRANCH   1   4
BRANCH   2  15
ATOM     15  C   UNL     1      -1.118   2.539  -0.576  0.00  0.00    +0.197 C 
BRANCH  15  16
ATOM     16  O   UNL     1      -0.088   1.641  -0.970  0.00  0.00    -0.262 OA
BRANCH  16  18
ATOM     17  O   UNL     1       2.111   0.162  -0.438  0.00  0.00    -0.272 OA
ATOM     18  N   UNL     1       1.153   2.250  -0.710  0.00  0.00    -0.192 N 
ATOM     19  C   UNL     1       2.180   1.388  -0.411  0.00  0.00    +0.257 C 
ATOM     20  H   UNL     1       1.278   3.226  -0.739  0.00  0.00    +0.183 HD
BRANCH  19  21
ATOM     21  C   UNL     1       3.443   2.120  -0.039  0.00  0.00    +0.202 C 
BRANCH  21  22
ATOM     22  P   UNL     1       4.818   1.036   0.394  0.00  0.00    +0.346 P 
ATOM     23  O   UNL     1       5.224   0.114  -0.704  0.00  0.00    -0.258 OA
BRANCH  22  24
ATOM     24  O   UNL     1       5.940   2.077   0.896  0.00  0.00    -0.323 OA
ATOM     25  H   UNL     1       6.738   1.591   1.158  0.00  0.00    +0.220 HD
ENDBRANCH  22  24
BRANCH  22  26
ATOM     26  O   UNL     1       4.301   0.339   1.750  0.00  0.00    -0.323 OA
ATOM     27  H   UNL     1       4.978  -0.276   2.075  0.00  0.00    +0.220 HD
ENDBRANCH  22  26
ENDBRANCH  21  22
ENDBRANCH  19  21
ENDBRANCH  16  18
ENDBRANCH  15  16
ENDBRANCH   2  15
TORSDOF 13
