REMARK  Name = 24894151
REMARK  3 active torsions:
REMARK  status: ('A' for Active; 'I' for Inactive)
REMARK    1  A    between atoms: C_3  and  N_10
REMARK    2  A    between atoms: C_8  and  O_18
REMARK    3  A    between atoms: O_18  and  C_19
REMARK                            x       y       z     vdW  Elec       q    Type
REMARK                         _______ _______ _______ _____ _____    ______ ____
ROOT
ATOM      1  O   UNL     1      -4.387  -1.416   0.498  0.00  0.00    -0.226 OA
ATOM      2  N   UNL     1      -2.252  -0.527   0.259  0.00  0.00    -0.246 N 
ATOM      3  C   UNL     1       0.322  -0.914  -1.033  0.00  0.00    +0.074 C 
ATOM      4  C   UNL     1      -0.437   0.416  -1.118  0.00  0.00    +0.041 C 
ATOM      5  C   UNL     1      -0.642  -2.079  -0.775  0.00  0.00    +0.041 C 
ATOM      6  C   UNL     1      -1.373   0.631   0.072  0.00  0.00    +0.098 C 
ATOM      7  C   UNL     1      -1.573  -1.812   0.409  0.00  0.00    +0.098 C 
ATOM      8  C   UNL     1      -3.645  -0.447   0.342  0.00  0.00    +0.405 C 
ENDROOT
BRANCH   3  10
ATOM      9 CL   UNL     1       5.749   0.404   2.128  0.00  0.00    -0.082 Cl
ATOM     10  N   UNL     1       1.323  -0.852   0.014  0.00  0.00    -0.320 N 
ATOM     11  N   UNL     1       2.829   0.369  -1.317  0.00  0.00    -0.229 NA
ATOM     12  C   UNL     1       2.545  -0.222  -0.135  0.00  0.00    +0.129 C 
ATOM     13  C   UNL     1       3.405  -0.239   0.951  0.00  0.00    +0.045 C 
ATOM     14  C   UNL     1       4.636   0.391   0.816  0.00  0.00    +0.062 C 
ATOM     15  C   UNL     1       4.036   0.972  -1.411  0.00  0.00    +0.101 C 
ATOM     16  C   UNL     1       4.966   1.011  -0.384  0.00  0.00    +0.032 C 
ATOM     17  H   UNL     1       1.123  -1.282   0.877  0.00  0.00    +0.148 HD
ENDBRANCH   3  10
BRANCH   8  18
ATOM     18  O   UNL     1      -4.109   0.837   0.227  0.00  0.00    -0.435 OA
BRANCH  18  19
ATOM     19  C   UNL     1      -5.530   1.004   0.300  0.00  0.00    +0.210 C 
ATOM     20  C   UNL     1      -5.862   2.474   0.156  0.00  0.00    +0.051 C 
ENDBRANCH  18  19
ENDBRANCH   8  18
TORSDOF 3
