REMARK  Name = 11957393
REMARK  4 active torsions:
REMARK  status: ('A' for Active; 'I' for Inactive)
REMARK    1  A    between atoms: N_3  and  C_18
REMARK    2  A    between atoms: C_21  and  O_24
REMARK    3  A    between atoms: C_22  and  O_26
REMARK    4  A    between atoms: C_23  and  O_28
REMARK                            x       y       z     vdW  Elec       q    Type
REMARK                         _______ _______ _______ _____ _____    ______ ____
ROOT
ATOM      1  N   UNL     1      -3.418  -0.109   0.172  0.00  0.00    -0.224 N 
ATOM      2  N   UNL     1      -1.317   1.049  -0.072  0.00  0.00    -0.321 NA
ATOM      3  N   UNL     1       0.533   2.456  -0.331  0.00  0.00    -0.247 N 
ATOM      4  N   UNL     1      -1.584   3.455  -0.334  0.00  0.00    -0.170 NA
ATOM      5  C   UNL     1      -2.659   1.018   0.003  0.00  0.00    +0.206 C 
ATOM      6  C   UNL     1      -3.520   2.106  -0.076  0.00  0.00    +0.067 C 
ATOM      7  C   UNL     1      -4.745   0.233   0.205  0.00  0.00    +0.073 C 
ATOM      8  C   UNL     1      -4.839   1.600   0.053  0.00  0.00    +0.022 C 
ATOM      9  C   UNL     1      -0.871   2.311  -0.240  0.00  0.00    +0.150 C 
ATOM     10  C   UNL     1      -2.931   3.358  -0.251  0.00  0.00    +0.116 C 
ATOM     11  H   UNL     1       0.828   3.388  -0.453  0.00  0.00    +0.165 HD
ATOM     12  N   UNL     1      -1.595  -1.583   0.241  0.00  0.00    -0.228 NA
ATOM     13  C   UNL     1      -2.930  -1.412   0.294  0.00  0.00    +0.141 C 
ATOM     14  C   UNL     1      -3.848  -2.430   0.460  0.00  0.00    +0.035 C 
ATOM     15  C   UNL     1      -3.357  -3.725   0.582  0.00  0.00    +0.004 C 
ATOM     16  C   UNL     1      -1.155  -2.855   0.363  0.00  0.00    +0.100 C 
ATOM     17  C   UNL     1      -1.986  -3.950   0.533  0.00  0.00    +0.021 C 
ENDROOT
BRANCH   3  18
ATOM     18  C   UNL     1       1.590   1.530  -0.282  0.00  0.00    +0.064 C 
ATOM     19  C   UNL     1       1.397   0.221  -0.731  0.00  0.00    +0.055 C 
ATOM     20  C   UNL     1       2.837   1.915   0.216  0.00  0.00    +0.055 C 
ATOM     21  C   UNL     1       3.885   0.996   0.265  0.00  0.00    +0.177 C 
ATOM     22  C   UNL     1       2.445  -0.698  -0.681  0.00  0.00    +0.177 C 
ATOM     23  C   UNL     1       3.690  -0.310  -0.184  0.00  0.00    +0.206 C 
BRANCH  21  24
ATOM     24  O   UNL     1       5.096   1.387   0.753  0.00  0.00    -0.468 OA
ATOM     25  C   UNL     1       5.312   1.226   2.153  0.00  0.00    +0.253 C 
ENDBRANCH  21  24
BRANCH  22  26
ATOM     26  O   UNL     1       2.241  -1.970  -1.123  0.00  0.00    -0.468 OA
ATOM     27  C   UNL     1       2.503  -2.228  -2.501  0.00  0.00    +0.253 C 
ENDBRANCH  22  26
BRANCH  23  28
ATOM     28  O   UNL     1       4.715  -1.208  -0.136  0.00  0.00    -0.465 OA
ATOM     29  C   UNL     1       4.511  -2.381   0.649  0.00  0.00    +0.253 C 
ENDBRANCH  23  28
ENDBRANCH   3  18
TORSDOF 4
