REMARK  Name = 5288102
REMARK  4 active torsions:
REMARK  status: ('A' for Active; 'I' for Inactive)
REMARK    1  A    between atoms: C_1  and  C_2
REMARK    2  A    between atoms: C_1  and  C_8
REMARK    3  A    between atoms: C_8  and  C_11
REMARK    4  A    between atoms: C_11  and  O_12
REMARK                            x       y       z     vdW  Elec       q    Type
REMARK                         _______ _______ _______ _____ _____    ______ ____
ROOT
ATOM      1  C   UNL     1      -0.616  -0.962  -0.823  0.00  0.00    +0.037 C 
ENDROOT
BRANCH   1   2
ATOM      2  C   UNL     1       0.746  -0.454  -0.421  0.00  0.00    -0.022 C 
ATOM      3  C   UNL     1       1.101   0.852  -0.722  0.00  0.00    -0.004 C 
ATOM      4  C   UNL     1       1.621  -1.302   0.241  0.00  0.00    -0.004 C 
ATOM      5  C   UNL     1       2.361   1.322  -0.351  0.00  0.00    -0.000 C 
ATOM      6  C   UNL     1       2.880  -0.832   0.612  0.00  0.00    -0.000 C 
ATOM      7  C   UNL     1       3.250   0.480   0.316  0.00  0.00    -0.000 C 
ENDBRANCH   1   2
BRANCH   1   8
ATOM      8  C   UNL     1      -1.696  -0.743   0.250  0.00  0.00    +0.103 C 
ATOM      9  C   UNL     1      -2.900  -1.669   0.059  0.00  0.00    +0.012 C 
BRANCH   8  11
ATOM     10  O   UNL     1      -2.644   1.261  -0.764  0.00  0.00    -0.250 OA
ATOM     11  C   UNL     1      -2.148   0.708   0.208  0.00  0.00    +0.314 C 
BRANCH  11  12
ATOM     12  O   UNL     1      -1.954   1.338   1.396  0.00  0.00    -0.480 OA
ATOM     13  H   UNL     1      -1.571   0.876   2.115  0.00  0.00    +0.295 HD
ENDBRANCH  11  12
ENDBRANCH   8  11
ENDBRANCH   1   8
TORSDOF 4
