REMARK  Name = 4708
REMARK  3 active torsions:
REMARK  status: ('A' for Active; 'I' for Inactive)
REMARK    1  A    between atoms: N_1  and  C_14
REMARK    2  A    between atoms: C_8  and  N_21
REMARK    3  A    between atoms: C_22  and  C_24
REMARK                            x       y       z     vdW  Elec       q    Type
REMARK                         _______ _______ _______ _____ _____    ______ ____
ROOT
ATOM      1  N   UNL     1       1.580  -0.344   0.733  0.00  0.00    -0.301 N 
ATOM      2  N   UNL     1      -0.094   3.379   0.051  0.00  0.00    -0.248 NA
ATOM      3  N   UNL     1       1.817   1.986   0.514  0.00  0.00    -0.233 NA
ATOM      4  C   UNL     1      -0.379   1.008   0.266  0.00  0.00    +0.117 C 
ATOM      5  C   UNL     1      -0.891   2.296   0.041  0.00  0.00    +0.067 C 
ATOM      6  C   UNL     1       0.991   0.923   0.497  0.00  0.00    +0.115 C 
ATOM      7  C   UNL     1      -1.221  -0.118   0.254  0.00  0.00    +0.001 C 
ATOM      8  C   UNL     1      -2.583   0.035   0.016  0.00  0.00    +0.047 C 
ATOM      9  C   UNL     1      -2.258   2.420  -0.194  0.00  0.00    +0.016 C 
ATOM     10  C   UNL     1      -3.102   1.306  -0.208  0.00  0.00    +0.016 C 
ATOM     11  C   UNL     1       1.216   3.166   0.286  0.00  0.00    +0.251 C 
ATOM     12  H   UNL     1       0.975  -0.989   1.164  0.00  0.00    +0.153 HD
ENDROOT
BRANCH   1  14
ATOM     13 BR   UNL     1       5.862  -0.252  -2.356  0.00  0.00    -0.049 Br
ATOM     14  C   UNL     1       2.860  -0.857   0.469  0.00  0.00    +0.050 C 
ATOM     15  C   UNL     1       3.598  -0.385  -0.621  0.00  0.00    +0.021 C 
ATOM     16  C   UNL     1       3.406  -1.844   1.295  0.00  0.00    +0.015 C 
ATOM     17  C   UNL     1       4.870  -0.894  -0.881  0.00  0.00    +0.036 C 
ATOM     18  C   UNL     1       4.678  -2.354   1.034  0.00  0.00    +0.002 C 
ATOM     19  C   UNL     1       5.410  -1.879  -0.054  0.00  0.00    +0.007 C 
ENDBRANCH   1  14
BRANCH   8  21
ATOM     20  O   UNL     1      -5.545  -0.159  -0.442  0.00  0.00    -0.270 OA
ATOM     21  N   UNL     1      -3.424  -1.077   0.003  0.00  0.00    -0.281 N 
ATOM     22  C   UNL     1      -4.808  -1.112  -0.218  0.00  0.00    +0.250 C 
ATOM     23  H   UNL     1      -2.992  -1.946   0.168  0.00  0.00    +0.155 HD
BRANCH  22  24
ATOM     24  C   UNL     1      -5.342  -2.503  -0.151  0.00  0.00    +0.058 C 
ATOM     25  C   UNL     1      -6.644  -2.742  -0.335  0.00  0.00    +0.005 C 
ENDBRANCH  22  24
ENDBRANCH   8  21
TORSDOF 3
