REMARK  Name = 25271580
REMARK  8 active torsions:
REMARK  status: ('A' for Active; 'I' for Inactive)
REMARK    1  A    between atoms: S_1  and  C_4
REMARK    2  A    between atoms: S_1  and  N_16
REMARK    3  A    between atoms: C_7  and  C_10
REMARK    4  A    between atoms: N_16  and  C_18
REMARK    5  A    between atoms: C_18  and  C_20
REMARK    6  A    between atoms: C_18  and  C_23
REMARK    7  A    between atoms: C_20  and  O_21
REMARK    8  A    between atoms: C_23  and  C_24
REMARK                            x       y       z     vdW  Elec       q    Type
REMARK                         _______ _______ _______ _____ _____    ______ ____
ROOT
ATOM      1  S   UNL     1       1.990  -2.320  -0.119  0.00  0.00    +0.061 S 
ATOM      2  O   UNL     1       2.404  -2.588   1.245  0.00  0.00    -0.153 OA
ATOM      3  O   UNL     1       1.978  -3.386  -1.101  0.00  0.00    -0.153 OA
ENDROOT
BRANCH   1   4
ATOM      4  C   UNL     1       0.357  -1.645  -0.070  0.00  0.00    +0.122 C 
ATOM      5  C   UNL     1      -0.485  -1.775  -1.175  0.00  0.00    +0.020 C 
ATOM      6  C   UNL     1      -0.090  -0.983   1.074  0.00  0.00    +0.020 C 
ATOM      7  C   UNL     1      -2.220  -0.581   0.008  0.00  0.00    +0.000 C 
ATOM      8  C   UNL     1      -1.773  -1.243  -1.136  0.00  0.00    +0.001 C 
ATOM      9  C   UNL     1      -1.379  -0.451   1.113  0.00  0.00    +0.001 C 
BRANCH   7  10
ATOM     10  C   UNL     1      -3.557  -0.029   0.048  0.00  0.00    +0.000 C 
ATOM     11  C   UNL     1      -3.784   1.281  -0.375  0.00  0.00    +0.000 C 
ATOM     12  C   UNL     1      -4.620  -0.806   0.508  0.00  0.00    +0.000 C 
ATOM     13  C   UNL     1      -5.072   1.814  -0.337  0.00  0.00    +0.000 C 
ATOM     14  C   UNL     1      -5.909  -0.274   0.546  0.00  0.00    +0.000 C 
ATOM     15  C   UNL     1      -6.135   1.036   0.124  0.00  0.00    +0.000 C 
ENDBRANCH   7  10
ENDBRANCH   1   4
BRANCH   1  16
ATOM     16  N   UNL     1       2.888  -1.015  -0.736  0.00  0.00    -0.170 NA
ATOM     17  H   UNL     1       2.515  -0.813  -1.663  0.00  0.00    +0.149 HD
BRANCH  16  18
ATOM     18  C   UNL     1       2.926   0.269  -0.001  0.00  0.00    +0.174 C 
BRANCH  18  20
ATOM     19  O   UNL     1       5.356   0.157  -0.202  0.00  0.00    -0.249 OA
ATOM     20  C   UNL     1       4.359   0.492   0.421  0.00  0.00    +0.330 C 
BRANCH  20  21
ATOM     21  O   UNL     1       4.407   1.140   1.615  0.00  0.00    -0.479 OA
ATOM     22  H   UNL     1       3.613   1.375   2.052  0.00  0.00    +0.295 HD
ENDBRANCH  20  21
ENDBRANCH  18  20
BRANCH  18  23
ATOM     23  C   UNL     1       2.439   1.403  -0.907  0.00  0.00    +0.029 C 
BRANCH  23  24
ATOM     24  C   UNL     1       2.426   2.799  -0.250  0.00  0.00    +0.002 C 
ATOM     25  C   UNL     1       1.516   2.855   0.978  0.00  0.00    +0.000 C 
ATOM     26  C   UNL     1       1.977   3.847  -1.272  0.00  0.00    +0.000 C 
ENDBRANCH  23  24
ENDBRANCH  18  23
ENDBRANCH  16  18
ENDBRANCH   1  16
TORSDOF 8
