REMARK  Name = 979
REMARK  5 active torsions:
REMARK  status: ('A' for Active; 'I' for Inactive)
REMARK    1  A    between atoms: C_1  and  C_9
REMARK    2  A    between atoms: C_6  and  O_7
REMARK    3  A    between atoms: C_9  and  C_11
REMARK    4  A    between atoms: C_11  and  C_13
REMARK    5  A    between atoms: C_13  and  O_14
REMARK                            x       y       z     vdW  Elec       q    Type
REMARK                         _______ _______ _______ _____ _____    ______ ____
ROOT
ATOM      1  C   UNL     1       0.484  -0.563  -0.125  0.00  0.00    -0.014 C 
ATOM      2  C   UNL     1       1.167  -0.140  -1.265  0.00  0.00    -0.001 C 
ATOM      3  C   UNL     1       1.144  -0.617   1.103  0.00  0.00    -0.001 C 
ATOM      4  C   UNL     1       2.510   0.227  -1.178  0.00  0.00    +0.036 C 
ATOM      5  C   UNL     1       2.486  -0.250   1.191  0.00  0.00    +0.036 C 
ATOM      6  C   UNL     1       3.170   0.172   0.050  0.00  0.00    +0.134 C 
ENDROOT
BRANCH   6   7
ATOM      7  O   UNL     1       4.480   0.531   0.135  0.00  0.00    -0.506 OA
ATOM      8  H   UNL     1       4.938   0.814  -0.632  0.00  0.00    +0.292 HD
ENDBRANCH   6   7
BRANCH   1   9
ATOM      9  C   UNL     1      -0.951  -0.956  -0.218  0.00  0.00    +0.102 C 
BRANCH   9  11
ATOM     10  O   UNL     1      -1.497   1.389   0.213  0.00  0.00    -0.284 OA
ATOM     11  C   UNL     1      -1.857   0.238   0.013  0.00  0.00    +0.252 C 
BRANCH  11  13
ATOM     12  O   UNL     1      -3.796  -1.134  -0.142  0.00  0.00    -0.242 OA
ATOM     13  C   UNL     1      -3.337  -0.019   0.001  0.00  0.00    +0.374 C 
BRANCH  13  14
ATOM     14  O   UNL     1      -4.001   1.122   0.223  0.00  0.00    -0.475 OA
ATOM     15  H   UNL     1      -3.531   1.927   0.317  0.00  0.00    +0.295 HD
ENDBRANCH  13  14
ENDBRANCH  11  13
ENDBRANCH   9  11
ENDBRANCH   1   9
TORSDOF 5
