16741228
  -OEChem-10311712503D

 55 57  0     1  0  0  0  0  0999 V2000
   -6.8562   -1.3677   -2.2754 Cl  0  0  0  0  0  0  0  0  0  0  0  0
    1.2625   -3.9029    1.1076 O   0  0  0  0  0  0  0  0  0  0  0  0
    3.1000    2.8167   -0.5712 O   0  0  0  0  0  0  0  0  0  0  0  0
   -2.8295    2.5810    1.2281 O   0  0  0  0  0  0  0  0  0  0  0  0
    3.3434   -1.1764   -2.4720 O   0  0  0  0  0  0  0  0  0  0  0  0
   -1.2161    1.0355    0.8651 N   0  0  0  0  0  0  0  0  0  0  0  0
    3.8711    0.6396   -0.3298 N   0  0  0  0  0  0  0  0  0  0  0  0
    1.0120    1.0576    1.1680 C   0  0  0  0  0  0  0  0  0  0  0  0
    0.5997   -0.2930    1.0873 C   0  0  0  0  0  0  0  0  0  0  0  0
   -0.1066    1.8416    1.0374 C   0  0  0  0  0  0  0  0  0  0  0  0
   -0.7899   -0.2967    0.9027 C   0  0  0  0  0  0  0  0  0  0  0  0
    2.3965    1.5381    1.3630 C   0  0  0  0  0  0  0  0  0  0  0  0
    4.6766    0.5959   -1.5285 C   0  0  1  0  0  0  0  0  0  0  0  0
    1.2950   -1.5184    1.1583 C   0  0  0  0  0  0  0  0  0  0  0  0
    3.1433    1.7585    0.0511 C   0  0  0  0  0  0  0  0  0  0  0  0
   -1.4943   -1.5097    0.7773 C   0  0  0  0  0  0  0  0  0  0  0  0
   -0.1608    3.3228    1.0653 C   0  0  0  0  0  0  0  0  0  0  0  0
   -2.5401    1.5037    0.7178 C   0  0  0  0  0  0  0  0  0  0  0  0
    5.8820   -0.3362   -1.3487 C   0  0  0  0  0  0  0  0  0  0  0  0
    0.5924   -2.7191    1.0394 C   0  0  0  0  0  0  0  0  0  0  0  0
   -0.7835   -2.7121    0.8504 C   0  0  0  0  0  0  0  0  0  0  0  0
    3.8154    0.1453   -2.7087 C   0  0  0  0  0  0  0  0  0  0  0  0
   -3.6044    0.7963   -0.0200 C   0  0  0  0  0  0  0  0  0  0  0  0
    6.7731    0.0720   -0.1825 C   0  0  0  0  0  0  0  0  0  0  0  0
   -3.4454    0.5187   -1.3777 C   0  0  0  0  0  0  0  0  0  0  0  0
   -4.7690    0.4046    0.6403 C   0  0  0  0  0  0  0  0  0  0  0  0
   -4.4510   -0.1505   -2.0752 C   0  0  0  0  0  0  0  0  0  0  0  0
   -5.7746   -0.2645   -0.0572 C   0  0  0  0  0  0  0  0  0  0  0  0
    2.6739   -3.8388    1.3028 C   0  0  0  0  0  0  0  0  0  0  0  0
   -5.6156   -0.5420   -1.4149 C   0  0  0  0  0  0  0  0  0  0  0  0
    2.9606    0.8342    1.9879 H   0  0  0  0  0  0  0  0  0  0  0  0
    2.4180    2.4826    1.9193 H   0  0  0  0  0  0  0  0  0  0  0  0
    5.0380    1.6108   -1.7353 H   0  0  0  0  0  0  0  0  0  0  0  0
    2.3647   -1.4686    1.3156 H   0  0  0  0  0  0  0  0  0  0  0  0
   -2.5686   -1.5454    0.6486 H   0  0  0  0  0  0  0  0  0  0  0  0
    0.8283    3.7769    0.9574 H   0  0  0  0  0  0  0  0  0  0  0  0
   -0.5804    3.6758    2.0128 H   0  0  0  0  0  0  0  0  0  0  0  0
   -0.7660    3.7129    0.2401 H   0  0  0  0  0  0  0  0  0  0  0  0
    3.8035   -0.2085    0.2236 H   0  0  0  0  0  0  0  0  0  0  0  0
    5.5522   -1.3682   -1.1765 H   0  0  0  0  0  0  0  0  0  0  0  0
    6.4805   -0.3401   -2.2677 H   0  0  0  0  0  0  0  0  0  0  0  0
   -1.3246   -3.6512    0.7609 H   0  0  0  0  0  0  0  0  0  0  0  0
    4.3965    0.1458   -3.6367 H   0  0  0  0  0  0  0  0  0  0  0  0
    2.9481    0.8014   -2.8377 H   0  0  0  0  0  0  0  0  0  0  0  0
    7.1215    1.1033   -0.2985 H   0  0  0  0  0  0  0  0  0  0  0  0
    7.6523   -0.5788   -0.1368 H   0  0  0  0  0  0  0  0  0  0  0  0
    6.2489   -0.0104    0.7746 H   0  0  0  0  0  0  0  0  0  0  0  0
   -2.5437    0.8207   -1.9042 H   0  0  0  0  0  0  0  0  0  0  0  0
   -4.9029    0.6130    1.6986 H   0  0  0  0  0  0  0  0  0  0  0  0
    2.8013   -1.4269   -3.2394 H   0  0  0  0  0  0  0  0  0  0  0  0
   -4.3135   -0.3598   -3.1329 H   0  0  0  0  0  0  0  0  0  0  0  0
   -6.6764   -0.5645    0.4704 H   0  0  0  0  0  0  0  0  0  0  0  0
    3.0432   -4.8693    1.3298 H   0  0  0  0  0  0  0  0  0  0  0  0
    2.9273   -3.3844    2.2666 H   0  0  0  0  0  0  0  0  0  0  0  0
    3.1752   -3.3430    0.4643 H   0  0  0  0  0  0  0  0  0  0  0  0
  1 30  1  0  0  0  0
  2 20  1  0  0  0  0
  2 29  1  0  0  0  0
  3 15  2  0  0  0  0
  4 18  2  0  0  0  0
  5 22  1  0  0  0  0
  5 50  1  0  0  0  0
  6 10  1  0  0  0  0
  6 11  1  0  0  0  0
  6 18  1  0  0  0  0
  7 13  1  0  0  0  0
  7 15  1  0  0  0  0
  7 39  1  0  0  0  0
  8  9  1  0  0  0  0
  8 10  2  0  0  0  0
  8 12  1  0  0  0  0
  9 11  2  0  0  0  0
  9 14  1  0  0  0  0
 10 17  1  0  0  0  0
 11 16  1  0  0  0  0
 12 15  1  0  0  0  0
 12 31  1  0  0  0  0
 12 32  1  0  0  0  0
 13 19  1  0  0  0  0
 13 22  1  0  0  0  0
 13 33  1  0  0  0  0
 14 20  2  0  0  0  0
 14 34  1  0  0  0  0
 16 21  2  0  0  0  0
 16 35  1  0  0  0  0
 17 36  1  0  0  0  0
 17 37  1  0  0  0  0
 17 38  1  0  0  0  0
 18 23  1  0  0  0  0
 19 24  1  0  0  0  0
 19 40  1  0  0  0  0
 19 41  1  0  0  0  0
 20 21  1  0  0  0  0
 21 42  1  0  0  0  0
 22 43  1  0  0  0  0
 22 44  1  0  0  0  0
 23 25  2  0  0  0  0
 23 26  1  0  0  0  0
 24 45  1  0  0  0  0
 24 46  1  0  0  0  0
 24 47  1  0  0  0  0
 25 27  1  0  0  0  0
 25 48  1  0  0  0  0
 26 28  2  0  0  0  0
 26 49  1  0  0  0  0
 27 30  2  0  0  0  0
 27 51  1  0  0  0  0
 28 30  1  0  0  0  0
 28 52  1  0  0  0  0
 29 53  1  0  0  0  0
 29 54  1  0  0  0  0
 29 55  1  0  0  0  0
M  END
> <DATABASE_ID>
DB07984

> <DATABASE_NAME>
drugbank

> <ORIGINAL_SOURCE>
PUBCHEM

> <ORIGINAL_SOURCE_URL>
https://pubchem.ncbi.nlm.nih.gov/rest/pug/compound/inchikey/GKJWXEORYGBJFS-KRWDZBQOSA-N/SDF?record_type=3d

> <SMILES>
CC[C@@H](CO)NC(=O)CC1=C(C)N(C(=O)C2=CC=C(Cl)C=C2)C2=C1C=C(OC)C=C2

> <INCHI_IDENTIFIER>
InChI=1S/C23H25ClN2O4/c1-4-17(13-27)25-22(28)12-19-14(2)26(21-10-9-18(30-3)11-20(19)21)23(29)15-5-7-16(24)8-6-15/h5-11,17,27H,4,12-13H2,1-3H3,(H,25,28)/t17-/m0/s1

> <INCHI_KEY>
GKJWXEORYGBJFS-KRWDZBQOSA-N

> <FORMULA>
C23H25ClN2O4

> <MOLECULAR_WEIGHT>
428.909

> <EXACT_MASS>
428.150285005

> <JCHEM_ACCEPTOR_COUNT>
5

> <JCHEM_ATOM_COUNT>
55

> <JCHEM_AVERAGE_POLARIZABILITY>
45.196647430624616

> <JCHEM_BIOAVAILABILITY>
1

> <JCHEM_DONOR_COUNT>
2

> <JCHEM_FORMAL_CHARGE>
0

> <JCHEM_GHOSE_FILTER>
1

> <JCHEM_IUPAC>
2-[1-(4-chlorobenzoyl)-5-methoxy-2-methyl-1H-indol-3-yl]-N-[(2S)-1-hydroxybutan-2-yl]ethanimidic acid

> <ALOGPS_LOGP>
3.93

> <JCHEM_LOGP>
4.015007366333332

> <ALOGPS_LOGS>
-5.06

> <JCHEM_MDDR_LIKE_RULE>
1

> <JCHEM_NUMBER_OF_RINGS>
3

> <JCHEM_PHYSIOLOGICAL_CHARGE>
0

> <JCHEM_PKA>
15.097898621732543

> <JCHEM_PKA_STRONGEST_ACIDIC>
5.23154341325528

> <JCHEM_PKA_STRONGEST_BASIC>
3.077800933063234

> <JCHEM_POLAR_SURFACE_AREA>
84.05

> <JCHEM_REFRACTIVITY>
117.28629999999997

> <JCHEM_ROTATABLE_BOND_COUNT>
7

> <JCHEM_RULE_OF_FIVE>
1

> <ALOGPS_SOLUBILITY>
3.71e-03 g/l

> <JCHEM_TRADITIONAL_IUPAC>
2-[1-(4-chlorobenzoyl)-5-methoxy-2-methylindol-3-yl]-N-[(2S)-1-hydroxybutan-2-yl]ethanimidic acid

> <JCHEM_VEBER_RULE>
0

> <DRUGBANK_ID>
DB07984

> <DRUG_GROUPS>
experimental

> <GENERIC_NAME>
2-[1-(4-chlorobenzoyl)-5-methoxy-2-methyl-1H-indol-3-yl]-n-[(1S)-1-(hydroxymethyl)propyl]acetamide

$$$$
