REMARK  Name = 448295
REMARK  11 active torsions:
REMARK  status: ('A' for Active; 'I' for Inactive)
REMARK    1  A    between atoms: C_2  and  N_7
REMARK    2  A    between atoms: C_3  and  O_11
REMARK    3  A    between atoms: C_4  and  O_13
REMARK    4  A    between atoms: C_5  and  C_22
REMARK    5  A    between atoms: C_6  and  O_15
REMARK    6  A    between atoms: O_15  and  C_16
REMARK    7  A    between atoms: C_16  and  C_17
REMARK    8  A    between atoms: C_17  and  C_18
REMARK    9  A    between atoms: C_18  and  C_19
REMARK   10  A    between atoms: C_19  and  C_20
REMARK   11  A    between atoms: C_22  and  O_23
REMARK                            x       y       z     vdW  Elec       q    Type
REMARK                         _______ _______ _______ _____ _____    ______ ____
ROOT
ATOM      1  O   UNL     1       1.185   0.757  -0.057  0.00  0.00    -0.326 OA
ATOM      2  C   UNL     1       3.446  -0.980   0.342  0.00  0.00    -0.003 C 
ATOM      3  C   UNL     1       3.600   0.489  -0.080  0.00  0.00    +0.123 C 
ATOM      4  C   UNL     1       2.069  -1.529  -0.061  0.00  0.00    +0.149 C 
ATOM      5  C   UNL     1       2.410   1.311   0.436  0.00  0.00    +0.172 C 
ATOM      6  C   UNL     1       0.956  -0.577   0.397  0.00  0.00    +0.261 C 
ENDROOT
BRANCH   2   7
ATOM      7  N   UNL     1       4.518  -1.794  -0.234  0.00  0.00    +0.385 N 
ATOM      8  H   UNL     1       5.422  -1.413   0.045  0.00  0.00    -0.089 HD
ATOM      9  H   UNL     1       4.445  -1.784  -1.251  0.00  0.00    -0.089 HD
ATOM     10  H   UNL     1       4.435  -2.753   0.103  0.00  0.00    -0.089 HD
ENDBRANCH   2   7
BRANCH   3  11
ATOM     11  O   UNL     1       3.675   0.595  -1.503  0.00  0.00    -0.384 OA
ATOM     12  H   UNL     1       4.427   0.075  -1.826  0.00  0.00    +0.210 HD
ENDBRANCH   3  11
BRANCH   4  13
ATOM     13  O   UNL     1       1.845  -2.792   0.563  0.00  0.00    -0.381 OA
ATOM     14  H   UNL     1       2.537  -3.415   0.290  0.00  0.00    +0.210 HD
ENDBRANCH   4  13
BRANCH   6  15
ATOM     15  O   UNL     1      -0.308  -1.038  -0.082  0.00  0.00    -0.329 OA
BRANCH  15  16
ATOM     16  C   UNL     1      -1.359  -0.177   0.326  0.00  0.00    +0.145 C 
BRANCH  16  17
ATOM     17  C   UNL     1      -2.679  -0.730  -0.196  0.00  0.00    +0.032 C 
BRANCH  17  18
ATOM     18  C   UNL     1      -3.855   0.163   0.197  0.00  0.00    +0.003 C 
BRANCH  18  19
ATOM     19  C   UNL     1      -5.209  -0.370  -0.279  0.00  0.00    +0.000 C 
BRANCH  19  20
ATOM     20  C   UNL     1      -6.383   0.537   0.093  0.00  0.00    +0.000 C 
ATOM     21  C   UNL     1      -7.710  -0.071  -0.337  0.00  0.00    +0.000 C 
ENDBRANCH  19  20
ENDBRANCH  18  19
ENDBRANCH  17  18
ENDBRANCH  16  17
ENDBRANCH  15  16
ENDBRANCH   6  15
BRANCH   5  22
ATOM     22  C   UNL     1       2.468   2.765  -0.017  0.00  0.00    +0.169 C 
BRANCH  22  23
ATOM     23  O   UNL     1       1.333   3.442   0.492  0.00  0.00    -0.379 OA
ATOM     24  H   UNL     1       1.357   4.371   0.211  0.00  0.00    +0.211 HD
ENDBRANCH  22  23
ENDBRANCH   5  22
TORSDOF 11
