REMARK  Name = 16070039
REMARK  6 active torsions:
REMARK  status: ('A' for Active; 'I' for Inactive)
REMARK    1  A    between atoms: N_3  and  C_18
REMARK    2  A    between atoms: C_6  and  C_12
REMARK    3  A    between atoms: C_19  and  O_28
REMARK    4  A    between atoms: C_21  and  C_25
REMARK    5  A    between atoms: C_25  and  O_26
REMARK    6  A    between atoms: O_28  and  C_32
REMARK                            x       y       z     vdW  Elec       q    Type
REMARK                         _______ _______ _______ _____ _____    ______ ____
ROOT
ATOM      1  O   UNL     1      -0.047  -2.465   0.647  0.00  0.00    -0.252 OA
ATOM      2  O   UNL     1      -2.822  -2.611   0.752  0.00  0.00    -0.270 OA
ATOM      3  N   UNL     1       0.727  -0.375  -0.109  0.00  0.00    -0.266 N 
ATOM      4  N   UNL     1      -1.547  -0.782   0.081  0.00  0.00    -0.236 N 
ATOM      5  C   UNL     1      -0.255  -1.322   0.247  0.00  0.00    +0.310 C 
ATOM      6  C   UNL     1      -2.738  -1.457   0.343  0.00  0.00    +0.254 C 
ATOM      7  H   UNL     1       0.390   0.499  -0.413  0.00  0.00    +0.157 HD
ATOM      8  H   UNL     1      -1.612   0.145  -0.245  0.00  0.00    +0.159 HD
ENDROOT
BRANCH   6  12
ATOM      9 CL   UNL     1      -4.780  -2.554  -1.681  0.00  0.00    -0.082 Cl
ATOM     10  F   UNL     1      -5.436   2.392   1.384  0.00  0.00    -0.202 F 
ATOM     11  F   UNL     1      -7.370   1.584  -0.370  0.00  0.00    -0.202 F 
ATOM     12  C   UNL     1      -3.982  -0.673   0.128  0.00  0.00    +0.067 C 
ATOM     13  C   UNL     1      -4.946  -1.101  -0.763  0.00  0.00    +0.064 C 
ATOM     14  C   UNL     1      -4.124   0.492   0.857  0.00  0.00    +0.037 C 
ATOM     15  C   UNL     1      -6.098  -0.333  -0.933  0.00  0.00    +0.043 C 
ATOM     16  C   UNL     1      -5.277   1.259   0.687  0.00  0.00    +0.168 C 
ATOM     17  C   UNL     1      -6.264   0.847  -0.207  0.00  0.00    +0.168 C 
ENDBRANCH   6  12
BRANCH   3  18
ATOM     18  C   UNL     1       2.117  -0.517  -0.087  0.00  0.00    +0.086 C 
ATOM     19  C   UNL     1       2.946   0.535  -0.477  0.00  0.00    +0.160 C 
ATOM     20  C   UNL     1       2.674  -1.726   0.331  0.00  0.00    +0.018 C 
ATOM     21  C   UNL     1       4.888  -0.831  -0.030  0.00  0.00    +0.079 C 
ATOM     22  C   UNL     1       4.332   0.378  -0.448  0.00  0.00    +0.045 C 
ATOM     23  C   UNL     1       4.059  -1.882   0.359  0.00  0.00    +0.008 C 
BRANCH  21  25
ATOM     24  O   UNL     1       7.158  -0.133  -0.323  0.00  0.00    -0.245 OA
ATOM     25  C   UNL     1       6.333  -0.994  -0.001  0.00  0.00    +0.338 C 
BRANCH  25  26
ATOM     26  O   UNL     1       6.708  -2.230   0.432  0.00  0.00    -0.477 OA
ATOM     27  H   UNL     1       6.057  -2.861   0.669  0.00  0.00    +0.295 HD
ENDBRANCH  25  26
ENDBRANCH  21  25
BRANCH  19  28
ATOM     28  O   UNL     1       2.422   1.724  -0.889  0.00  0.00    -0.403 OA
BRANCH  28  32
ATOM     29  F   UNL     1       2.996   2.611   1.139  0.00  0.00    -0.133 F 
ATOM     30  F   UNL     1       1.722   3.759  -0.214  0.00  0.00    -0.133 F 
ATOM     31  F   UNL     1       3.839   3.509  -0.696  0.00  0.00    -0.133 F 
ATOM     32  C   UNL     1       2.762   2.897  -0.159  0.00  0.00    +0.575 C 
ENDBRANCH  28  32
ENDBRANCH  19  28
ENDBRANCH   3  18
TORSDOF 6
