REMARK  Name = 46937060
REMARK  16 active torsions:
REMARK  status: ('A' for Active; 'I' for Inactive)
REMARK    1  A    between atoms: C_1  and  C_3
REMARK    2  A    between atoms: C_2  and  C_14
REMARK    3  A    between atoms: C_3  and  O_4
REMARK    4  A    between atoms: C_3  and  C_6
REMARK    5  A    between atoms: C_6  and  C_8
REMARK    6  A    between atoms: C_7  and  C_9
REMARK    7  A    between atoms: C_9  and  C_10
REMARK    8  A    between atoms: C_10  and  C_11
REMARK    9  A    between atoms: C_11  and  C_12
REMARK   10  A    between atoms: C_14  and  C_16
REMARK   11  A    between atoms: C_16  and  C_17
REMARK   12  A    between atoms: C_17  and  C_18
REMARK   13  A    between atoms: C_18  and  C_19
REMARK   14  A    between atoms: C_19  and  C_20
REMARK   15  A    between atoms: C_20  and  C_22
REMARK   16  A    between atoms: C_22  and  O_23
REMARK                            x       y       z     vdW  Elec       q    Type
REMARK                         _______ _______ _______ _____ _____    ______ ____
ROOT
ATOM      1  C   UNL     1      -3.107   0.791  -0.007  0.00  0.00    -0.001 C 
ATOM      2  C   UNL     1      -3.302  -0.320  -0.733  0.00  0.00    -0.021 C 
ENDROOT
BRANCH   1   3
ATOM      3  C   UNL     1      -3.038   2.172  -0.597  0.00  0.00    +0.136 C 
BRANCH   3   4
ATOM      4  O   UNL     1      -4.135   2.930  -0.090  0.00  0.00    -0.380 OA
ATOM      5  H   UNL     1      -4.108   3.826  -0.460  0.00  0.00    +0.211 HD
ENDBRANCH   3   4
BRANCH   3   6
ATOM      6  C   UNL     1      -1.713   2.896  -0.307  0.00  0.00    +0.059 C 
BRANCH   6   8
ATOM      7  C   UNL     1      -0.311   2.516   1.741  0.00  0.00    -0.031 C 
ATOM      8  C   UNL     1      -1.400   3.039   1.158  0.00  0.00    -0.028 C 
BRANCH   7   9
ATOM      9  C   UNL     1       0.730   1.723   1.006  0.00  0.00    +0.026 C 
BRANCH   9  10
ATOM     10  C   UNL     1       1.823   2.636   0.446  0.00  0.00    +0.005 C 
BRANCH  10  11
ATOM     11  C   UNL     1       2.866   1.834  -0.337  0.00  0.00    +0.000 C 
BRANCH  11  12
ATOM     12  C   UNL     1       3.947   2.708  -0.978  0.00  0.00    +0.000 C 
ATOM     13  C   UNL     1       4.946   1.923  -1.814  0.00  0.00    +0.000 C 
ENDBRANCH  11  12
ENDBRANCH  10  11
ENDBRANCH   9  10
ENDBRANCH   7   9
ENDBRANCH   6   8
ENDBRANCH   3   6
ENDBRANCH   1   3
BRANCH   2  14
ATOM     14  C   UNL     1      -3.367  -1.695  -0.146  0.00  0.00    +0.090 C 
BRANCH  14  16
ATOM     15  O   UNL     1      -1.835  -2.459  -1.856  0.00  0.00    -0.296 OA
ATOM     16  C   UNL     1      -2.277  -2.593  -0.716  0.00  0.00    +0.155 C 
BRANCH  16  17
ATOM     17  C   UNL     1      -1.777  -3.682   0.222  0.00  0.00    +0.065 C 
BRANCH  17  18
ATOM     18  C   UNL     1      -0.622  -3.213   1.105  0.00  0.00    +0.008 C 
BRANCH  18  19
ATOM     19  C   UNL     1       0.594  -2.816   0.262  0.00  0.00    +0.012 C 
BRANCH  19  20
ATOM     20  C   UNL     1       1.794  -2.414   1.120  0.00  0.00    +0.109 C 
BRANCH  20  22
ATOM     21  O   UNL     1       3.111  -2.124  -0.912  0.00  0.00    -0.250 OA
ATOM     22  C   UNL     1       3.022  -2.087   0.306  0.00  0.00    +0.314 C 
BRANCH  22  23
ATOM     23  O   UNL     1       4.053  -1.764   1.127  0.00  0.00    -0.480 OA
ATOM     24  H   UNL     1       3.927  -1.752   2.056  0.00  0.00    +0.295 HD
ENDBRANCH  22  23
ENDBRANCH  20  22
ENDBRANCH  19  20
ENDBRANCH  18  19
ENDBRANCH  17  18
ENDBRANCH  16  17
ENDBRANCH  14  16
ENDBRANCH   2  14
TORSDOF 16
