REMARK  Name = 10062718
REMARK  2 active torsions:
REMARK  status: ('A' for Active; 'I' for Inactive)
REMARK    1  A    between atoms: C_6  and  C_10
REMARK    2  A    between atoms: C_13  and  O_16
REMARK                            x       y       z     vdW  Elec       q    Type
REMARK                         _______ _______ _______ _____ _____    ______ ____
ROOT
ATOM      1  S   UNL     1      -1.506  -1.240  -0.017  0.00  0.00    +0.076 S 
ATOM      2  O   UNL     1      -1.518  -1.921  -1.297  0.00  0.00    -0.150 OA
ATOM      3  O   UNL     1      -1.101  -1.917   1.199  0.00  0.00    -0.150 OA
ATOM      4  O   UNL     1      -3.933   1.653   0.334  0.00  0.00    -0.269 OA
ATOM      5  N   UNL     1      -3.037  -0.526   0.230  0.00  0.00    -0.181 N 
ATOM      6  C   UNL     1      -0.723   0.294  -0.140  0.00  0.00    +0.130 C 
ATOM      7  C   UNL     1      -1.573   1.322  -0.001  0.00  0.00    +0.079 C 
ATOM      8  C   UNL     1      -2.987   0.896   0.204  0.00  0.00    +0.266 C 
ATOM      9  H   UNL     1      -3.864  -1.041   0.373  0.00  0.00    +0.177 HD
ENDROOT
BRANCH   6  10
ATOM     10  C   UNL     1       0.725   0.261  -0.269  0.00  0.00    +0.022 C 
ATOM     11  C   UNL     1       1.526   0.173   0.869  0.00  0.00    +0.038 C 
ATOM     12  C   UNL     1       1.313   0.319  -1.533  0.00  0.00    +0.002 C 
ATOM     13  C   UNL     1       2.915   0.142   0.744  0.00  0.00    +0.134 C 
ATOM     14  C   UNL     1       2.701   0.289  -1.658  0.00  0.00    +0.003 C 
ATOM     15  C   UNL     1       3.502   0.200  -0.520  0.00  0.00    +0.037 C 
BRANCH  13  16
ATOM     16  O   UNL     1       3.697   0.056   1.855  0.00  0.00    -0.506 OA
ATOM     17  H   UNL     1       3.302   0.016   2.704  0.00  0.00    +0.292 HD
ENDBRANCH  13  16
ENDBRANCH   6  10
TORSDOF 2
