REMARK  Name = 9549217
REMARK  5 active torsions:
REMARK  status: ('A' for Active; 'I' for Inactive)
REMARK    1  A    between atoms: CA_2  and  C_25
REMARK    2  A    between atoms: C_9  and  S_13
REMARK    3  A    between atoms: S_13  and  N_16
REMARK    4  A    between atoms: N_16  and  C_19
REMARK    5  A    between atoms: C_25  and  O_26
REMARK                            x       y       z     vdW  Elec       q    Type
REMARK                         _______ _______ _______ _____ _____    ______ ____
ROOT
ATOM      1  N   UNL     1      -3.065   1.522   0.881  0.00  0.00    +0.390 N 
ATOM      2  CA  UNL     1      -4.061   0.554   0.408  0.00  0.00    -0.027 C 
ATOM      3  C   UNL     1      -3.470  -0.267  -0.750  0.00  0.00    +0.007 C 
ATOM      4  C   UNL     1      -2.096  -0.806  -0.438  0.00  0.00    -0.030 C 
ATOM      5  C   UNL     1      -1.336  -0.247   0.605  0.00  0.00    -0.046 C 
ATOM      6  C   UNL     1      -1.916   0.835   1.480  0.00  0.00    -0.054 C 
ATOM      7  C   UNL     1      -0.053  -0.746   0.868  0.00  0.00    +0.014 C 
ATOM      8  C   UNL     1      -1.548  -1.828  -1.224  0.00  0.00    -0.003 C 
ATOM      9  C   UNL     1       0.480  -1.770   0.085  0.00  0.00    +0.125 C 
ATOM     10  C   UNL     1      -0.266  -2.308  -0.961  0.00  0.00    +0.020 C 
ATOM     11  H1  UNL     1      -3.494   2.129   1.579  0.00  0.00    -0.084 HD
ATOM     12  H2  UNL     1      -2.740   2.072   0.086  0.00  0.00    -0.084 HD
ENDROOT
BRANCH   9  13
ATOM     13  S   UNL     1       2.082  -2.378   0.418  0.00  0.00    +0.074 S 
ATOM     14  O   UNL     1       2.159  -3.738  -0.104  0.00  0.00    -0.150 OA
ATOM     15  O   UNL     1       2.386  -2.149   1.825  0.00  0.00    -0.150 OA
BRANCH  13  16
ATOM     16  N   UNL     1       3.084  -1.373  -0.559  0.00  0.00    -0.215 N 
ATOM     17  H   UNL     1       3.739  -1.763  -1.182  0.00  0.00    +0.174 HD
BRANCH  16  19
ATOM     18 CL   UNL     1       2.464   4.513  -0.062  0.00  0.00    -0.082 Cl
ATOM     19  C   UNL     1       2.934   0.052  -0.439  0.00  0.00    +0.065 C 
ATOM     20  C   UNL     1       3.156   0.665   0.788  0.00  0.00    +0.017 C 
ATOM     21  C   UNL     1       2.569   0.801  -1.551  0.00  0.00    +0.017 C 
ATOM     22  C   UNL     1       3.010   2.048   0.905  0.00  0.00    +0.013 C 
ATOM     23  C   UNL     1       2.424   2.183  -1.435  0.00  0.00    +0.013 C 
ATOM     24  C   UNL     1       2.644   2.807  -0.206  0.00  0.00    +0.058 C 
ENDBRANCH  16  19
ENDBRANCH  13  16
ENDBRANCH   9  13
BRANCH   2  25
ATOM     25  C   UNL     1      -5.319   1.292  -0.045  0.00  0.00    +0.116 C 
BRANCH  25  26
ATOM     26  O   UNL     1      -6.265   0.338  -0.488  0.00  0.00    -0.384 OA
ATOM     27  H   UNL     1      -7.071   0.792  -0.780  0.00  0.00    +0.210 HD
ENDBRANCH  25  26
ENDBRANCH   2  25
TORSDOF 5
