REMARK  Name = 5287620
REMARK  2 active torsions:
REMARK  status: ('A' for Active; 'I' for Inactive)
REMARK    1  A    between atoms: C_7  and  O_19
REMARK    2  A    between atoms: C_8  and  O_21
REMARK                            x       y       z     vdW  Elec       q    Type
REMARK                         _______ _______ _______ _____ _____    ______ ____
ROOT
ATOM      1  O   UNL     1       2.783   0.626   0.678  0.00  0.00    -0.449 OA
ATOM      2  O   UNL     1       2.523   1.910  -1.234  0.00  0.00    -0.245 OA
ATOM      3  C   UNL     1      -2.413   0.559  -0.105  0.00  0.00    +0.038 C 
ATOM      4  C   UNL     1      -1.840  -0.699   0.603  0.00  0.00    +0.027 C 
ATOM      5  C   UNL     1      -3.864   0.627   0.395  0.00  0.00    +0.032 C 
ATOM      6  C   UNL     1      -3.066  -1.566   0.971  0.00  0.00    +0.034 C 
ATOM      7  C   UNL     1      -4.288  -0.832   0.429  0.00  0.00    +0.111 C 
ATOM      8  C   UNL     1      -1.644   1.866   0.171  0.00  0.00    +0.133 C 
ATOM      9  C   UNL     1      -0.863  -1.468  -0.252  0.00  0.00    -0.031 C 
ATOM     10  C   UNL     1      -0.235   1.805  -0.346  0.00  0.00    +0.009 C 
ATOM     11  C   UNL     1       0.375  -1.809   0.141  0.00  0.00    -0.031 C 
ATOM     12  C   UNL     1       1.333  -2.601  -0.706  0.00  0.00    +0.026 C 
ATOM     13  C   UNL     1       2.580  -1.809  -1.119  0.00  0.00    +0.008 C 
ATOM     14  C   UNL     1       3.576  -1.554   0.027  0.00  0.00    +0.044 C 
ATOM     15  C   UNL     1       0.833   1.761   0.460  0.00  0.00    +0.080 C 
ATOM     16  C   UNL     1       3.946  -0.070   0.183  0.00  0.00    +0.169 C 
ATOM     17  C   UNL     1       2.149   1.495  -0.149  0.00  0.00    +0.341 C 
ATOM     18  C   UNL     1       5.052   0.114   1.214  0.00  0.00    +0.047 C 
ENDROOT
BRANCH   7  19
ATOM     19  O   UNL     1      -4.619  -1.296  -0.875  0.00  0.00    -0.384 OA
ATOM     20  H   UNL     1      -5.397  -0.818  -1.201  0.00  0.00    +0.210 HD
ENDBRANCH   7  19
BRANCH   8  21
ATOM     21  O   UNL     1      -2.318   2.940  -0.487  0.00  0.00    -0.380 OA
ATOM     22  H   UNL     1      -3.231   2.994  -0.164  0.00  0.00    +0.211 HD
ENDBRANCH   8  21
TORSDOF 2
