REMARK  Name = 449015
REMARK  8 active torsions:
REMARK  status: ('A' for Active; 'I' for Inactive)
REMARK    1  A    between atoms: C_1  and  N_2
REMARK    2  A    between atoms: C_1  and  C_12
REMARK    3  A    between atoms: C_1  and  C_16
REMARK    4  A    between atoms: C_6  and  C_9
REMARK    5  A    between atoms: C_12  and  O_14
REMARK    6  A    between atoms: C_16  and  C_17
REMARK    7  A    between atoms: C_17  and  O_18
REMARK    8  A    between atoms: O_18  and  C_19
REMARK                            x       y       z     vdW  Elec       q    Type
REMARK                         _______ _______ _______ _____ _____    ______ ____
ROOT
ATOM      1  C   UNL     1      -2.725  -1.220   0.250  0.00  0.00    +0.090 C 
ENDROOT
BRANCH   1   2
ATOM      2  N   UNL     1      -2.505   0.192  -0.098  0.00  0.00    -0.246 NA
ATOM      3  N   UNL     1      -2.761   2.121  -1.113  0.00  0.00    -0.251 NA
ATOM      4  C   UNL     1      -1.587   1.002   0.471  0.00  0.00    +0.125 C 
ATOM      5  C   UNL     1      -3.190   0.880  -1.036  0.00  0.00    +0.201 C 
ATOM      6  C   UNL     1      -1.761   2.203  -0.176  0.00  0.00    +0.124 C 
BRANCH   6   9
ATOM      7  O   UNL     1      -0.102   3.471   0.913  0.00  0.00    -0.269 OA
ATOM      8  N   UNL     1      -1.337   4.546  -0.693  0.00  0.00    -0.324 N 
ATOM      9  C   UNL     1      -1.025   3.406   0.064  0.00  0.00    +0.257 C 
ATOM     10  H   UNL     1      -0.844   5.385  -0.545  0.00  0.00    +0.145 HD
ATOM     11  H   UNL     1      -2.049   4.506  -1.372  0.00  0.00    +0.145 HD
ENDBRANCH   6   9
ENDBRANCH   1   2
BRANCH   1  12
ATOM     12  C   UNL     1      -4.148  -1.459   0.817  0.00  0.00    +0.125 C 
ATOM     13  C   UNL     1      -4.461  -0.605   2.043  0.00  0.00    +0.033 C 
BRANCH  12  14
ATOM     14  O   UNL     1      -4.289  -2.829   1.198  0.00  0.00    -0.383 OA
ATOM     15  H   UNL     1      -4.096  -3.398   0.437  0.00  0.00    +0.210 HD
ENDBRANCH  12  14
ENDBRANCH   1  12
BRANCH   1  16
ATOM     16  C   UNL     1      -2.413  -2.169  -0.932  0.00  0.00    +0.066 C 
BRANCH  16  17
ATOM     17  C   UNL     1      -0.993  -2.019  -1.471  0.00  0.00    +0.207 C 
BRANCH  17  18
ATOM     18  O   UNL     1      -0.075  -2.287  -0.419  0.00  0.00    -0.475 OA
BRANCH  18  19
ATOM     19  C   UNL     1       1.138  -1.654  -0.481  0.00  0.00    +0.139 C 
ATOM     20  C   UNL     1       1.811  -1.337   0.694  0.00  0.00    +0.037 C 
ATOM     21  C   UNL     1       3.055  -0.688   0.646  0.00  0.00    +0.003 C 
ATOM     22  C   UNL     1       3.617  -0.359  -0.610  0.00  0.00    +0.000 C 
ATOM     23  C   UNL     1       1.683  -1.335  -1.717  0.00  0.00    +0.037 C 
ATOM     24  C   UNL     1       2.918  -0.690  -1.782  0.00  0.00    +0.003 C 
ATOM     25  C   UNL     1       3.755  -0.358   1.819  0.00  0.00    +0.000 C 
ATOM     26  C   UNL     1       4.862   0.290  -0.658  0.00  0.00    +0.000 C 
ATOM     27  C   UNL     1       4.990   0.287   1.753  0.00  0.00    +0.000 C 
ATOM     28  C   UNL     1       5.543   0.610   0.517  0.00  0.00    +0.000 C 
ENDBRANCH  18  19
ENDBRANCH  17  18
ENDBRANCH  16  17
ENDBRANCH   1  16
TORSDOF 8
