REMARK  Name = 15942655
REMARK  5 active torsions:
REMARK  status: ('A' for Active; 'I' for Inactive)
REMARK    1  A    between atoms: C_1  and  C_9
REMARK    2  A    between atoms: C_2  and  C_17
REMARK    3  A    between atoms: C_3  and  O_31
REMARK    4  A    between atoms: C_19  and  C_23
REMARK    5  A    between atoms: C_23  and  N_25
REMARK                            x       y       z     vdW  Elec       q    Type
REMARK                         _______ _______ _______ _____ _____    ______ ____
ROOT
ATOM      1  C   UNL     1      -1.409   1.441  -0.514  0.00  0.00    +0.047 C 
ATOM      2  C   UNL     1       0.962   1.790  -0.196  0.00  0.00    +0.034 C 
ATOM      3  C   UNL     1      -0.196   1.055   0.057  0.00  0.00    +0.135 C 
ATOM      4  C   UNL     1      -1.461   2.565  -1.341  0.00  0.00    +0.004 C 
ATOM      5  C   UNL     1       0.909   2.913  -1.022  0.00  0.00    +0.003 C 
ATOM      6  C   UNL     1      -0.303   3.300  -1.594  0.00  0.00    +0.000 C 
ENDROOT
BRANCH   1   9
ATOM      7  N   UNL     1      -2.605  -0.650  -0.019  0.00  0.00    -0.312 N 
ATOM      8  N   UNL     1      -6.598  -1.452   0.492  0.00  0.00    -0.242 NA
ATOM      9  C   UNL     1      -2.620   0.696  -0.267  0.00  0.00    +0.051 C 
ATOM     10  C   UNL     1      -3.887  -1.109   0.182  0.00  0.00    +0.051 C 
ATOM     11  C   UNL     1      -4.741  -0.012   0.056  0.00  0.00    +0.034 C 
ATOM     12  C   UNL     1      -3.928   1.120  -0.228  0.00  0.00    +0.017 C 
ATOM     13  C   UNL     1      -4.354  -2.390   0.463  0.00  0.00    +0.035 C 
ATOM     14  C   UNL     1      -6.115  -0.216   0.218  0.00  0.00    +0.100 C 
ATOM     15  C   UNL     1      -5.729  -2.482   0.605  0.00  0.00    +0.100 C 
ATOM     16  H   UNL     1      -1.795  -1.209   0.012  0.00  0.00    +0.152 HD
ENDBRANCH   1   9
BRANCH   2  17
ATOM     17  C   UNL     1       2.233   1.406   0.387  0.00  0.00    +0.003 C 
ATOM     18  C   UNL     1       3.072   0.527  -0.294  0.00  0.00    -0.003 C 
ATOM     19  C   UNL     1       4.295   0.157   0.267  0.00  0.00    -0.003 C 
ATOM     20  C   UNL     1       2.611   1.917   1.626  0.00  0.00    +0.000 C 
ATOM     21  C   UNL     1       4.675   0.668   1.508  0.00  0.00    -0.003 C 
ATOM     22  C   UNL     1       3.833   1.548   2.187  0.00  0.00    -0.000 C 
BRANCH  19  23
ATOM     23  C   UNL     1       5.197  -0.783  -0.460  0.00  0.00    +0.118 C 
BRANCH  23  25
ATOM     24  O   UNL     1       3.354  -2.601  -1.766  0.00  0.00    -0.253 OA
ATOM     25  N   UNL     1       4.939  -2.160  -0.122  0.00  0.00    -0.285 N 
ATOM     26  N   UNL     1       3.973  -4.241  -0.284  0.00  0.00    -0.313 N 
ATOM     27  C   UNL     1       4.033  -2.962  -0.807  0.00  0.00    +0.298 C 
ATOM     28  H   UNL     1       5.431  -2.553   0.634  0.00  0.00    +0.151 HD
ATOM     29  H   UNL     1       3.367  -4.907  -0.682  0.00  0.00    +0.146 HD
ATOM     30  H   UNL     1       4.536  -4.485   0.486  0.00  0.00    +0.146 HD
ENDBRANCH  23  25
ENDBRANCH  19  23
ENDBRANCH   2  17
BRANCH   3  31
ATOM     31  O   UNL     1      -0.143  -0.045   0.866  0.00  0.00    -0.505 OA
ATOM     32  H   UNL     1      -0.921  -0.539   1.037  0.00  0.00    +0.292 HD
ENDBRANCH   3  31
TORSDOF 5
