REMARK  Name = 1700
REMARK  5 active torsions:
REMARK  status: ('A' for Active; 'I' for Inactive)
REMARK    1  A    between atoms: N_2  and  C_17
REMARK    2  A    between atoms: C_3  and  C_5
REMARK    3  A    between atoms: C_6  and  S_11
REMARK    4  A    between atoms: S_11  and  N_14
REMARK    5  A    between atoms: C_17  and  C_20
REMARK                            x       y       z     vdW  Elec       q    Type
REMARK                         _______ _______ _______ _____ _____    ______ ____
ROOT
ATOM      1  O   UNL     1       0.451  -2.536   0.037  0.00  0.00    -0.270 OA
ATOM      2  N   UNL     1       1.030  -0.636   1.234  0.00  0.00    -0.297 N 
ATOM      3  C   UNL     1       0.132  -1.432   0.513  0.00  0.00    +0.246 C 
ATOM      4  H   UNL     1       0.711   0.227   1.583  0.00  0.00    +0.150 HD
ENDROOT
BRANCH   3   5
ATOM      5  C   UNL     1      -1.208  -0.903   0.316  0.00  0.00    +0.053 C 
ATOM      6  C   UNL     1      -3.778   0.115  -0.063  0.00  0.00    +0.122 C 
ATOM      7  C   UNL     1      -1.958  -1.297  -0.792  0.00  0.00    +0.006 C 
ATOM      8  C   UNL     1      -1.744   0.000   1.235  0.00  0.00    +0.006 C 
ATOM      9  C   UNL     1      -3.242  -0.788  -0.982  0.00  0.00    +0.020 C 
ATOM     10  C   UNL     1      -3.029   0.509   1.046  0.00  0.00    +0.020 C 
BRANCH   6  11
ATOM     11  S   UNL     1      -5.387   0.750  -0.300  0.00  0.00    +0.057 S 
ATOM     12  O   UNL     1      -6.137  -0.192  -1.120  0.00  0.00    -0.153 OA
ATOM     13  O   UNL     1      -5.915   1.164   0.992  0.00  0.00    -0.153 OA
BRANCH  11  14
ATOM     14  N   UNL     1      -5.053   2.145  -1.228  0.00  0.00    -0.203 NA
ATOM     15  H   UNL     1      -5.926   2.627  -1.444  0.00  0.00    +0.144 HD
ATOM     16  H   UNL     1      -4.590   1.873  -2.096  0.00  0.00    +0.144 HD
ENDBRANCH  11  14
ENDBRANCH   6  11
ENDBRANCH   3   5
BRANCH   2  17
ATOM     17  C   UNL     1       2.401  -1.013   1.492  0.00  0.00    +0.119 C 
BRANCH  17  20
ATOM     18  F   UNL     1       3.619   1.534   1.618  0.00  0.00    -0.202 F 
ATOM     19  F   UNL     1       5.222   2.495  -0.367  0.00  0.00    -0.202 F 
ATOM     20  C   UNL     1       3.282  -0.478   0.405  0.00  0.00    +0.027 C 
ATOM     21  C   UNL     1       3.851   0.785   0.531  0.00  0.00    +0.165 C 
ATOM     22  C   UNL     1       3.526  -1.252  -0.726  0.00  0.00    -0.000 C 
ATOM     23  C   UNL     1       4.671   1.280  -0.483  0.00  0.00    +0.167 C 
ATOM     24  C   UNL     1       4.346  -0.758  -1.740  0.00  0.00    +0.002 C 
ATOM     25  C   UNL     1       4.919   0.508  -1.619  0.00  0.00    +0.032 C 
ENDBRANCH  17  20
ENDBRANCH   2  17
TORSDOF 5
