REMARK  Name = 23729147
REMARK  5 active torsions:
REMARK  status: ('A' for Active; 'I' for Inactive)
REMARK    1  A    between atoms: O_1  and  C_6
REMARK    2  A    between atoms: O_1  and  C_18
REMARK    3  A    between atoms: C_18  and  C_20
REMARK    4  A    between atoms: N_19  and  C_26
REMARK    5  A    between atoms: C_26  and  C_28
REMARK                            x       y       z     vdW  Elec       q    Type
REMARK                         _______ _______ _______ _____ _____    ______ ____
ROOT
ATOM      1  O   UNL     1       1.718  -0.884  -0.408  0.00  0.00    -0.479 OA
ENDROOT
BRANCH   1   6
ATOM      2  N   UNL     1       6.319   0.624  -0.201  0.00  0.00    -0.332 NA
ATOM      3  N   UNL     1       4.567   2.272  -0.050  0.00  0.00    -0.317 NA
ATOM      4  N   UNL     1       2.317   1.664  -0.138  0.00  0.00    -0.335 N 
ATOM      5  N   UNL     1       6.822   2.902   0.040  0.00  0.00    -0.283 N 
ATOM      6  C   UNL     1       3.075  -1.100  -0.414  0.00  0.00    +0.130 C 
ATOM      7  C   UNL     1       4.025  -0.071  -0.298  0.00  0.00    +0.177 C 
ATOM      8  C   UNL     1       3.492  -2.421  -0.545  0.00  0.00    +0.033 C 
ATOM      9  C   UNL     1       5.401  -0.353  -0.312  0.00  0.00    +0.137 C 
ATOM     10  C   UNL     1       3.675   1.270  -0.163  0.00  0.00    +0.181 C 
ATOM     11  C   UNL     1       4.851  -2.712  -0.561  0.00  0.00    +0.005 C 
ATOM     12  C   UNL     1       5.790  -1.683  -0.444  0.00  0.00    +0.030 C 
ATOM     13  C   UNL     1       5.852   1.883  -0.076  0.00  0.00    +0.197 C 
ATOM     14  H   UNL     1       2.082   2.615  -0.042  0.00  0.00    +0.144 HD
ATOM     15  H   UNL     1       1.606   0.987  -0.215  0.00  0.00    +0.144 HD
ATOM     16  H   UNL     1       7.779   2.675   0.027  0.00  0.00    +0.156 HD
ATOM     17  H   UNL     1       6.540   3.841   0.135  0.00  0.00    +0.156 HD
ENDBRANCH   1   6
BRANCH   1  18
ATOM     18  C   UNL     1       0.972  -1.515   0.616  0.00  0.00    +0.205 C 
BRANCH  18  20
ATOM     19  N   UNL     1      -3.154  -0.312   1.050  0.00  0.00    +0.390 N 
ATOM     20  C   UNL     1      -0.244  -0.649   0.934  0.00  0.00    +0.040 C 
ATOM     21  C   UNL     1      -1.103  -1.286   2.031  0.00  0.00    -0.019 C 
ATOM     22  C   UNL     1      -1.095  -0.414  -0.318  0.00  0.00    -0.019 C 
ATOM     23  C   UNL     1      -2.375  -0.475   2.285  0.00  0.00    -0.077 C 
ATOM     24  C   UNL     1      -2.368   0.369   0.013  0.00  0.00    -0.077 C 
ATOM     25  H   UNL     1      -3.393  -1.241   0.704  0.00  0.00    -0.079 HD
BRANCH  19  26
ATOM     26  C   UNL     1      -4.391   0.421   1.319  0.00  0.00    -0.048 C 
BRANCH  26  28
ATOM     27  F   UNL     1      -5.918   2.521   0.181  0.00  0.00    -0.205 F 
ATOM     28  C   UNL     1      -5.419   0.200   0.241  0.00  0.00    -0.016 C 
ATOM     29  C   UNL     1      -6.136   1.280  -0.275  0.00  0.00    +0.134 C 
ATOM     30  C   UNL     1      -5.654  -1.087  -0.240  0.00  0.00    -0.004 C 
ATOM     31  C   UNL     1      -7.089   1.071  -1.273  0.00  0.00    +0.029 C 
ATOM     32  C   UNL     1      -6.606  -1.296  -1.238  0.00  0.00    -0.000 C 
ATOM     33  C   UNL     1      -7.324  -0.217  -1.754  0.00  0.00    +0.002 C 
ENDBRANCH  26  28
ENDBRANCH  19  26
ENDBRANCH  18  20
ENDBRANCH   1  18
TORSDOF 5
