REMARK  Name = 445332
REMARK  5 active torsions:
REMARK  status: ('A' for Active; 'I' for Inactive)
REMARK    1  A    between atoms: C_1  and  C_18
REMARK    2  A    between atoms: C_2  and  N_6
REMARK    3  A    between atoms: C_19  and  O_24
REMARK    4  A    between atoms: C_21  and  C_27
REMARK    5  A    between atoms: C_27  and  C_28
REMARK                            x       y       z     vdW  Elec       q    Type
REMARK                         _______ _______ _______ _____ _____    ______ ____
ROOT
ATOM      1  C   UNL     1      -1.606   2.467   0.200  0.00  0.00    +0.047 C 
ATOM      2  C   UNL     1      -0.311   2.681  -0.516  0.00  0.00    +0.078 C 
ATOM      3  C   UNL     1      -1.611   2.912  -1.228  0.00  0.00    +0.026 C 
ENDROOT
BRANCH   2   6
ATOM      4 BR   UNL     1       7.855  -1.971   0.414  0.00  0.00    -0.047 Br
ATOM      5  O   UNL     1       2.311   2.194   0.482  0.00  0.00    -0.252 OA
ATOM      6  N   UNL     1       0.527   1.580  -0.853  0.00  0.00    -0.290 N 
ATOM      7  N   UNL     1       2.405   0.243  -0.824  0.00  0.00    -0.254 N 
ATOM      8  N   UNL     1       4.461   0.404   0.335  0.00  0.00    -0.228 NA
ATOM      9  C   UNL     1       1.815   1.404  -0.319  0.00  0.00    +0.305 C 
ATOM     10  C   UNL     1       3.688  -0.276  -0.531  0.00  0.00    +0.135 C 
ATOM     11  C   UNL     1       4.046  -1.449  -1.162  0.00  0.00    +0.035 C 
ATOM     12  C   UNL     1       5.305  -1.967  -0.881  0.00  0.00    +0.011 C 
ATOM     13  C   UNL     1       5.678  -0.130   0.583  0.00  0.00    +0.107 C 
ATOM     14  C   UNL     1       6.143  -1.302   0.007  0.00  0.00    +0.054 C 
ATOM     15  H   UNL     1       0.189   0.911  -1.491  0.00  0.00    +0.151 HD
ATOM     16  H   UNL     1       1.863  -0.276  -1.460  0.00  0.00    +0.158 HD
ENDBRANCH   2   6
BRANCH   1  18
ATOM     17  F   UNL     1       0.009   0.711   1.686  0.00  0.00    -0.204 F 
ATOM     18  C   UNL     1      -2.033   1.075   0.530  0.00  0.00    +0.040 C 
ATOM     19  C   UNL     1      -3.269   0.591   0.103  0.00  0.00    +0.134 C 
ATOM     20  C   UNL     1      -1.181   0.256   1.271  0.00  0.00    +0.139 C 
ATOM     21  C   UNL     1      -3.654  -0.713   0.417  0.00  0.00    +0.068 C 
ATOM     22  C   UNL     1      -1.566  -1.048   1.586  0.00  0.00    +0.030 C 
ATOM     23  C   UNL     1      -2.803  -1.532   1.159  0.00  0.00    +0.008 C 
BRANCH  19  24
ATOM     24  O   UNL     1      -4.101   1.392  -0.624  0.00  0.00    -0.506 OA
ATOM     25  H   UNL     1      -3.841   2.267  -0.834  0.00  0.00    +0.292 HD
ENDBRANCH  19  24
BRANCH  21  27
ATOM     26  O   UNL     1      -5.921  -0.483  -0.166  0.00  0.00    -0.291 OA
ATOM     27  C   UNL     1      -4.941  -1.239  -0.018  0.00  0.00    +0.176 C 
BRANCH  27  28
ATOM     28  C   UNL     1      -5.097  -2.743  -0.300  0.00  0.00    +0.069 C 
ATOM     29  C   UNL     1      -6.149  -3.056  -1.352  0.00  0.00    +0.009 C 
ENDBRANCH  27  28
ENDBRANCH  21  27
ENDBRANCH   1  18
TORSDOF 5
