REMARK  Name = 11963557
REMARK  4 active torsions:
REMARK  status: ('A' for Active; 'I' for Inactive)
REMARK    1  A    between atoms: C_11  and  C_19
REMARK    2  A    between atoms: C_13  and  C_30
REMARK    3  A    between atoms: C_16  and  N_22
REMARK    4  A    between atoms: C_30  and  C_32
REMARK                            x       y       z     vdW  Elec       q    Type
REMARK                         _______ _______ _______ _____ _____    ______ ____
ROOT
ATOM      1  O   UNL     1       1.558  -3.588   0.038  0.00  0.00    -0.270 OA
ATOM      2  O   UNL     1      -4.857   1.847  -0.035  0.00  0.00    -0.274 OA
ATOM      3  N   UNL     1      -4.221  -0.321  -0.010  0.00  0.00    -0.233 N 
ATOM      4  N   UNL     1       0.252  -1.638   0.065  0.00  0.00    -0.264 N 
ATOM      5  N   UNL     1      -2.677  -3.566   0.037  0.00  0.00    -0.273 N 
ATOM      6  N   UNL     1      -1.303  -3.496   0.056  0.00  0.00    -0.157 NA
ATOM      7  C   UNL     1      -2.222  -1.324   0.026  0.00  0.00    +0.067 A 
ATOM      8  C   UNL     1      -3.175  -2.314   0.019  0.00  0.00    +0.093 A 
ATOM      9  C   UNL     1      -1.041  -2.144   0.049  0.00  0.00    +0.157 A 
ATOM     10  C   UNL     1      -2.813  -0.100   0.008  0.00  0.00    +0.076 C 
ATOM     11  C   UNL     1       1.459  -2.350   0.059  0.00  0.00    +0.251 C 
ATOM     12  C   UNL     1      -4.377  -1.721  -0.002  0.00  0.00    +0.091 C 
ATOM     13  C   UNL     1      -5.200   0.674  -0.032  0.00  0.00    +0.238 C 
ATOM     14  H   UNL     1       0.331  -0.657   0.082  0.00  0.00    +0.157 HD
ATOM     15  H   UNL     1      -3.209  -4.394   0.036  0.00  0.00    +0.189 HD
ENDROOT
BRANCH  11  19
ATOM     16  C   UNL     1       5.016   0.016   0.037  0.00  0.00    +0.048 C 
ATOM     17  C   UNL     1       3.818   0.511   0.591  0.00  0.00    +0.015 C 
ATOM     18  C   UNL     1       5.005  -1.283  -0.510  0.00  0.00    +0.015 C 
ATOM     19  C   UNL     1       2.669  -1.545   0.051  0.00  0.00    +0.054 C 
ATOM     20  C   UNL     1       2.657  -0.262   0.598  0.00  0.00    +0.006 C 
ATOM     21  C   UNL     1       3.843  -2.055  -0.503  0.00  0.00    +0.006 C 
BRANCH  16  22
ATOM     22  N   UNL     1       6.181   0.790   0.030  0.00  0.00    -0.312 N 
ATOM     23  N   UNL     1       8.422   2.556  -0.106  0.00  0.00    +0.388 N 
ATOM     24  C   UNL     1       6.790   1.109  -1.268  0.00  0.00    +0.068 C 
ATOM     25  C   UNL     1       6.408   1.772   1.095  0.00  0.00    +0.068 C 
ATOM     26  C   UNL     1       8.264   1.480  -1.092  0.00  0.00    -0.056 C 
ATOM     27  C   UNL     1       7.895   2.123   1.194  0.00  0.00    -0.056 C 
ATOM     28  C   UNL     1       9.829   2.940   0.014  0.00  0.00    -0.101 C 
ATOM     29  H   UNL     1       7.896   3.371  -0.420  0.00  0.00    -0.080 HD
ENDBRANCH  16  22
ENDBRANCH  11  19
BRANCH  13  30
ATOM     30  C   UNL     1      -6.616   0.187  -0.049  0.00  0.00    +0.119 C 
BRANCH  30  32
ATOM     31  S   UNL     1      -8.632   1.627   1.168  0.00  0.00    -0.090 S 
ATOM     32  C   UNL     1      -7.525   1.378  -0.102  0.00  0.00    +0.016 C 
ATOM     33  C   UNL     1      -7.594   2.336  -1.073  0.00  0.00    +0.003 C 
ATOM     34  C   UNL     1      -8.587   3.313  -0.771  0.00  0.00    +0.007 C 
ATOM     35  C   UNL     1      -9.227   3.048   0.420  0.00  0.00    +0.035 C 
ENDBRANCH  30  32
ENDBRANCH  13  30
TORSDOF 4
