REMARK  Name = 74077203
REMARK  4 active torsions:
REMARK  status: ('A' for Active; 'I' for Inactive)
REMARK    1  A    between atoms: C_15  and  O_17
REMARK    2  A    between atoms: O_17  and  C_20
REMARK    3  A    between atoms: N_19  and  C_22
REMARK    4  A    between atoms: C_23  and  C_28
REMARK                            x       y       z     vdW  Elec       q    Type
REMARK                         _______ _______ _______ _____ _____    ______ ____
ROOT
ATOM      1  O   UNL     1      -4.280   1.974  -0.829  0.00  0.00    -0.287 OA
ATOM      2  N   UNL     1      -4.971   1.355   0.181  0.00  0.00    +0.441 N 
ATOM      3  N   UNL     1      -4.180  -0.755  -0.932  0.00  0.00    -0.321 N 
ATOM      4  C   UNL     1      -3.406  -0.175   1.301  0.00  0.00    +0.023 C 
ATOM      5  C   UNL     1      -4.617  -0.124   0.309  0.00  0.00    +0.067 C 
ATOM      6  C   UNL     1      -3.215   1.267   1.788  0.00  0.00    -0.013 C 
ATOM      7  C   UNL     1      -4.545   1.935   1.501  0.00  0.00    -0.025 C 
ATOM      8  C   UNL     1      -2.299  -0.655   0.400  0.00  0.00    -0.007 C 
ATOM      9  C   UNL     1      -2.818  -0.975  -0.862  0.00  0.00    +0.042 C 
ATOM     10  C   UNL     1      -3.661  -1.149   2.452  0.00  0.00    +0.004 C 
ATOM     11  C   UNL     1      -6.438   1.568  -0.039  0.00  0.00    -0.043 C 
ATOM     12  C   UNL     1      -5.015  -0.988  -2.078  0.00  0.00    +0.110 C 
ATOM     13  C   UNL     1      -0.950  -0.801   0.693  0.00  0.00    +0.035 C 
ATOM     14  C   UNL     1      -1.972  -1.455  -1.852  0.00  0.00    +0.017 C 
ATOM     15  C   UNL     1      -0.103  -1.280  -0.305  0.00  0.00    +0.150 C 
ATOM     16  C   UNL     1      -0.611  -1.605  -1.569  0.00  0.00    +0.039 C 
ENDROOT
BRANCH  15  17
ATOM     17  O   UNL     1       1.226  -1.433  -0.051  0.00  0.00    -0.410 OA
BRANCH  17  20
ATOM     18  O   UNL     1       1.566   0.740  -0.774  0.00  0.00    -0.226 OA
ATOM     19  N   UNL     1       3.348  -0.586  -0.034  0.00  0.00    -0.250 N 
ATOM     20  C   UNL     1       2.028  -0.306  -0.332  0.00  0.00    +0.410 C 
ATOM     21  H   UNL     1       3.530  -1.489   0.315  0.00  0.00    +0.158 HD
BRANCH  19  22
ATOM     22  C   UNL     1       4.470   0.263  -0.168  0.00  0.00    +0.049 C 
ATOM     23  C   UNL     1       5.747  -0.177   0.181  0.00  0.00    -0.009 C 
ATOM     24  C   UNL     1       4.288   1.557  -0.656  0.00  0.00    +0.014 C 
ATOM     25  C   UNL     1       6.841   0.676   0.041  0.00  0.00    -0.003 C 
ATOM     26  C   UNL     1       5.382   2.411  -0.796  0.00  0.00    +0.001 C 
ATOM     27  C   UNL     1       6.659   1.970  -0.447  0.00  0.00    -0.000 C 
BRANCH  23  28
ATOM     28  C   UNL     1       5.972  -1.558   0.707  0.00  0.00    +0.028 C 
ATOM     29  C   UNL     1       5.554  -1.695   2.168  0.00  0.00    +0.005 C 
ENDBRANCH  23  28
ENDBRANCH  19  22
ENDBRANCH  17  20
ENDBRANCH  15  17
TORSDOF 4
