REMARK  Name = 3000541
REMARK  7 active torsions:
REMARK  status: ('A' for Active; 'I' for Inactive)
REMARK    1  A    between atoms: N_1  and  C_4
REMARK    2  A    between atoms: N_1  and  C_14
REMARK    3  A    between atoms: C_4  and  N_6
REMARK    4  A    between atoms: C_14  and  C_15
REMARK    5  A    between atoms: C_15  and  C_18
REMARK    6  A    between atoms: C_20  and  O_23
REMARK    7  A    between atoms: O_23  and  C_24
REMARK                            x       y       z     vdW  Elec       q    Type
REMARK                         _______ _______ _______ _____ _____    ______ ____
ROOT
ATOM      1  N   UNL     1      -2.482   2.408  -0.500  0.00  0.00    -0.315 N 
ATOM      2  H   UNL     1      -3.113   3.080  -0.154  0.00  0.00    +0.148 HD
ENDROOT
BRANCH   1   4
ATOM      3  S   UNL     1      -0.789   3.808   0.947  0.00  0.00    -0.019 S 
ATOM      4  C   UNL     1      -1.159   2.522  -0.067  0.00  0.00    +0.136 C 
BRANCH   4   6
ATOM      5 CL   UNL     1       5.408   0.583   0.169  0.00  0.00    -0.081 Cl
ATOM      6  N   UNL     1      -0.305   1.553  -0.581  0.00  0.00    -0.281 N 
ATOM      7  N   UNL     1       1.735   2.091   0.488  0.00  0.00    -0.228 NA
ATOM      8  C   UNL     1       1.082   1.319  -0.396  0.00  0.00    +0.133 C 
ATOM      9  C   UNL     1       1.647   0.311  -1.146  0.00  0.00    +0.035 C 
ATOM     10  C   UNL     1       3.006   0.075  -0.973  0.00  0.00    +0.016 C 
ATOM     11  C   UNL     1       3.731   0.845  -0.070  0.00  0.00    +0.077 C 
ATOM     12  C   UNL     1       3.054   1.832   0.629  0.00  0.00    +0.112 C 
ATOM     13  H   UNL     1      -0.743   0.911  -1.185  0.00  0.00    +0.155 HD
ENDBRANCH   4   6
ENDBRANCH   1   4
BRANCH   1  14
ATOM     14  C   UNL     1      -3.029   1.422  -1.394  0.00  0.00    +0.095 C 
BRANCH  14  15
ATOM     15  C   UNL     1      -3.568   0.195  -0.649  0.00  0.00    +0.069 C 
BRANCH  15  18
ATOM     16  F   UNL     1      -1.965  -1.886  -1.672  0.00  0.00    -0.200 F 
ATOM     17  N   UNL     1      -2.401  -0.088   1.452  0.00  0.00    -0.246 NA
ATOM     18  C   UNL     1      -2.537  -0.504   0.173  0.00  0.00    +0.091 C 
ATOM     19  C   UNL     1      -1.785  -1.520  -0.396  0.00  0.00    +0.187 C 
ATOM     20  C   UNL     1      -0.834  -2.149   0.399  0.00  0.00    +0.169 C 
ATOM     21  C   UNL     1      -0.665  -1.749   1.720  0.00  0.00    +0.060 C 
ATOM     22  C   UNL     1      -1.467  -0.723   2.194  0.00  0.00    +0.102 C 
BRANCH  20  23
ATOM     23  O   UNL     1      -0.070  -3.151  -0.113  0.00  0.00    -0.473 OA
BRANCH  23  24
ATOM     24  C   UNL     1       1.242  -3.309   0.427  0.00  0.00    +0.206 C 
ATOM     25  C   UNL     1       2.149  -3.884  -0.640  0.00  0.00    +0.051 C 
ENDBRANCH  23  24
ENDBRANCH  20  23
ENDBRANCH  15  18
ENDBRANCH  14  15
ENDBRANCH   1  14
TORSDOF 7
