REMARK  Name = 449241
REMARK  8 active torsions:
REMARK  status: ('A' for Active; 'I' for Inactive)
REMARK    1  A    between atoms: N_1  and  S_3
REMARK    2  A    between atoms: N_1  and  C_16
REMARK    3  A    between atoms: S_3  and  C_7
REMARK    4  A    between atoms: C_16  and  C_17
REMARK    5  A    between atoms: C_17  and  N_18
REMARK    6  A    between atoms: N_18  and  C_21
REMARK    7  A    between atoms: C_21  and  C_22
REMARK    8  A    between atoms: C_23  and  C_25
REMARK                            x       y       z     vdW  Elec       q    Type
REMARK                         _______ _______ _______ _____ _____    ______ ____
ROOT
ATOM      1  N   UNL     1      -3.512   0.870   1.125  0.00  0.00    -0.182 NA
ATOM      2  H   UNL     1      -2.682   0.731   1.700  0.00  0.00    +0.149 HD
ENDROOT
BRANCH   1   3
ATOM      3  S   UNL     1      -3.940  -0.660   0.499  0.00  0.00    +0.060 S 
ATOM      4  O   UNL     1      -5.064  -0.500  -0.408  0.00  0.00    -0.153 OA
ATOM      5  O   UNL     1      -4.026  -1.609   1.597  0.00  0.00    -0.153 OA
BRANCH   3   7
ATOM      6  N   UNL     1       1.212  -2.050   1.265  0.00  0.00    -0.242 NA
ATOM      7  C   UNL     1      -2.520  -1.080  -0.447  0.00  0.00    +0.122 C 
ATOM      8  C   UNL     1      -1.285  -1.400   0.140  0.00  0.00    +0.022 C 
ATOM      9  C   UNL     1      -0.194  -1.725  -0.692  0.00  0.00    +0.020 C 
ATOM     10  C   UNL     1      -2.669  -1.083  -1.835  0.00  0.00    +0.020 C 
ATOM     11  C   UNL     1      -0.355  -1.725  -2.088  0.00  0.00    +0.002 C 
ATOM     12  C   UNL     1      -1.104  -1.406   1.528  0.00  0.00    +0.022 C 
ATOM     13  C   UNL     1      -1.589  -1.404  -2.653  0.00  0.00    +0.001 C 
ATOM     14  C   UNL     1       1.018  -2.038  -0.073  0.00  0.00    +0.099 C 
ATOM     15  C   UNL     1       0.146  -1.734   2.030  0.00  0.00    +0.099 C 
ENDBRANCH   3   7
ENDBRANCH   1   3
BRANCH   1  16
ATOM     16  C   UNL     1      -3.213   1.982   0.211  0.00  0.00    +0.068 C 
BRANCH  16  17
ATOM     17  C   UNL     1      -1.776   2.436   0.423  0.00  0.00    -0.062 C 
BRANCH  17  18
ATOM     18  N   UNL     1      -1.458   3.542  -0.471  0.00  0.00    +0.387 N 
ATOM     19  H   UNL     1      -2.104   4.311  -0.293  0.00  0.00    -0.084 HD
ATOM     20  H   UNL     1      -1.546   3.217  -1.434  0.00  0.00    -0.084 HD
BRANCH  18  21
ATOM     21  C   UNL     1      -0.094   4.006  -0.258  0.00  0.00    -0.055 C 
BRANCH  21  22
ATOM     22  C   UNL     1       0.904   2.913  -0.501  0.00  0.00    -0.050 C 
ATOM     23  C   UNL     1       1.749   2.465   0.441  0.00  0.00    -0.007 C 
BRANCH  23  25
ATOM     24 BR   UNL     1       5.846  -2.034  -0.329  0.00  0.00    -0.049 Br
ATOM     25  C   UNL     1       2.732   1.385   0.256  0.00  0.00    -0.000 C 
ATOM     26  C   UNL     1       3.129   1.039  -1.026  0.00  0.00    +0.000 C 
ATOM     27  C   UNL     1       3.244   0.734   1.368  0.00  0.00    +0.000 C 
ATOM     28  C   UNL     1       4.061   0.016  -1.202  0.00  0.00    +0.007 C 
ATOM     29  C   UNL     1       4.176  -0.289   1.192  0.00  0.00    +0.007 C 
ATOM     30  C   UNL     1       4.584  -0.648  -0.092  0.00  0.00    +0.035 C 
ENDBRANCH  23  25
ENDBRANCH  21  22
ENDBRANCH  18  21
ENDBRANCH  17  18
ENDBRANCH  16  17
ENDBRANCH   1  16
TORSDOF 8
