REMARK  Name = 1819
REMARK  7 active torsions:
REMARK  status: ('A' for Active; 'I' for Inactive)
REMARK    1  A    between atoms: C_3  and  C_12
REMARK    2  A    between atoms: C_12  and  C_13
REMARK    3  A    between atoms: C_13  and  C_14
REMARK    4  A    between atoms: C_14  and  O_15
REMARK    5  A    between atoms: O_15  and  P_16
REMARK    6  A    between atoms: P_16  and  O_18
REMARK    7  A    between atoms: P_16  and  O_20
REMARK                            x       y       z     vdW  Elec       q    Type
REMARK                         _______ _______ _______ _____ _____    ______ ____
ROOT
ATOM      1  F   UNL     1       3.565  -3.119  -0.226  0.00  0.00    -0.204 F 
ATOM      2  N   UNL     1       2.866   2.263   0.365  0.00  0.00    -0.312 N 
ATOM      3  C   UNL     1       1.103   1.184  -0.442  0.00  0.00    -0.006 C 
ATOM      4  C   UNL     1       2.139   0.236  -0.216  0.00  0.00    +0.013 C 
ATOM      5  C   UNL     1       3.235   0.939   0.290  0.00  0.00    +0.048 C 
ATOM      6  C   UNL     1       1.580   2.421  -0.075  0.00  0.00    +0.058 C 
ATOM      7  C   UNL     1       2.251  -1.157  -0.394  0.00  0.00    +0.031 C 
ATOM      8  C   UNL     1       4.441   0.316   0.629  0.00  0.00    +0.017 C 
ATOM      9  C   UNL     1       3.452  -1.794  -0.060  0.00  0.00    +0.140 C 
ATOM     10  C   UNL     1       4.529  -1.067   0.444  0.00  0.00    +0.031 C 
ATOM     11  H   UNL     1       3.445   2.991   0.689  0.00  0.00    +0.152 HD
ENDROOT
BRANCH   3  12
ATOM     12  C   UNL     1      -0.246   0.902  -0.975  0.00  0.00    +0.030 C 
BRANCH  12  13
ATOM     13  C   UNL     1      -1.273   0.581   0.124  0.00  0.00    +0.037 C 
BRANCH  13  14
ATOM     14  C   UNL     1      -2.644   0.242  -0.444  0.00  0.00    +0.154 C 
BRANCH  14  15
ATOM     15  O   UNL     1      -3.533  -0.026   0.631  0.00  0.00    -0.273 OA
BRANCH  15  16
ATOM     16  P   UNL     1      -5.064  -0.414   0.284  0.00  0.00    +0.473 P 
ATOM     17  O   UNL     1      -5.937  -0.682   1.475  0.00  0.00    -0.227 OA
BRANCH  16  18
ATOM     18  O   UNL     1      -4.923  -1.640  -0.761  0.00  0.00    -0.303 OA
ATOM     19  H   UNL     1      -4.344  -1.376  -1.493  0.00  0.00    +0.222 HD
ENDBRANCH  16  18
BRANCH  16  20
ATOM     20  O   UNL     1      -5.542   0.817  -0.650  0.00  0.00    -0.303 OA
ATOM     21  H   UNL     1      -4.924   0.919  -1.391  0.00  0.00    +0.222 HD
ENDBRANCH  16  20
ENDBRANCH  15  16
ENDBRANCH  14  15
ENDBRANCH  13  14
ENDBRANCH  12  13
ENDBRANCH   3  12
TORSDOF 7
