REMARK  Name = 15602983
REMARK  5 active torsions:
REMARK  status: ('A' for Active; 'I' for Inactive)
REMARK    1  A    between atoms: C_1  and  C_3
REMARK    2  A    between atoms: C_1  and  C_9
REMARK    3  A    between atoms: C_1  and  C_21
REMARK    4  A    between atoms: C_12  and  C_17
REMARK    5  A    between atoms: C_21  and  N_22
REMARK                            x       y       z     vdW  Elec       q    Type
REMARK                         _______ _______ _______ _____ _____    ______ ____
ROOT
ATOM      1  C   UNL     1       1.564  -1.504   0.291  0.00  0.00    +0.023 C 
ENDROOT
BRANCH   1   3
ATOM      2 CL   UNL     1       5.645   2.881  -0.086  0.00  0.00    -0.082 Cl
ATOM      3  C   UNL     1       2.610  -0.381   0.195  0.00  0.00    -0.020 C 
ATOM      4  C   UNL     1       2.867   0.367   1.316  0.00  0.00    -0.003 C 
ATOM      5  C   UNL     1       3.239  -0.178  -1.008  0.00  0.00    -0.003 C 
ATOM      6  C   UNL     1       3.815   1.387   1.228  0.00  0.00    +0.011 C 
ATOM      7  C   UNL     1       4.187   0.841  -1.096  0.00  0.00    +0.011 C 
ATOM      8  C   UNL     1       4.475   1.624   0.022  0.00  0.00    +0.058 C 
ENDBRANCH   1   3
BRANCH   1   9
ATOM      9  C   UNL     1       0.167  -0.988   0.210  0.00  0.00    -0.021 C 
ATOM     10  C   UNL     1      -0.691  -1.121   1.302  0.00  0.00    -0.004 C 
ATOM     11  C   UNL     1      -0.282  -0.373  -0.959  0.00  0.00    -0.004 C 
ATOM     12  C   UNL     1      -2.447  -0.025   0.057  0.00  0.00    +0.003 C 
ATOM     13  C   UNL     1      -1.998  -0.640   1.225  0.00  0.00    -0.000 C 
ATOM     14  C   UNL     1      -1.589   0.109  -1.035  0.00  0.00    -0.000 C 
BRANCH  12  17
ATOM     15  N   UNL     1      -5.512   1.683  -0.587  0.00  0.00    -0.235 N 
ATOM     16  N   UNL     1      -6.033   0.776   0.256  0.00  0.00    -0.180 NA
ATOM     17  C   UNL     1      -3.792   0.470  -0.023  0.00  0.00    +0.037 C 
ATOM     18  C   UNL     1      -4.170   1.542  -0.788  0.00  0.00    +0.081 C 
ATOM     19  C   UNL     1      -4.974   0.036   0.598  0.00  0.00    +0.119 C 
ATOM     20  H   UNL     1      -6.049   2.385  -1.020  0.00  0.00    +0.174 HD
ENDBRANCH  12  17
ENDBRANCH   1   9
BRANCH   1  21
ATOM     21  C   UNL     1       1.888  -2.675  -0.691  0.00  0.00    -0.077 C 
BRANCH  21  22
ATOM     22  N   UNL     1       1.032  -3.831  -0.426  0.00  0.00    +0.381 N 
ATOM     23  H   UNL     1       1.262  -4.581  -1.079  0.00  0.00    -0.089 HD
ATOM     24  H   UNL     1       0.055  -3.565  -0.545  0.00  0.00    -0.089 HD
ATOM     25  H   UNL     1       1.182  -4.154   0.530  0.00  0.00    -0.089 HD
ENDBRANCH  21  22
ENDBRANCH   1  21
TORSDOF 5
