REMARK  Name = 9797919
REMARK  5 active torsions:
REMARK  status: ('A' for Active; 'I' for Inactive)
REMARK    1  A    between atoms: C_1  and  N_18
REMARK    2  A    between atoms: C_2  and  C_9
REMARK    3  A    between atoms: N_8  and  C_12
REMARK    4  A    between atoms: N_18  and  C_20
REMARK    5  A    between atoms: C_20  and  C_22
REMARK                            x       y       z     vdW  Elec       q    Type
REMARK                         _______ _______ _______ _____ _____    ______ ____
ROOT
ATOM      1  C   UNL     1       1.651   1.855   0.076  0.00  0.00    +0.049 C 
ATOM      2  C   UNL     1       0.414   2.406  -0.260  0.00  0.00    +0.067 C 
ATOM      3  C   UNL     1       2.701   2.686   0.468  0.00  0.00    +0.014 C 
ATOM      4  C   UNL     1       0.228   3.788  -0.204  0.00  0.00    +0.006 C 
ATOM      5  C   UNL     1       2.514   4.067   0.524  0.00  0.00    +0.001 C 
ATOM      6  C   UNL     1       1.277   4.618   0.188  0.00  0.00    +0.000 C 
ENDROOT
BRANCH   2   9
ATOM      7  O   UNL     1      -0.832   1.288  -1.875  0.00  0.00    -0.270 OA
ATOM      8  N   UNL     1      -1.540   1.117   0.355  0.00  0.00    -0.280 N 
ATOM      9  C   UNL     1      -0.703   1.566  -0.674  0.00  0.00    +0.251 C 
ATOM     10  H   UNL     1      -1.308   1.424   1.261  0.00  0.00    +0.155 HD
BRANCH   8  12
ATOM     11 CL   UNL     1      -6.277  -2.388  -0.039  0.00  0.00    -0.082 Cl
ATOM     12  C   UNL     1      -2.676   0.277   0.260  0.00  0.00    +0.051 C 
ATOM     13  C   UNL     1      -3.066  -0.197  -0.981  0.00  0.00    +0.016 C 
ATOM     14  C   UNL     1      -3.372  -0.052   1.411  0.00  0.00    +0.016 C 
ATOM     15  C   UNL     1      -4.185  -1.025  -1.074  0.00  0.00    +0.013 C 
ATOM     16  C   UNL     1      -4.491  -0.880   1.318  0.00  0.00    +0.013 C 
ATOM     17  C   UNL     1      -4.897  -1.366   0.075  0.00  0.00    +0.058 C 
ENDBRANCH   8  12
ENDBRANCH   2   9
BRANCH   1  18
ATOM     18  N   UNL     1       1.861   0.459   0.026  0.00  0.00    -0.329 N 
ATOM     19  H   UNL     1       1.114  -0.120  -0.252  0.00  0.00    +0.147 HD
BRANCH  18  20
ATOM     20  C   UNL     1       3.110  -0.149   0.361  0.00  0.00    +0.114 C 
BRANCH  20  22
ATOM     21  N   UNL     1       3.018  -4.402  -0.164  0.00  0.00    -0.242 NA
ATOM     22  C   UNL     1       3.077  -1.638   0.177  0.00  0.00    +0.000 C 
ATOM     23  C   UNL     1       3.431  -2.188  -1.044  0.00  0.00    +0.018 C 
ATOM     24  C   UNL     1       2.693  -2.453   1.230  0.00  0.00    +0.018 C 
ATOM     25  C   UNL     1       3.386  -3.568  -1.163  0.00  0.00    +0.099 C 
ATOM     26  C   UNL     1       2.680  -3.821   1.009  0.00  0.00    +0.099 C 
ENDBRANCH  20  22
ENDBRANCH  18  20
ENDBRANCH   1  18
TORSDOF 5
