REMARK  Name = 9549258
REMARK  5 active torsions:
REMARK  status: ('A' for Active; 'I' for Inactive)
REMARK    1  A    between atoms: N_2  and  C_22
REMARK    2  A    between atoms: C_3  and  N_7
REMARK    3  A    between atoms: N_7  and  S_9
REMARK    4  A    between atoms: S_9  and  C_14
REMARK    5  A    between atoms: C_22  and  C_27
REMARK                            x       y       z     vdW  Elec       q    Type
REMARK                         _______ _______ _______ _____ _____    ______ ____
ROOT
ATOM      1  O   UNL     1      -2.324   1.861  -0.665  0.00  0.00    -0.273 OA
ATOM      2  N   UNL     1      -1.876  -0.426  -0.989  0.00  0.00    -0.272 N 
ATOM      3  C   UNL     1      -0.053   0.995  -0.692  0.00  0.00    +0.153 C 
ATOM      4  C   UNL     1       0.372  -0.444  -0.419  0.00  0.00    +0.048 C 
ATOM      5  C   UNL     1      -0.707  -1.267  -1.096  0.00  0.00    +0.096 C 
ATOM      6  C   UNL     1      -1.558   0.913  -0.761  0.00  0.00    +0.242 C 
ENDROOT
BRANCH   3   7
ATOM      7  N   UNL     1       0.337   1.879   0.412  0.00  0.00    -0.171 NA
ATOM      8  H   UNL     1      -0.406   2.569   0.525  0.00  0.00    +0.149 HD
BRANCH   7   9
ATOM      9  S   UNL     1       1.814   2.740   0.275  0.00  0.00    +0.066 S 
ATOM     10  O   UNL     1       2.081   3.432   1.521  0.00  0.00    -0.152 OA
ATOM     11  O   UNL     1       1.840   3.439  -0.996  0.00  0.00    -0.152 OA
BRANCH   9  14
ATOM     12 CL   UNL     1       7.393  -3.150   1.224  0.00  0.00    -0.082 Cl
ATOM     13  S   UNL     1       3.411   0.644   1.526  0.00  0.00    -0.067 S 
ATOM     14  C   UNL     1       3.120   1.523   0.113  0.00  0.00    +0.151 C 
ATOM     15  C   UNL     1       3.913   1.181  -0.926  0.00  0.00    +0.027 C 
ATOM     16  C   UNL     1       4.828   0.132  -0.575  0.00  0.00    +0.008 C 
ATOM     17  C   UNL     1       4.660  -0.262   0.756  0.00  0.00    +0.032 C 
ATOM     18  C   UNL     1       5.820  -0.521  -1.346  0.00  0.00    +0.001 C 
ATOM     19  C   UNL     1       5.449  -1.279   1.328  0.00  0.00    +0.018 C 
ATOM     20  C   UNL     1       6.604  -1.530  -0.782  0.00  0.00    +0.011 C 
ATOM     21  C   UNL     1       6.419  -1.904   0.542  0.00  0.00    +0.058 C 
ENDBRANCH   9  14
ENDBRANCH   7   9
ENDBRANCH   3   7
BRANCH   2  22
ATOM     22  C   UNL     1      -3.206  -0.943  -1.228  0.00  0.00    +0.152 C 
ATOM     23  C   UNL     1      -3.188  -2.228  -2.022  0.00  0.00    +0.031 C 
BRANCH  22  27
ATOM     24  O   UNL     1      -7.658   0.173   0.876  0.00  0.00    -0.350 OA
ATOM     25  O   UNL     1      -3.021  -1.538   1.059  0.00  0.00    -0.273 OA
ATOM     26  N   UNL     1      -5.138  -0.952   0.306  0.00  0.00    -0.273 N 
ATOM     27  C   UNL     1      -3.772  -1.175   0.150  0.00  0.00    +0.244 C 
ATOM     28  C   UNL     1      -6.079  -0.644  -0.775  0.00  0.00    +0.126 C 
ATOM     29  C   UNL     1      -5.767  -1.149   1.612  0.00  0.00    +0.126 C 
ATOM     30  C   UNL     1      -7.009   0.489  -0.359  0.00  0.00    +0.164 C 
ATOM     31  C   UNL     1      -6.705   0.008   1.929  0.00  0.00    +0.164 C 
ENDBRANCH  22  27
ENDBRANCH   2  22
TORSDOF 5
