REMARK  Name = 9820034
REMARK  8 active torsions:
REMARK  status: ('A' for Active; 'I' for Inactive)
REMARK    1  A    between atoms: C_1  and  C_10
REMARK    2  A    between atoms: C_2  and  O_16
REMARK    3  A    between atoms: N_9  and  C_11
REMARK    4  A    between atoms: N_9  and  C_14
REMARK    5  A    between atoms: O_16  and  C_17
REMARK    6  A    between atoms: C_17  and  C_18
REMARK    7  A    between atoms: C_18  and  N_20
REMARK    8  A    between atoms: N_20  and  C_23
REMARK                            x       y       z     vdW  Elec       q    Type
REMARK                         _______ _______ _______ _____ _____    ______ ____
ROOT
ATOM      1  C   UNL     1       2.162   0.967   0.358  0.00  0.00    +0.056 C 
ATOM      2  C   UNL     1       0.067   1.741  -0.542  0.00  0.00    +0.138 C 
ATOM      3  C   UNL     1       1.125   0.841  -0.567  0.00  0.00    +0.041 C 
ATOM      4  C   UNL     1       2.133   1.992   1.302  0.00  0.00    +0.000 C 
ATOM      5  C   UNL     1       1.067   2.892   1.322  0.00  0.00    -0.019 C 
ATOM      6  C   UNL     1       0.031   2.766   0.397  0.00  0.00    +0.033 C 
ATOM      7  C   UNL     1       1.035   3.989   2.332  0.00  0.00    +0.031 C 
ENDROOT
BRANCH   1  10
ATOM      8  O   UNL     1       4.375   0.455   0.707  0.00  0.00    -0.270 OA
ATOM      9  N   UNL     1       3.046  -1.287  -0.108  0.00  0.00    -0.278 N 
ATOM     10  C   UNL     1       3.273   0.028   0.337  0.00  0.00    +0.249 C 
BRANCH   9  11
ATOM     11  C   UNL     1       4.081  -2.072  -0.776  0.00  0.00    +0.076 C 
ATOM     12  C   UNL     1       4.506  -1.400  -2.076  0.00  0.00    +0.022 C 
ATOM     13  C   UNL     1       5.270  -2.280   0.153  0.00  0.00    +0.022 C 
ENDBRANCH   9  11
BRANCH   9  14
ATOM     14  C   UNL     1       1.763  -1.954   0.068  0.00  0.00    +0.094 C 
ATOM     15  C   UNL     1       1.704  -2.704   1.383  0.00  0.00    +0.023 C 
ENDBRANCH   9  14
ENDBRANCH   1  10
BRANCH   2  16
ATOM     16  O   UNL     1      -0.952   1.617  -1.450  0.00  0.00    -0.474 OA
BRANCH  16  17
ATOM     17  C   UNL     1      -1.242   0.302  -1.911  0.00  0.00    +0.225 C 
BRANCH  17  18
ATOM     18  C   UNL     1      -2.724   0.206  -2.265  0.00  0.00    +0.113 C 
ATOM     19  C   UNL     1      -3.087   1.174  -3.384  0.00  0.00    +0.025 C 
BRANCH  18  20
ATOM     20  N   UNL     1      -3.525   0.519  -1.099  0.00  0.00    -0.331 N 
ATOM     21  H   UNL     1      -3.917   1.420  -1.031  0.00  0.00    +0.147 HD
BRANCH  20  23
ATOM     22  N   UNL     1      -4.266  -2.213   2.010  0.00  0.00    -0.242 NA
ATOM     23  C   UNL     1      -3.769  -0.379  -0.077  0.00  0.00    +0.048 C 
ATOM     24  C   UNL     1      -4.552  -0.021   1.032  0.00  0.00    +0.035 C 
ATOM     25  C   UNL     1      -3.241  -1.680  -0.113  0.00  0.00    +0.035 C 
ATOM     26  C   UNL     1      -4.767  -0.957   2.030  0.00  0.00    +0.100 C 
ATOM     27  C   UNL     1      -3.514  -2.542   0.936  0.00  0.00    +0.100 C 
ENDBRANCH  20  23
ENDBRANCH  18  20
ENDBRANCH  17  18
ENDBRANCH  16  17
ENDBRANCH   2  16
TORSDOF 8
