REMARK  Name = 10224181
REMARK  7 active torsions:
REMARK  status: ('A' for Active; 'I' for Inactive)
REMARK    1  A    between atoms: N_3  and  C_23
REMARK    2  A    between atoms: C_12  and  C_14
REMARK    3  A    between atoms: C_15  and  C_16
REMARK    4  A    between atoms: C_16  and  C_17
REMARK    5  A    between atoms: C_23  and  C_24
REMARK    6  A    between atoms: C_29  and  C_31
REMARK    7  A    between atoms: C_31  and  O_32
REMARK                            x       y       z     vdW  Elec       q    Type
REMARK                         _______ _______ _______ _____ _____    ______ ____
ROOT
ATOM      1  O   UNL     1      -0.641  -0.163  -1.952  0.00  0.00    -0.267 OA
ATOM      2  O   UNL     1      -3.774  -2.974   0.019  0.00  0.00    -0.246 OA
ATOM      3  N   UNL     1      -2.236  -1.561  -0.979  0.00  0.00    -0.244 N 
ATOM      4  N   UNL     1      -1.552  -3.174   0.643  0.00  0.00    -0.279 N 
ATOM      5  C   UNL     1      -0.200  -2.739   0.511  0.00  0.00    +0.069 A 
ATOM      6  C   UNL     1       0.117  -1.709  -0.376  0.00  0.00    +0.073 A 
ATOM      7  C   UNL     1      -0.940  -1.068  -1.176  0.00  0.00    +0.266 A 
ATOM      8  C   UNL     1      -2.601  -2.600  -0.093  0.00  0.00    +0.334 A 
ATOM      9  C   UNL     1       1.442  -1.266  -0.520  0.00  0.00    +0.014 C 
ATOM     10  C   UNL     1       0.845  -3.319   1.253  0.00  0.00    +0.018 C 
ATOM     11  C   UNL     1      -1.856  -4.256   1.579  0.00  0.00    +0.135 C 
ATOM     12  C   UNL     1       2.462  -1.853   0.223  0.00  0.00    +0.042 C 
ATOM     13  C   UNL     1       2.163  -2.879   1.110  0.00  0.00    +0.010 C 
ENDROOT
BRANCH  12  14
ATOM     14  C   UNL     1       3.809  -1.401   0.075  0.00  0.00    -0.064 C 
ATOM     15  C   UNL     1       4.944  -1.016  -0.049  0.00  0.00    -0.082 C 
BRANCH  15  16
ATOM     16  C   UNL     1       6.325  -0.544  -0.200  0.00  0.00    +0.103 C 
BRANCH  16  17
ATOM     17  C   UNL     1       6.429   0.952  -0.047  0.00  0.00    -0.009 C 
ATOM     18  C   UNL     1       6.300   1.763  -1.165  0.00  0.00    -0.003 C 
ATOM     19  C   UNL     1       6.651   1.495   1.210  0.00  0.00    -0.003 C 
ATOM     20  C   UNL     1       6.395   3.147  -1.023  0.00  0.00    -0.000 C 
ATOM     21  C   UNL     1       6.747   2.879   1.352  0.00  0.00    -0.000 C 
ATOM     22  C   UNL     1       6.619   3.705   0.236  0.00  0.00    -0.000 C 
ENDBRANCH  16  17
ENDBRANCH  15  16
ENDBRANCH  12  14
BRANCH   3  23
ATOM     23  C   UNL     1      -3.307  -0.945  -1.758  0.00  0.00    +0.140 C 
BRANCH  23  24
ATOM     24  C   UNL     1      -3.919   0.228  -1.041  0.00  0.00    +0.001 C 
ATOM     25  C   UNL     1      -5.000   0.023  -0.194  0.00  0.00    -0.002 C 
ATOM     26  C   UNL     1      -3.394   1.498  -1.235  0.00  0.00    -0.002 C 
ATOM     27  C   UNL     1      -5.567   1.110   0.471  0.00  0.00    +0.006 C 
ATOM     28  C   UNL     1      -3.961   2.585  -0.570  0.00  0.00    +0.006 C 
ATOM     29  C   UNL     1      -5.048   2.391   0.283  0.00  0.00    +0.075 C 
BRANCH  29  31
ATOM     30  O   UNL     1      -6.600   3.468   1.751  0.00  0.00    -0.245 OA
ATOM     31  C   UNL     1      -5.639   3.525   0.977  0.00  0.00    +0.338 C 
BRANCH  31  32
ATOM     32  O   UNL     1      -5.014   4.698   0.684  0.00  0.00    -0.477 OA
ATOM     33  H   UNL     1      -4.288   4.706   0.092  0.00  0.00    +0.295 HD
ENDBRANCH  31  32
ENDBRANCH  29  31
ENDBRANCH  23  24
ENDBRANCH   3  23
TORSDOF 7
