REMARK  Name = 10286159
REMARK  3 active torsions:
REMARK  status: ('A' for Active; 'I' for Inactive)
REMARK    1  A    between atoms: C_7  and  C_14
REMARK    2  A    between atoms: C_12  and  O_22
REMARK    3  A    between atoms: C_19  and  O_20
REMARK                            x       y       z     vdW  Elec       q    Type
REMARK                         _______ _______ _______ _____ _____    ______ ____
ROOT
ATOM      1  O   UNL     1       0.158  -1.020   0.190  0.00  0.00    -0.475 OA
ATOM      2  C   UNL     1      -0.091   1.346  -0.423  0.00  0.00    +0.049 C 
ATOM      3  C   UNL     1       1.393   1.464  -0.802  0.00  0.00    +0.029 C 
ATOM      4  C   UNL     1      -0.170   1.873   1.023  0.00  0.00    +0.004 C 
ATOM      5  C   UNL     1       1.797   2.763  -0.099  0.00  0.00    +0.005 C 
ATOM      6  C   UNL     1       1.088   2.711   1.247  0.00  0.00    +0.000 C 
ATOM      7  C   UNL     1      -0.576  -0.094  -0.624  0.00  0.00    +0.188 C 
ATOM      8  C   UNL     1       2.174   0.241  -0.379  0.00  0.00    +0.015 C 
ATOM      9  C   UNL     1       1.521  -0.912   0.083  0.00  0.00    +0.135 C 
ATOM     10  C   UNL     1       3.574   0.225  -0.473  0.00  0.00    +0.035 C 
ATOM     11  C   UNL     1       2.254  -2.026   0.500  0.00  0.00    +0.040 C 
ATOM     12  C   UNL     1       4.304  -0.895  -0.072  0.00  0.00    +0.134 C 
ATOM     13  C   UNL     1       3.645  -2.017   0.421  0.00  0.00    +0.040 C 
ENDROOT
BRANCH   7  14
ATOM     14  C   UNL     1      -2.066  -0.233  -0.366  0.00  0.00    +0.017 C 
ATOM     15  C   UNL     1      -2.973  -0.038  -1.406  0.00  0.00    +0.002 C 
ATOM     16  C   UNL     1      -2.523  -0.554   0.911  0.00  0.00    +0.002 C 
ATOM     17  C   UNL     1      -4.342  -0.165  -1.168  0.00  0.00    +0.036 C 
ATOM     18  C   UNL     1      -3.892  -0.681   1.149  0.00  0.00    +0.036 C 
ATOM     19  C   UNL     1      -4.801  -0.487   0.109  0.00  0.00    +0.134 C 
BRANCH  19  20
ATOM     20  O   UNL     1      -6.137  -0.612   0.340  0.00  0.00    -0.506 OA
ATOM     21  H   UNL     1      -6.747  -0.481  -0.359  0.00  0.00    +0.292 HD
ENDBRANCH  19  20
ENDBRANCH   7  14
BRANCH  12  22
ATOM     22  O   UNL     1       5.663  -0.888  -0.162  0.00  0.00    -0.506 OA
ATOM     23  H   UNL     1       6.106  -0.133  -0.494  0.00  0.00    +0.292 HD
ENDBRANCH  12  22
TORSDOF 3
