REMARK  Name = 11574606
REMARK  6 active torsions:
REMARK  status: ('A' for Active; 'I' for Inactive)
REMARK    1  A    between atoms: C_5  and  O_24
REMARK    2  A    between atoms: C_7  and  N_10
REMARK    3  A    between atoms: N_10  and  C_12
REMARK    4  A    between atoms: C_15  and  S_18
REMARK    5  A    between atoms: S_18  and  N_21
REMARK    6  A    between atoms: O_24  and  C_25
REMARK                            x       y       z     vdW  Elec       q    Type
REMARK                         _______ _______ _______ _____ _____    ______ ____
ROOT
ATOM      1  N   UNL     1      -3.035  -1.039  -0.211  0.00  0.00    -0.299 NA
ATOM      2  N   UNL     1      -1.165  -2.537  -0.002  0.00  0.00    -0.106 N 
ATOM      3  N   UNL     1      -0.917  -3.867  -0.130  0.00  0.00    -0.139 NA
ATOM      4  N   UNL     1      -3.112  -3.439  -0.561  0.00  0.00    -0.145 NA
ATOM      5  C   UNL     1      -2.195  -0.106   0.105  0.00  0.00    +0.291 C 
ATOM      6  C   UNL     1      -0.754  -0.250   0.407  0.00  0.00    +0.105 C 
ATOM      7  C   UNL     1      -0.278  -1.505   0.339  0.00  0.00    +0.142 C 
ATOM      8  C   UNL     1      -2.518  -2.299  -0.271  0.00  0.00    +0.178 C 
ATOM      9  C   UNL     1      -2.110  -4.349  -0.464  0.00  0.00    +0.230 C 
ENDROOT
BRANCH   7  10
ATOM     10  N   UNL     1       1.023  -1.844   0.582  0.00  0.00    -0.299 N 
ATOM     11  H   UNL     1       1.170  -2.746   0.948  0.00  0.00    +0.153 HD
BRANCH  10  12
ATOM     12  C   UNL     1       2.173  -1.074   0.379  0.00  0.00    +0.049 C 
ATOM     13  C   UNL     1       3.298  -1.250   1.194  0.00  0.00    +0.016 C 
ATOM     14  C   UNL     1       2.214  -0.117  -0.644  0.00  0.00    +0.016 C 
ATOM     15  C   UNL     1       4.476   0.469  -0.029  0.00  0.00    +0.122 C 
ATOM     16  C   UNL     1       4.445  -0.482   0.991  0.00  0.00    +0.021 C 
ATOM     17  C   UNL     1       3.360   0.651  -0.846  0.00  0.00    +0.021 C 
BRANCH  15  18
ATOM     18  S   UNL     1       5.910   1.431  -0.283  0.00  0.00    +0.057 S 
ATOM     19  O   UNL     1       7.053   0.701   0.250  0.00  0.00    -0.153 OA
ATOM     20  O   UNL     1       5.924   1.886  -1.666  0.00  0.00    -0.153 OA
BRANCH  18  21
ATOM     21  N   UNL     1       5.589   2.768   0.731  0.00  0.00    -0.203 NA
ATOM     22  H   UNL     1       6.366   3.428   0.680  0.00  0.00    +0.144 HD
ATOM     23  H   UNL     1       5.479   2.447   1.693  0.00  0.00    +0.144 HD
ENDBRANCH  18  21
ENDBRANCH  15  18
ENDBRANCH  10  12
ENDBRANCH   7  10
BRANCH   5  24
ATOM     24  O   UNL     1      -2.612   1.180   0.191  0.00  0.00    -0.455 OA
BRANCH  24  25
ATOM     25  C   UNL     1      -3.695   1.444  -0.699  0.00  0.00    +0.169 C 
ATOM     26  C   UNL     1      -5.023   1.146  -0.001  0.00  0.00    +0.044 C 
ATOM     27  C   UNL     1      -3.612   2.901  -1.154  0.00  0.00    +0.044 C 
ATOM     28  C   UNL     1      -5.306   2.126   1.139  0.00  0.00    +0.004 C 
ATOM     29  C   UNL     1      -3.900   3.878  -0.014  0.00  0.00    +0.004 C 
ATOM     30  C   UNL     1      -5.232   3.575   0.665  0.00  0.00    +0.000 C 
ENDBRANCH  24  25
ENDBRANCH   5  24
TORSDOF 6
