REMARK  Name = 440114
REMARK  0 active torsions:
REMARK  status: ('A' for Active; 'I' for Inactive)
REMARK                            x       y       z     vdW  Elec       q    Type
REMARK                         _______ _______ _______ _____ _____    ______ ____
ROOT
ATOM      1  O   UNL     1      -4.624   1.199   1.097  0.00  0.00    -0.296 OA
ATOM      2  O   UNL     1       4.881   0.164   1.779  0.00  0.00    -0.296 OA
ATOM      3  C   UNL     1       0.377   0.422  -0.205  0.00  0.00    +0.000 C 
ATOM      4  C   UNL     1      -0.515  -0.834  -0.480  0.00  0.00    +0.000 C 
ATOM      5  C   UNL     1       1.755   0.338  -0.960  0.00  0.00    +0.001 C 
ATOM      6  C   UNL     1      -1.810  -0.685   0.323  0.00  0.00    +0.007 C 
ATOM      7  C   UNL     1      -2.605   0.566  -0.104  0.00  0.00    +0.052 C 
ATOM      8  C   UNL     1       2.475  -0.999  -0.577  0.00  0.00    +0.007 C 
ATOM      9  C   UNL     1      -0.398   1.750  -0.434  0.00  0.00    +0.000 C 
ATOM     10  C   UNL     1       0.224  -2.131  -0.129  0.00  0.00    +0.000 C 
ATOM     11  C   UNL     1      -1.774   1.793   0.256  0.00  0.00    +0.007 C 
ATOM     12  C   UNL     1       1.583  -2.228  -0.819  0.00  0.00    +0.000 C 
ATOM     13  C   UNL     1      -2.844  -1.805   0.316  0.00  0.00    +0.008 C 
ATOM     14  C   UNL     1       2.705   1.521  -0.612  0.00  0.00    +0.008 C 
ATOM     15  C   UNL     1      -3.854   0.324   0.725  0.00  0.00    +0.150 C 
ATOM     16  C   UNL     1       1.554   0.391  -2.497  0.00  0.00    +0.000 C 
ATOM     17  C   UNL     1       3.001  -1.011   0.871  0.00  0.00    +0.064 C 
ATOM     18  C   UNL     1      -4.051  -1.155   1.009  0.00  0.00    +0.064 C 
ATOM     19  C   UNL     1      -3.057   0.609  -1.575  0.00  0.00    +0.007 C 
ATOM     20  C   UNL     1       3.170   1.546   0.835  0.00  0.00    +0.065 C 
ATOM     21  C   UNL     1       3.807   0.226   1.182  0.00  0.00    +0.151 C 
ENDROOT
TORSDOF 0
