REMARK  Name = 9543498
REMARK  3 active torsions:
REMARK  status: ('A' for Active; 'I' for Inactive)
REMARK    1  A    between atoms: C_1  and  C_7
REMARK    2  A    between atoms: C_2  and  S_13
REMARK    3  A    between atoms: S_13  and  O_15
REMARK                            x       y       z     vdW  Elec       q    Type
REMARK                         _______ _______ _______ _____ _____    ______ ____
ROOT
ATOM      1  C   UNL     1       0.377   0.711  -0.009  0.00  0.00    +0.017 C 
ATOM      2  C   UNL     1       1.339  -0.299  -0.088  0.00  0.00    +0.100 C 
ATOM      3  C   UNL     1       0.779   2.045   0.085  0.00  0.00    +0.001 C 
ATOM      4  C   UNL     1       2.696   0.024  -0.073  0.00  0.00    +0.018 C 
ATOM      5  C   UNL     1       2.136   2.368   0.100  0.00  0.00    +0.000 C 
ATOM      6  C   UNL     1       3.094   1.358   0.021  0.00  0.00    +0.001 C 
ENDROOT
BRANCH   1   7
ATOM      7  C   UNL     1      -1.041   0.423  -0.021  0.00  0.00    +0.001 C 
ATOM      8  C   UNL     1      -1.733   0.371  -1.231  0.00  0.00    +0.000 C 
ATOM      9  C   UNL     1      -1.716   0.195   1.179  0.00  0.00    +0.000 C 
ATOM     10  C   UNL     1      -3.099   0.091  -1.242  0.00  0.00    +0.000 C 
ATOM     11  C   UNL     1      -3.082  -0.085   1.168  0.00  0.00    +0.000 C 
ATOM     12  C   UNL     1      -3.774  -0.137  -0.042  0.00  0.00    +0.000 C 
ENDBRANCH   1   7
BRANCH   2  13
ATOM     13  S   UNL     1       0.885  -2.039  -0.211  0.00  0.00    -0.031 S 
ATOM     14  O   UNL     1       1.977  -2.715  -0.986  0.00  0.00    -0.076 OA
BRANCH  13  15
ATOM     15  O   UNL     1       1.163  -2.312   1.351  0.00  0.00    -0.274 OA
ATOM     16  H   UNL     1       0.980  -3.243   1.554  0.00  0.00    +0.242 HD
ENDBRANCH  13  15
ENDBRANCH   2  13
TORSDOF 3
