REMARK  Name = 23629645
REMARK  6 active torsions:
REMARK  status: ('A' for Active; 'I' for Inactive)
REMARK    1  A    between atoms: N_1  and  C_6
REMARK    2  A    between atoms: N_1  and  C_21
REMARK    3  A    between atoms: C_3  and  C_16
REMARK    4  A    between atoms: C_11  and  C_18
REMARK    5  A    between atoms: C_18  and  O_19
REMARK    6  A    between atoms: C_21  and  C_28
REMARK                            x       y       z     vdW  Elec       q    Type
REMARK                         _______ _______ _______ _____ _____    ______ ____
ROOT
ATOM      1  N   UNL     1      -2.531  -2.925  -0.737  0.00  0.00    -0.300 N 
ATOM      2  C   UNL     1      -2.973  -3.326  -2.057  0.00  0.00    +0.113 C 
ENDROOT
BRANCH   1   6
ATOM      3  C   UNL     1       1.560  -2.517   0.101  0.00  0.00    +0.054 C 
ATOM      4  C   UNL     1       0.620  -2.265   1.097  0.00  0.00    +0.006 C 
ATOM      5  C   UNL     1       1.149  -2.903  -1.172  0.00  0.00    +0.006 C 
ATOM      6  C   UNL     1      -1.155  -2.788  -0.455  0.00  0.00    +0.048 C 
ATOM      7  C   UNL     1      -0.740  -2.401   0.819  0.00  0.00    +0.015 C 
ATOM      8  C   UNL     1      -0.211  -3.039  -1.451  0.00  0.00    +0.015 C 
BRANCH   3  16
ATOM      9  O   UNL     1       3.562  -3.376   0.819  0.00  0.00    -0.270 OA
ATOM     10  N   UNL     1       3.586  -1.127   0.182  0.00  0.00    -0.276 N 
ATOM     11  C   UNL     1       4.531   1.473   1.055  0.00  0.00    +0.102 C 
ATOM     12  C   UNL     1       5.243   0.173   1.446  0.00  0.00    +0.033 C 
ATOM     13  C   UNL     1       3.071   1.236   0.650  0.00  0.00    +0.033 C 
ATOM     14  C   UNL     1       5.013  -0.952   0.437  0.00  0.00    +0.094 C 
ATOM     15  C   UNL     1       2.907   0.071  -0.325  0.00  0.00    +0.094 C 
ATOM     16  C   UNL     1       2.992  -2.373   0.394  0.00  0.00    +0.249 C 
BRANCH  11  18
ATOM     17  O   UNL     1       6.298   1.722  -0.564  0.00  0.00    -0.250 OA
ATOM     18  C   UNL     1       5.289   2.170  -0.037  0.00  0.00    +0.317 C 
BRANCH  18  19
ATOM     19  O   UNL     1       4.679   3.353  -0.332  0.00  0.00    -0.444 OA
ATOM     20  C   UNL     1       5.302   4.126  -1.363  0.00  0.00    +0.256 C 
ENDBRANCH  18  19
ENDBRANCH  11  18
ENDBRANCH   3  16
ENDBRANCH   1   6
BRANCH   1  21
ATOM     21  C   UNL     1      -3.519  -2.679   0.295  0.00  0.00    +0.148 C 
BRANCH  21  28
ATOM     22  N   UNL     1      -3.142  -0.368  -0.334  0.00  0.00    -0.392 NA
ATOM     23  N   UNL     1      -4.976   0.525   1.537  0.00  0.00    -0.200 NA
ATOM     24  N   UNL     1      -4.580   2.716   0.900  0.00  0.00    -0.271 NA
ATOM     25  N   UNL     1      -3.005   3.231  -0.833  0.00  0.00    -0.310 NA
ATOM     26  N   UNL     1      -1.838   1.481  -1.909  0.00  0.00    -0.329 N 
ATOM     27  N   UNL     1      -4.182   4.938   0.256  0.00  0.00    -0.283 N 
ATOM     28  C   UNL     1      -3.807  -1.210   0.458  0.00  0.00    +0.133 C 
ATOM     29  C   UNL     1      -4.709  -0.786   1.381  0.00  0.00    +0.193 C 
ATOM     30  C   UNL     1      -3.410   0.943  -0.177  0.00  0.00    +0.248 C 
ATOM     31  C   UNL     1      -4.332   1.408   0.763  0.00  0.00    +0.131 C 
ATOM     32  C   UNL     1      -2.784   1.909  -0.941  0.00  0.00    +0.231 C 
ATOM     33  C   UNL     1      -3.907   3.562   0.098  0.00  0.00    +0.207 C 
ATOM     34  H   UNL     1      -1.374   2.144  -2.470  0.00  0.00    +0.145 HD
ATOM     35  H   UNL     1      -1.647   0.522  -2.020  0.00  0.00    +0.145 HD
ATOM     36  H   UNL     1      -4.838   5.234   0.928  0.00  0.00    +0.156 HD
ATOM     37  H   UNL     1      -3.717   5.600  -0.304  0.00  0.00    +0.156 HD
ENDBRANCH  21  28
ENDBRANCH   1  21
TORSDOF 6
