REMARK  Name = 10708341
REMARK  7 active torsions:
REMARK  status: ('A' for Active; 'I' for Inactive)
REMARK    1  A    between atoms: C_3  and  C_14
REMARK    2  A    between atoms: C_14  and  C_15
REMARK    3  A    between atoms: C_15  and  C_16
REMARK    4  A    between atoms: C_16  and  C_17
REMARK    5  A    between atoms: C_17  and  C_18
REMARK    6  A    between atoms: C_18  and  C_20
REMARK    7  A    between atoms: C_20  and  O_21
REMARK                            x       y       z     vdW  Elec       q    Type
REMARK                         _______ _______ _______ _____ _____    ______ ____
ROOT
ATOM      1  O   UNL     1       0.951  -1.881   1.062  0.00  0.00    -0.287 OA
ATOM      2  O   UNL     1       3.285   2.603  -0.653  0.00  0.00    -0.287 OA
ATOM      3  C   UNL     1       0.766   0.467   0.738  0.00  0.00    +0.016 C 
ATOM      4  C   UNL     1       1.347   1.595   0.286  0.00  0.00    +0.016 C 
ATOM      5  C   UNL     1       1.482  -0.844   0.676  0.00  0.00    +0.192 C 
ATOM      6  C   UNL     1       2.848  -0.875   0.131  0.00  0.00    +0.042 C 
ATOM      7  C   UNL     1       3.455   0.292  -0.321  0.00  0.00    +0.042 C 
ATOM      8  C   UNL     1       2.739   1.576  -0.262  0.00  0.00    +0.192 C 
ATOM      9  C   UNL     1       0.694   2.951   0.260  0.00  0.00    +0.034 C 
ATOM     10  C   UNL     1       3.541  -2.092   0.068  0.00  0.00    +0.003 C 
ATOM     11  C   UNL     1       4.757   0.248  -0.837  0.00  0.00    +0.003 C 
ATOM     12  C   UNL     1       4.838  -2.132  -0.446  0.00  0.00    +0.000 C 
ATOM     13  C   UNL     1       5.445  -0.964  -0.898  0.00  0.00    +0.000 C 
ENDROOT
BRANCH   3  14
ATOM     14  C   UNL     1      -0.607   0.391   1.351  0.00  0.00    +0.029 C 
BRANCH  14  15
ATOM     15  C   UNL     1      -1.666   0.075   0.300  0.00  0.00    +0.005 C 
BRANCH  15  16
ATOM     16  C   UNL     1      -3.086   0.056   0.874  0.00  0.00    +0.001 C 
BRANCH  16  17
ATOM     17  C   UNL     1      -4.167  -0.174  -0.188  0.00  0.00    +0.012 C 
BRANCH  17  18
ATOM     18  C   UNL     1      -5.580  -0.116   0.396  0.00  0.00    +0.109 C 
BRANCH  18  20
ATOM     19  O   UNL     1      -6.477  -0.563  -1.824  0.00  0.00    -0.250 OA
ATOM     20  C   UNL     1      -6.662  -0.348  -0.634  0.00  0.00    +0.314 C 
BRANCH  20  21
ATOM     21  O   UNL     1      -7.901  -0.264  -0.081  0.00  0.00    -0.480 OA
ATOM     22  H   UNL     1      -7.994  -0.097   0.836  0.00  0.00    +0.295 HD
ENDBRANCH  20  21
ENDBRANCH  18  20
ENDBRANCH  17  18
ENDBRANCH  16  17
ENDBRANCH  15  16
ENDBRANCH  14  15
ENDBRANCH   3  14
TORSDOF 7
