REMARK  Name = 24856354
REMARK  8 active torsions:
REMARK  status: ('A' for Active; 'I' for Inactive)
REMARK    1  A    between atoms: N_2  and  C_15
REMARK    2  A    between atoms: C_3  and  C_7
REMARK    3  A    between atoms: C_8  and  C_12
REMARK    4  A    between atoms: C_15  and  C_16
REMARK    5  A    between atoms: C_16  and  C_17
REMARK    6  A    between atoms: C_17  and  C_18
REMARK    7  A    between atoms: C_18  and  N_19
REMARK    8  A    between atoms: N_19  and  C_22
REMARK                            x       y       z     vdW  Elec       q    Type
REMARK                         _______ _______ _______ _____ _____    ______ ____
ROOT
ATOM      1  O   UNL     1       0.634  -3.093  -0.476  0.00  0.00    -0.268 OA
ATOM      2  N   UNL     1       0.558  -1.562   1.266  0.00  0.00    -0.299 N 
ATOM      3  C   UNL     1       0.075  -2.171   0.113  0.00  0.00    +0.272 C 
ATOM      4  H   UNL     1       0.037  -0.829   1.666  0.00  0.00    +0.150 HD
ENDROOT
BRANCH   3   7
ATOM      5  S   UNL     1      -3.250  -1.221  -1.862  0.00  0.00    -0.073 S 
ATOM      6  N   UNL     1      -1.830  -0.575   0.200  0.00  0.00    -0.393 NA
ATOM      7  C   UNL     1      -1.196  -1.627  -0.432  0.00  0.00    +0.174 C 
ATOM      8  C   UNL     1      -2.924  -0.277  -0.466  0.00  0.00    +0.171 C 
ATOM      9  C   UNL     1      -1.814  -2.111  -1.566  0.00  0.00    +0.128 C 
BRANCH   8  12
ATOM     10  S   UNL     1      -4.829   2.741   1.271  0.00  0.00    -0.108 S 
ATOM     11  N   UNL     1      -4.974   1.123  -0.740  0.00  0.00    -0.259 NA
ATOM     12  C   UNL     1      -3.826   0.814  -0.036  0.00  0.00    +0.101 C 
ATOM     13  C   UNL     1      -3.580   1.581   1.082  0.00  0.00    +0.108 C 
ATOM     14  C   UNL     1      -5.582   2.123  -0.142  0.00  0.00    +0.183 C 
ENDBRANCH   8  12
ENDBRANCH   3   7
BRANCH   2  15
ATOM     15  C   UNL     1       1.786  -1.960   1.897  0.00  0.00    +0.090 C 
BRANCH  15  16
ATOM     16  C   UNL     1       2.990  -1.189   1.365  0.00  0.00    +0.023 C 
BRANCH  16  17
ATOM     17  C   UNL     1       2.873   0.321   1.604  0.00  0.00    +0.028 C 
BRANCH  17  18
ATOM     18  C   UNL     1       4.073   1.090   1.062  0.00  0.00    +0.129 C 
BRANCH  18  19
ATOM     19  N   UNL     1       4.184   0.884  -0.384  0.00  0.00    -0.240 NA
BRANCH  19  22
ATOM     20  N   UNL     1       6.129   2.292  -0.429  0.00  0.00    -0.370 N 
ATOM     21  N   UNL     1       5.338   1.337  -2.341  0.00  0.00    -0.370 N 
ATOM     22  C   UNL     1       5.166   1.480  -0.985  0.00  0.00    +0.189 C 
ATOM     23  H   UNL     1       6.119   2.477   0.538  0.00  0.00    +0.159 HD
ATOM     24  H   UNL     1       6.828   2.688  -0.998  0.00  0.00    +0.159 HD
ATOM     25  H   UNL     1       4.715   0.780  -2.861  0.00  0.00    +0.159 HD
ATOM     26  H   UNL     1       6.086   1.792  -2.793  0.00  0.00    +0.159 HD
ENDBRANCH  19  22
ENDBRANCH  18  19
ENDBRANCH  17  18
ENDBRANCH  16  17
ENDBRANCH  15  16
ENDBRANCH   2  15
TORSDOF 8
