REMARK  Name = 6914573
REMARK  5 active torsions:
REMARK  status: ('A' for Active; 'I' for Inactive)
REMARK    1  A    between atoms: N_1  and  N_4
REMARK    2  A    between atoms: N_1  and  S_17
REMARK    3  A    between atoms: C_5  and  C_11
REMARK    4  A    between atoms: S_17  and  C_20
REMARK    5  A    between atoms: C_21  and  C_29
REMARK                            x       y       z     vdW  Elec       q    Type
REMARK                         _______ _______ _______ _____ _____    ______ ____
ROOT
ATOM      1  N   UNL     1      -1.770   1.522   1.179  0.00  0.00    -0.108 NA
ATOM      2  H   UNL     1      -1.777   2.304   1.833  0.00  0.00    +0.172 HD
ENDROOT
BRANCH   1   4
ATOM      3  O   UNL     1      -0.062   2.510  -0.739  0.00  0.00    -0.265 OA
ATOM      4  N   UNL     1      -0.395   1.086   1.028  0.00  0.00    -0.225 N 
ATOM      5  C   UNL     1       0.423   1.636   0.023  0.00  0.00    +0.295 C 
ATOM      6  H   UNL     1      -0.031   0.401   1.634  0.00  0.00    +0.171 HD
BRANCH   5  11
ATOM      7 CL   UNL     1       7.646  -0.684  -0.867  0.00  0.00    -0.082 Cl
ATOM      8  O   UNL     1       2.142   0.186   0.811  0.00  0.00    -0.449 OA
ATOM      9  C   UNL     1       3.887   0.652  -0.546  0.00  0.00    +0.039 C 
ATOM     10  C   UNL     1       3.439  -0.116   0.524  0.00  0.00    +0.146 C 
ATOM     11  C   UNL     1       1.756   1.145  -0.070  0.00  0.00    +0.200 C 
ATOM     12  C   UNL     1       2.786   1.467  -0.923  0.00  0.00    +0.045 C 
ATOM     13  C   UNL     1       5.209   0.480  -0.990  0.00  0.00    +0.015 C 
ATOM     14  C   UNL     1       4.222  -1.055   1.193  0.00  0.00    +0.038 C 
ATOM     15  C   UNL     1       6.021  -0.458  -0.337  0.00  0.00    +0.058 C 
ATOM     16  C   UNL     1       5.534  -1.210   0.735  0.00  0.00    +0.015 C 
ENDBRANCH   5  11
ENDBRANCH   1   4
BRANCH   1  17
ATOM     17  S   UNL     1      -2.877   0.357   1.750  0.00  0.00    +0.075 S 
ATOM     18  O   UNL     1      -2.400  -0.175   3.012  0.00  0.00    -0.152 OA
ATOM     19  O   UNL     1      -4.222   0.889   1.642  0.00  0.00    -0.152 OA
BRANCH  17  20
ATOM     20  C   UNL     1      -2.705  -0.929   0.547  0.00  0.00    +0.127 C 
ATOM     21  C   UNL     1      -3.167  -0.749  -0.746  0.00  0.00    +0.090 C 
ATOM     22  C   UNL     1      -2.097  -2.111   0.938  0.00  0.00    +0.020 C 
ATOM     23  C   UNL     1      -3.018  -1.779  -1.675  0.00  0.00    +0.005 C 
ATOM     24  C   UNL     1      -1.947  -3.141   0.009  0.00  0.00    +0.001 C 
ATOM     25  C   UNL     1      -2.407  -2.975  -1.297  0.00  0.00    +0.000 C 
BRANCH  21  29
ATOM     26  F   UNL     1      -4.212   0.510  -2.492  0.00  0.00    -0.166 F 
ATOM     27  F   UNL     1      -4.954   0.818  -0.477  0.00  0.00    -0.166 F 
ATOM     28  F   UNL     1      -3.008   1.604  -1.049  0.00  0.00    -0.166 F 
ATOM     29  C   UNL     1      -3.824   0.519  -1.183  0.00  0.00    +0.420 C 
ENDBRANCH  21  29
ENDBRANCH  17  20
ENDBRANCH   1  17
TORSDOF 5
