REMARK  Name = 11500493
REMARK  5 active torsions:
REMARK  status: ('A' for Active; 'I' for Inactive)
REMARK    1  A    between atoms: C_1  and  C_15
REMARK    2  A    between atoms: C_2  and  C_8
REMARK    3  A    between atoms: C_11  and  O_13
REMARK    4  A    between atoms: C_15  and  N_16
REMARK    5  A    between atoms: N_16  and  C_19
REMARK                            x       y       z     vdW  Elec       q    Type
REMARK                         _______ _______ _______ _____ _____    ______ ____
ROOT
ATOM      1  C   UNL     1       0.536   1.571  -0.361  0.00  0.00    -0.003 C 
ATOM      2  C   UNL     1      -1.832   1.324   0.045  0.00  0.00    +0.001 C 
ATOM      3  C   UNL     1      -0.627   0.805  -0.428  0.00  0.00    -0.003 C 
ATOM      4  C   UNL     1       0.495   2.856   0.179  0.00  0.00    -0.003 C 
ATOM      5  C   UNL     1      -1.873   2.609   0.586  0.00  0.00    +0.000 C 
ATOM      6  C   UNL     1      -0.710   3.375   0.653  0.00  0.00    -0.000 C 
ENDROOT
BRANCH   2   8
ATOM      7  N   UNL     1      -5.444   0.446  -0.236  0.00  0.00    -0.239 NA
ATOM      8  C   UNL     1      -3.039   0.529  -0.024  0.00  0.00    +0.022 C 
ATOM      9  C   UNL     1      -2.987  -0.857   0.049  0.00  0.00    +0.040 C 
ATOM     10  C   UNL     1      -4.279   1.129  -0.165  0.00  0.00    +0.099 C 
ATOM     11  C   UNL     1      -4.164  -1.594  -0.021  0.00  0.00    +0.158 C 
ATOM     12  C   UNL     1      -5.356  -0.901  -0.162  0.00  0.00    +0.136 C 
BRANCH  11  13
ATOM     13  O   UNL     1      -4.145  -2.948   0.046  0.00  0.00    -0.470 OA
ATOM     14  C   UNL     1      -5.402  -3.625  -0.034  0.00  0.00    +0.253 C 
ENDBRANCH  11  13
ENDBRANCH   2   8
BRANCH   1  15
ATOM     15  C   UNL     1       1.825   1.017  -0.869  0.00  0.00    +0.114 C 
BRANCH  15  16
ATOM     16  N   UNL     1       2.572   0.303   0.168  0.00  0.00    -0.327 N 
ATOM     17  H   UNL     1       2.169   0.218   1.063  0.00  0.00    +0.147 HD
BRANCH  16  19
ATOM     18  N   UNL     1       5.748  -1.505   0.764  0.00  0.00    -0.228 NA
ATOM     19  C   UNL     1       3.809  -0.256  -0.049  0.00  0.00    +0.077 C 
ATOM     20  C   UNL     1       4.531  -0.942   0.939  0.00  0.00    +0.139 C 
ATOM     21  C   UNL     1       4.433  -0.166  -1.307  0.00  0.00    +0.019 C 
ATOM     22  C   UNL     1       5.684  -0.732  -1.526  0.00  0.00    +0.022 C 
ATOM     23  C   UNL     1       6.294  -1.384  -0.467  0.00  0.00    +0.100 C 
ATOM     24  N   UNL     1       3.932  -1.054   2.219  0.00  0.00    -0.342 N 
ATOM     25  H   UNL     1       4.402  -1.527   2.943  0.00  0.00    +0.144 HD
ATOM     26  H   UNL     1       3.045  -0.658   2.383  0.00  0.00    +0.144 HD
ENDBRANCH  16  19
ENDBRANCH  15  16
ENDBRANCH   1  15
TORSDOF 5
