REMARK  Name = 232446
REMARK  4 active torsions:
REMARK  status: ('A' for Active; 'I' for Inactive)
REMARK    1  A    between atoms: C_1  and  C_7
REMARK    2  A    between atoms: C_1  and  C_15
REMARK    3  A    between atoms: C_12  and  O_13
REMARK    4  A    between atoms: C_20  and  O_21
REMARK                            x       y       z     vdW  Elec       q    Type
REMARK                         _______ _______ _______ _____ _____    ______ ____
ROOT
ATOM      1  C   UNL     1      -0.011   0.949  -0.022  0.00  0.00    +0.038 C 
ATOM      2  C   UNL     1      -0.209   1.868  -1.280  0.00  0.00    +0.008 C 
ATOM      3  C   UNL     1      -0.054   1.926   1.208  0.00  0.00    +0.008 C 
ATOM      4  C   UNL     1      -1.479   2.720  -1.231  0.00  0.00    +0.001 C 
ATOM      5  C   UNL     1      -1.282   2.843   1.267  0.00  0.00    +0.001 C 
ATOM      6  C   UNL     1      -1.474   3.635  -0.017  0.00  0.00    +0.000 C 
ENDROOT
BRANCH   1   7
ATOM      7  C   UNL     1      -1.091  -0.165  -0.004  0.00  0.00    -0.019 C 
ATOM      8  C   UNL     1      -1.572  -0.646   1.212  0.00  0.00    -0.001 C 
ATOM      9  C   UNL     1      -1.577  -0.681  -1.204  0.00  0.00    -0.001 C 
ATOM     10  C   UNL     1      -2.543  -1.647   1.228  0.00  0.00    +0.036 C 
ATOM     11  C   UNL     1      -2.547  -1.682  -1.188  0.00  0.00    +0.036 C 
ATOM     12  C   UNL     1      -3.031  -2.166   0.028  0.00  0.00    +0.134 C 
BRANCH  12  13
ATOM     13  O   UNL     1      -3.978  -3.143   0.045  0.00  0.00    -0.506 OA
ATOM     14  H   UNL     1      -4.302  -3.467   0.862  0.00  0.00    +0.292 HD
ENDBRANCH  12  13
ENDBRANCH   1   7
BRANCH   1  15
ATOM     15  C   UNL     1       1.381   0.254  -0.015  0.00  0.00    -0.019 C 
ATOM     16  C   UNL     1       1.999  -0.074  -1.219  0.00  0.00    -0.001 C 
ATOM     17  C   UNL     1       2.004  -0.039   1.197  0.00  0.00    -0.001 C 
ATOM     18  C   UNL     1       3.247  -0.697  -1.212  0.00  0.00    +0.036 C 
ATOM     19  C   UNL     1       3.252  -0.663   1.204  0.00  0.00    +0.036 C 
ATOM     20  C   UNL     1       3.873  -0.992  -0.001  0.00  0.00    +0.134 C 
BRANCH  20  21
ATOM     21  O   UNL     1       5.090  -1.600   0.005  0.00  0.00    -0.506 OA
ATOM     22  H   UNL     1       5.508  -1.821  -0.805  0.00  0.00    +0.292 HD
ENDBRANCH  20  21
ENDBRANCH   1  15
TORSDOF 4
