REMARK  Name = 10339710
REMARK  4 active torsions:
REMARK  status: ('A' for Active; 'I' for Inactive)
REMARK    1  A    between atoms: C_5  and  N_17
REMARK    2  A    between atoms: C_7  and  C_11
REMARK    3  A    between atoms: N_17  and  C_19
REMARK    4  A    between atoms: C_19  and  C_21
REMARK                            x       y       z     vdW  Elec       q    Type
REMARK                         _______ _______ _______ _____ _____    ______ ____
ROOT
ATOM      1 BR   UNL     1       3.140  -4.532   0.112  0.00  0.00    -0.066 Br
ATOM      2  N   UNL     1       0.150  -1.792   0.031  0.00  0.00    -0.152 N 
ATOM      3  N   UNL     1       2.461  -1.115   0.033  0.00  0.00    -0.388 NA
ATOM      4  N   UNL     1      -0.599  -2.931   0.052  0.00  0.00    -0.173 NA
ATOM      5  C   UNL     1      -0.306  -0.465  -0.008  0.00  0.00    +0.126 C 
ATOM      6  C   UNL     1       1.513  -2.091   0.047  0.00  0.00    +0.200 C 
ATOM      7  C   UNL     1       2.039   0.116   0.011  0.00  0.00    +0.135 C 
ATOM      8  C   UNL     1       0.601   0.527  -0.022  0.00  0.00    +0.064 C 
ATOM      9  C   UNL     1       1.614  -3.463   0.078  0.00  0.00    +0.168 C 
ATOM     10  C   UNL     1       0.291  -3.921   0.080  0.00  0.00    +0.112 C 
ENDROOT
BRANCH   7  11
ATOM     11  C   UNL     1       3.041   1.215   0.000  0.00  0.00    +0.030 C 
ATOM     12  C   UNL     1       2.724   2.447   0.569  0.00  0.00    +0.003 C 
ATOM     13  C   UNL     1       4.290   1.010  -0.579  0.00  0.00    +0.003 C 
ATOM     14  C   UNL     1       3.663   3.478   0.559  0.00  0.00    +0.000 C 
ATOM     15  C   UNL     1       5.229   2.041  -0.589  0.00  0.00    +0.000 C 
ATOM     16  C   UNL     1       4.916   3.275  -0.020  0.00  0.00    +0.000 C 
ENDBRANCH   7  11
BRANCH   5  17
ATOM     17  N   UNL     1      -1.657  -0.263  -0.038  0.00  0.00    -0.316 N 
ATOM     18  H   UNL     1      -2.248  -1.050  -0.024  0.00  0.00    +0.148 HD
BRANCH  17  19
ATOM     19  C   UNL     1      -2.260   1.043  -0.087  0.00  0.00    +0.115 C 
BRANCH  19  21
ATOM     20  N   UNL     1      -6.541   0.836  -0.015  0.00  0.00    -0.242 NA
ATOM     21  C   UNL     1      -3.760   0.970  -0.061  0.00  0.00    +0.000 C 
ATOM     22  C   UNL     1      -4.429   0.991   1.151  0.00  0.00    +0.018 C 
ATOM     23  C   UNL     1      -4.464   0.884  -1.251  0.00  0.00    +0.018 C 
ATOM     24  C   UNL     1      -5.812   0.922   1.121  0.00  0.00    +0.099 C 
ATOM     25  C   UNL     1      -5.846   0.820  -1.174  0.00  0.00    +0.099 C 
ENDBRANCH  19  21
ENDBRANCH  17  19
ENDBRANCH   5  17
TORSDOF 4
