REMARK  Name = 69150
REMARK  4 active torsions:
REMARK  status: ('A' for Active; 'I' for Inactive)
REMARK    1  A    between atoms: C_2  and  C_3
REMARK    2  A    between atoms: C_2  and  C_11
REMARK    3  A    between atoms: C_8  and  O_9
REMARK    4  A    between atoms: C_16  and  O_17
REMARK                            x       y       z     vdW  Elec       q    Type
REMARK                         _______ _______ _______ _____ _____    ______ ____
ROOT
ATOM      1  O   UNL     1       0.025  -2.530  -0.001  0.00  0.00    -0.287 OA
ATOM      2  C   UNL     1       0.031  -1.290   0.000  0.00  0.00    +0.196 C 
ENDROOT
BRANCH   2   3
ATOM      3  C   UNL     1       1.291  -0.563   0.000  0.00  0.00    +0.039 C 
ATOM      4  C   UNL     1       1.291   0.832   0.000  0.00  0.00    +0.006 C 
ATOM      5  C   UNL     1       2.499  -1.261   0.000  0.00  0.00    +0.006 C 
ATOM      6  C   UNL     1       2.499   1.529   0.000  0.00  0.00    +0.037 C 
ATOM      7  C   UNL     1       3.707  -0.563   0.000  0.00  0.00    +0.037 C 
ATOM      8  C   UNL     1       3.707   0.832   0.000  0.00  0.00    +0.134 C 
BRANCH   8   9
ATOM      9  O   UNL     1       4.886   1.512  -0.001  0.00  0.00    -0.506 OA
ATOM     10  H   UNL     1       4.885   2.449  -0.001  0.00  0.00    +0.292 HD
ENDBRANCH   8   9
ENDBRANCH   2   3
BRANCH   2  11
ATOM     11  C   UNL     1      -1.293  -0.598   0.000  0.00  0.00    +0.039 C 
ATOM     12  C   UNL     1      -1.876  -0.293  -1.208  0.00  0.00    +0.006 C 
ATOM     13  C   UNL     1      -1.876  -0.294   1.208  0.00  0.00    +0.006 C 
ATOM     14  C   UNL     1      -3.112   0.353  -1.208  0.00  0.00    +0.037 C 
ATOM     15  C   UNL     1      -3.112   0.353   1.208  0.00  0.00    +0.037 C 
ATOM     16  C   UNL     1      -3.730   0.676   0.000  0.00  0.00    +0.134 C 
BRANCH  16  17
ATOM     17  O   UNL     1      -4.936   1.307   0.000  0.00  0.00    -0.506 OA
ATOM     18  H   UNL     1      -5.351   1.524  -0.812  0.00  0.00    +0.292 HD
ENDBRANCH  16  17
ENDBRANCH   2  11
TORSDOF 4
