REMARK  Name = 9956726
REMARK  9 active torsions:
REMARK  status: ('A' for Active; 'I' for Inactive)
REMARK    1  A    between atoms: N_2  and  C_21
REMARK    2  A    between atoms: C_3  and  C_7
REMARK    3  A    between atoms: C_8  and  C_11
REMARK    4  A    between atoms: C_14  and  C_20
REMARK    5  A    between atoms: C_21  and  C_22
REMARK    6  A    between atoms: C_23  and  O_28
REMARK    7  A    between atoms: O_28  and  C_29
REMARK    8  A    between atoms: C_29  and  C_33
REMARK    9  A    between atoms: C_33  and  O_34
REMARK                            x       y       z     vdW  Elec       q    Type
REMARK                         _______ _______ _______ _____ _____    ______ ____
ROOT
ATOM      1  O   UNL     1      -1.061   3.516   0.551  0.00  0.00    -0.274 OA
ATOM      2  N   UNL     1      -0.834   2.242  -1.348  0.00  0.00    -0.299 N 
ATOM      3  C   UNL     1      -0.386   2.733  -0.121  0.00  0.00    +0.239 C 
ATOM      4  H   UNL     1      -0.260   1.619  -1.848  0.00  0.00    +0.150 HD
ENDROOT
BRANCH   3   7
ATOM      5  S   UNL     1       1.751   1.133  -0.650  0.00  0.00    -0.067 S 
ATOM      6  N   UNL     1       2.812   1.882   1.585  0.00  0.00    -0.403 NA
ATOM      7  C   UNL     1       0.920   2.234   0.332  0.00  0.00    +0.178 C 
ATOM      8  C   UNL     1       2.997   1.120   0.530  0.00  0.00    +0.157 C 
ATOM      9  C   UNL     1       1.598   2.529   1.462  0.00  0.00    +0.107 C 
ATOM     10  C   UNL     1       1.186   3.444   2.546  0.00  0.00    +0.063 C 
BRANCH   8  11
ATOM     11  C   UNL     1       4.156   0.289   0.303  0.00  0.00    +0.036 C 
ATOM     12  C   UNL     1       5.343   0.548   0.986  0.00  0.00    +0.003 C 
ATOM     13  C   UNL     1       4.085  -0.771  -0.600  0.00  0.00    +0.003 C 
ATOM     14  C   UNL     1       6.393  -1.316  -0.136  0.00  0.00    +0.071 C 
ATOM     15  C   UNL     1       6.463  -0.255   0.766  0.00  0.00    +0.004 C 
ATOM     16  C   UNL     1       5.205  -1.574  -0.819  0.00  0.00    +0.004 C 
BRANCH  14  20
ATOM     17  F   UNL     1       8.681  -1.806   0.363  0.00  0.00    -0.166 F 
ATOM     18  F   UNL     1       7.386  -3.491  -0.070  0.00  0.00    -0.166 F 
ATOM     19  F   UNL     1       8.002  -2.156  -1.673  0.00  0.00    -0.166 F 
ATOM     20  C   UNL     1       7.590  -2.174  -0.372  0.00  0.00    +0.419 C 
ENDBRANCH  14  20
ENDBRANCH   8  11
ENDBRANCH   3   7
BRANCH   2  21
ATOM     21  C   UNL     1      -2.108   2.616  -1.907  0.00  0.00    +0.116 C 
BRANCH  21  22
ATOM     22  C   UNL     1      -3.205   1.698  -1.484  0.00  0.00    -0.002 C 
ATOM     23  C   UNL     1      -5.250  -0.017  -0.694  0.00  0.00    +0.139 C 
ATOM     24  C   UNL     1      -3.934   1.969  -0.326  0.00  0.00    +0.000 C 
ATOM     25  C   UNL     1      -3.501   0.567  -2.246  0.00  0.00    +0.000 C 
ATOM     26  C   UNL     1      -4.959   1.110   0.070  0.00  0.00    +0.037 C 
ATOM     27  C   UNL     1      -4.525  -0.292  -1.849  0.00  0.00    +0.037 C 
BRANCH  23  28
ATOM     28  O   UNL     1      -6.255  -0.858  -0.305  0.00  0.00    -0.472 OA
BRANCH  28  29
ATOM     29  C   UNL     1      -5.890  -1.932   0.563  0.00  0.00    +0.221 C 
ATOM     30  C   UNL     1      -4.871  -2.803  -0.166  0.00  0.00    +0.055 C 
ATOM     31  C   UNL     1      -5.326  -1.331   1.847  0.00  0.00    +0.055 C 
BRANCH  29  33
ATOM     32  O   UNL     1      -8.262  -2.430   0.325  0.00  0.00    -0.246 OA
ATOM     33  C   UNL     1      -7.179  -2.697   0.833  0.00  0.00    +0.350 C 
BRANCH  33  34
ATOM     34  O   UNL     1      -7.022  -3.726   1.704  0.00  0.00    -0.478 OA
ATOM     35  H   UNL     1      -6.179  -3.903   2.073  0.00  0.00    +0.295 HD
ENDBRANCH  33  34
ENDBRANCH  29  33
ENDBRANCH  28  29
ENDBRANCH  23  28
ENDBRANCH  21  22
ENDBRANCH   2  21
TORSDOF 9
