REMARK  Name = 11207678
REMARK  7 active torsions:
REMARK  status: ('A' for Active; 'I' for Inactive)
REMARK    1  A    between atoms: O_1  and  C_2
REMARK    2  A    between atoms: O_1  and  P_10
REMARK    3  A    between atoms: C_5  and  O_8
REMARK    4  A    between atoms: P_10  and  O_12
REMARK    5  A    between atoms: P_10  and  O_15
REMARK    6  A    between atoms: O_12  and  C_13
REMARK    7  A    between atoms: O_15  and  C_16
REMARK                            x       y       z     vdW  Elec       q    Type
REMARK                         _______ _______ _______ _____ _____    ______ ____
ROOT
ATOM      1  O   UNL     1       0.628  -1.046   0.177  0.00  0.00    -0.402 OA
ENDROOT
BRANCH   1   2
ATOM      2  C   UNL     1      -0.710  -0.792   0.047  0.00  0.00    +0.149 C 
ATOM      3  C   UNL     1      -1.222   0.435   0.458  0.00  0.00    +0.041 C 
ATOM      4  C   UNL     1      -1.548  -1.762  -0.494  0.00  0.00    +0.041 C 
ATOM      5  C   UNL     1      -3.431  -0.274  -0.217  0.00  0.00    +0.139 C 
ATOM      6  C   UNL     1      -2.586   0.694   0.326  0.00  0.00    +0.040 C 
ATOM      7  C   UNL     1      -2.912  -1.502  -0.627  0.00  0.00    +0.040 C 
BRANCH   5   8
ATOM      8  O   UNL     1      -4.762  -0.021  -0.346  0.00  0.00    -0.471 OA
ATOM      9  C   UNL     1      -5.226   1.255   0.094  0.00  0.00    +0.252 C 
ENDBRANCH   5   8
ENDBRANCH   1   2
BRANCH   1  10
ATOM     10  P   UNL     1       1.713  -0.016   0.786  0.00  0.00    +0.535 P 
ATOM     11  O   UNL     1       1.459   0.409   2.205  0.00  0.00    -0.215 OA
BRANCH  10  12
ATOM     12  O   UNL     1       1.768   1.188  -0.298  0.00  0.00    -0.264 OA
BRANCH  12  13
ATOM     13  C   UNL     1       2.746   2.200  -0.134  0.00  0.00    +0.155 C 
ATOM     14  C   UNL     1       2.606   3.208  -1.255  0.00  0.00    +0.035 C 
ENDBRANCH  12  13
ENDBRANCH  10  12
BRANCH  10  15
ATOM     15  O   UNL     1       3.124  -0.790   0.584  0.00  0.00    -0.264 OA
BRANCH  15  16
ATOM     16  C   UNL     1       3.502  -1.252  -0.702  0.00  0.00    +0.155 C 
ATOM     17  C   UNL     1       4.851  -1.933  -0.604  0.00  0.00    +0.035 C 
ENDBRANCH  15  16
ENDBRANCH  10  15
ENDBRANCH   1  10
TORSDOF 7
