REMARK  Name = 446805
REMARK  6 active torsions:
REMARK  status: ('A' for Active; 'I' for Inactive)
REMARK    1  A    between atoms: C_4  and  C_22
REMARK    2  A    between atoms: C_7  and  N_11
REMARK    3  A    between atoms: N_11  and  S_13
REMARK    4  A    between atoms: S_13  and  C_16
REMARK    5  A    between atoms: C_22  and  C_23
REMARK    6  A    between atoms: C_28  and  C_31
REMARK                            x       y       z     vdW  Elec       q    Type
REMARK                         _______ _______ _______ _____ _____    ______ ____
ROOT
ATOM      1  N   UNL     1       0.268   2.803   0.085  0.00  0.00    -0.262 N 
ATOM      2  N   UNL     1       0.920   0.749  -0.459  0.00  0.00    -0.394 NA
ATOM      3  C   UNL     1      -0.843   2.193  -0.438  0.00  0.00    +0.079 C 
ATOM      4  C   UNL     1       1.294   1.901   0.051  0.00  0.00    +0.168 C 
ATOM      5  C   UNL     1      -0.411   0.912  -0.769  0.00  0.00    +0.129 C 
ATOM      6  C   UNL     1      -1.322   0.007  -1.340  0.00  0.00    +0.103 C 
ATOM      7  C   UNL     1      -2.639   0.432  -1.555  0.00  0.00    +0.050 C 
ATOM      8  C   UNL     1      -2.150   2.637  -0.642  0.00  0.00    +0.018 C 
ATOM      9  C   UNL     1       0.337   4.159   0.581  0.00  0.00    +0.119 C 
ATOM     10  C   UNL     1      -3.044   1.724  -1.211  0.00  0.00    +0.013 C 
ENDROOT
BRANCH   7  11
ATOM     11  N   UNL     1      -3.582  -0.471  -2.135  0.00  0.00    -0.219 N 
ATOM     12  H   UNL     1      -4.035  -0.269  -2.986  0.00  0.00    +0.173 HD
BRANCH  11  13
ATOM     13  S   UNL     1      -3.889  -1.944  -1.267  0.00  0.00    +0.073 S 
ATOM     14  O   UNL     1      -2.664  -2.715  -1.183  0.00  0.00    -0.150 OA
ATOM     15  O   UNL     1      -5.107  -2.550  -1.772  0.00  0.00    -0.150 OA
BRANCH  13  16
ATOM     16  C   UNL     1      -4.253  -1.337   0.354  0.00  0.00    +0.125 C 
ATOM     17  C   UNL     1      -5.563  -1.033   0.681  0.00  0.00    +0.020 C 
ATOM     18  C   UNL     1      -3.222  -1.179   1.262  0.00  0.00    +0.020 C 
ATOM     19  C   UNL     1      -5.850  -0.555   1.960  0.00  0.00    +0.001 C 
ATOM     20  C   UNL     1      -3.509  -0.701   2.541  0.00  0.00    +0.001 C 
ATOM     21  C   UNL     1      -4.823  -0.389   2.890  0.00  0.00    +0.000 C 
ENDBRANCH  13  16
ENDBRANCH  11  13
ENDBRANCH   7  11
BRANCH   4  22
ATOM     22  C   UNL     1       2.648   2.232   0.542  0.00  0.00    +0.101 C 
BRANCH  22  23
ATOM     23  C   UNL     1       3.647   1.089   0.414  0.00  0.00    -0.014 C 
ATOM     24  C   UNL     1       4.388   0.978  -0.744  0.00  0.00    -0.004 C 
ATOM     25  C   UNL     1       3.779   0.200   1.461  0.00  0.00    -0.004 C 
ATOM     26  C   UNL     1       5.303  -0.069  -0.861  0.00  0.00    +0.002 C 
ATOM     27  C   UNL     1       4.693  -0.847   1.344  0.00  0.00    +0.002 C 
ATOM     28  C   UNL     1       5.455  -0.981   0.183  0.00  0.00    +0.031 C 
BRANCH  28  31
ATOM     29  N   UNL     1       7.183  -2.234  -1.086  0.00  0.00    -0.343 N 
ATOM     30  N   UNL     1       6.548  -2.938   1.050  0.00  0.00    -0.285 NA
ATOM     31  C   UNL     1       6.408  -2.073   0.061  0.00  0.00    +0.117 C 
ATOM     32  H   UNL     1       7.822  -2.981  -1.147  0.00  0.00    +0.144 HD
ATOM     33  H   UNL     1       7.092  -1.602  -1.835  0.00  0.00    +0.144 HD
ATOM     34  H   UNL     1       7.192  -3.678   0.970  0.00  0.00    +0.188 HD
ENDBRANCH  28  31
ENDBRANCH  22  23
ENDBRANCH   4  22
TORSDOF 6
