REMARK  Name = 448043
REMARK  2 active torsions:
REMARK  status: ('A' for Active; 'I' for Inactive)
REMARK    1  A    between atoms: S_1  and  C_5
REMARK    2  A    between atoms: S_1  and  N_15
REMARK                            x       y       z     vdW  Elec       q    Type
REMARK                         _______ _______ _______ _____ _____    ______ ____
ROOT
ATOM      1  S   UNL     1      -0.363   1.248  -0.203  0.00  0.00    +0.063 S 
ATOM      2  O   UNL     1      -0.031   2.037   0.967  0.00  0.00    -0.153 OA
ATOM      3  O   UNL     1      -0.365   1.850  -1.523  0.00  0.00    -0.153 OA
ENDROOT
BRANCH   1   5
ATOM      4  N   UNL     1       4.905  -0.024   0.371  0.00  0.00    -0.243 NA
ATOM      5  C   UNL     1       0.736  -0.134  -0.245  0.00  0.00    +0.122 C 
ATOM      6  C   UNL     1       2.119  -0.075  -0.037  0.00  0.00    +0.018 C 
ATOM      7  C   UNL     1       0.099  -1.344  -0.509  0.00  0.00    +0.020 C 
ATOM      8  C   UNL     1       2.869  -1.268  -0.101  0.00  0.00    +0.020 C 
ATOM      9  C   UNL     1       2.782   1.128   0.231  0.00  0.00    -0.001 C 
ATOM     10  C   UNL     1       0.843  -2.520  -0.571  0.00  0.00    +0.001 C 
ATOM     11  C   UNL     1       2.222  -2.486  -0.368  0.00  0.00    +0.002 C 
ATOM     12  C   UNL     1       4.246  -1.176   0.111  0.00  0.00    +0.099 C 
ATOM     13  C   UNL     1       4.155   1.098   0.424  0.00  0.00    +0.095 C 
ATOM     14  C   UNL     1       2.159   2.480   0.333  0.00  0.00    +0.033 C 
ENDBRANCH   1   5
BRANCH   1  15
ATOM     15  N   UNL     1      -1.862   0.444   0.056  0.00  0.00    -0.159 NA
ATOM     16  N   UNL     1      -4.783  -0.700  -0.005  0.00  0.00    +0.385 N 
ATOM     17  C   UNL     1      -2.952   0.766  -0.925  0.00  0.00    +0.058 C 
ATOM     18  C   UNL     1      -2.235   0.250   1.482  0.00  0.00    +0.093 C 
ATOM     19  C   UNL     1      -4.383   0.656  -0.378  0.00  0.00    -0.064 C 
ATOM     20  C   UNL     1      -2.952  -1.082   1.670  0.00  0.00    -0.004 C 
ATOM     21  C   UNL     1      -4.449  -1.024   1.379  0.00  0.00    -0.080 C 
ATOM     22  C   UNL     1      -2.760  -0.123  -2.159  0.00  0.00    +0.017 C 
ATOM     23  H   UNL     1      -4.307  -1.362  -0.619  0.00  0.00    -0.084 HD
ATOM     24  H   UNL     1      -5.796  -0.760  -0.100  0.00  0.00    -0.084 HD
ENDBRANCH   1  15
TORSDOF 2
