REMARK  Name = 1116191
REMARK  3 active torsions:
REMARK  status: ('A' for Active; 'I' for Inactive)
REMARK    1  A    between atoms: N_2  and  C_7
REMARK    2  A    between atoms: C_4  and  C_15
REMARK    3  A    between atoms: N_14  and  C_18
REMARK                            x       y       z     vdW  Elec       q    Type
REMARK                         _______ _______ _______ _____ _____    ______ ____
ROOT
ATOM      1  O   UNL     1       2.358  -2.197  -1.942  0.00  0.00    -0.275 OA
ATOM      2  N   UNL     1       2.376  -0.782  -0.065  0.00  0.00    -0.281 N 
ATOM      3  C   UNL     1       1.575  -0.583   1.121  0.00  0.00    +0.103 C 
ATOM      4  C   UNL     1       0.249  -1.239   0.777  0.00  0.00    +0.106 C 
ATOM      5  C   UNL     1       0.593  -2.282  -0.285  0.00  0.00    +0.096 C 
ATOM      6  C   UNL     1       1.872  -1.768  -0.905  0.00  0.00    +0.226 C 
ENDROOT
BRANCH   2   7
ATOM      7  C   UNL     1       3.632  -0.096  -0.246  0.00  0.00    +0.075 C 
ATOM      8  C   UNL     1       3.407   1.406  -0.444  0.00  0.00    +0.020 C 
ATOM      9  C   UNL     1       4.567  -0.368   0.935  0.00  0.00    +0.020 C 
ATOM     10  C   UNL     1       4.727   2.159  -0.583  0.00  0.00    +0.002 C 
ATOM     11  C   UNL     1       5.886   0.389   0.795  0.00  0.00    +0.002 C 
ATOM     12  C   UNL     1       5.658   1.885   0.594  0.00  0.00    +0.000 C 
ENDBRANCH   2   7
BRANCH   4  15
ATOM     13  O   UNL     1      -0.368   0.767  -0.338  0.00  0.00    -0.275 OA
ATOM     14  N   UNL     1      -2.046  -0.640   0.524  0.00  0.00    -0.284 N 
ATOM     15  C   UNL     1      -0.743  -0.243   0.248  0.00  0.00    +0.228 C 
ATOM     16  H   UNL     1      -2.148  -1.489   1.011  0.00  0.00    +0.155 HD
BRANCH  14  18
ATOM     17 BR   UNL     1      -7.310  -0.583   0.695  0.00  0.00    -0.049 Br
ATOM     18  C   UNL     1      -3.242   0.036   0.184  0.00  0.00    +0.051 C 
ATOM     19  C   UNL     1      -4.459  -0.516   0.546  0.00  0.00    +0.021 C 
ATOM     20  C   UNL     1      -3.168   1.237  -0.503  0.00  0.00    +0.015 C 
ATOM     21  C   UNL     1      -5.637   0.152   0.211  0.00  0.00    +0.036 C 
ATOM     22  C   UNL     1      -4.346   1.904  -0.838  0.00  0.00    +0.002 C 
ATOM     23  C   UNL     1      -5.581   1.361  -0.481  0.00  0.00    +0.007 C 
ENDBRANCH  14  18
ENDBRANCH   4  15
TORSDOF 3
