REMARK  Name = 16122554
REMARK  11 active torsions:
REMARK  status: ('A' for Active; 'I' for Inactive)
REMARK    1  A    between atoms: C_1  and  C_19
REMARK    2  A    between atoms: C_3  and  C_7
REMARK    3  A    between atoms: C_10  and  C_13
REMARK    4  A    between atoms: C_19  and  C_20
REMARK    5  A    between atoms: C_20  and  P_21
REMARK    6  A    between atoms: C_20  and  P_27
REMARK    7  A    between atoms: C_20  and  O_33
REMARK    8  A    between atoms: P_21  and  O_23
REMARK    9  A    between atoms: P_21  and  O_25
REMARK   10  A    between atoms: P_27  and  O_29
REMARK   11  A    between atoms: P_27  and  O_31
REMARK                            x       y       z     vdW  Elec       q    Type
REMARK                         _______ _______ _______ _____ _____    ______ ____
ROOT
ATOM      1  C   UNL     1      -2.322  -1.417   0.446  0.00  0.00    -0.019 C 
ATOM      2  C   UNL     1      -1.038  -0.895   0.477  0.00  0.00    -0.004 C 
ATOM      3  C   UNL     1       0.024  -1.661  -0.004  0.00  0.00    -0.000 C 
ATOM      4  C   UNL     1      -2.570  -2.686  -0.054  0.00  0.00    -0.004 C 
ATOM      5  C   UNL     1      -0.211  -2.940  -0.510  0.00  0.00    -0.000 C 
ATOM      6  C   UNL     1      -1.508  -3.453  -0.535  0.00  0.00    -0.000 C 
ENDROOT
BRANCH   3   7
ATOM      7  C   UNL     1       1.370  -1.130   0.022  0.00  0.00    -0.000 C 
ATOM      8  C   UNL     1       2.458  -1.992   0.158  0.00  0.00    -0.000 C 
ATOM      9  C   UNL     1       1.579   0.244  -0.090  0.00  0.00    -0.000 C 
ATOM     10  C   UNL     1       3.964  -0.105   0.072  0.00  0.00    +0.000 C 
ATOM     11  C   UNL     1       3.755  -1.480   0.183  0.00  0.00    -0.000 C 
ATOM     12  C   UNL     1       2.876   0.757  -0.065  0.00  0.00    -0.000 C 
BRANCH  10  13
ATOM     13  C   UNL     1       5.309   0.426   0.098  0.00  0.00    +0.000 C 
ATOM     14  C   UNL     1       5.892   0.790   1.311  0.00  0.00    +0.000 C 
ATOM     15  C   UNL     1       6.023   0.575  -1.091  0.00  0.00    +0.000 C 
ATOM     16  C   UNL     1       7.189   1.303   1.336  0.00  0.00    +0.000 C 
ATOM     17  C   UNL     1       7.320   1.088  -1.067  0.00  0.00    +0.000 C 
ATOM     18  C   UNL     1       7.903   1.452   0.147  0.00  0.00    +0.000 C 
ENDBRANCH  10  13
ENDBRANCH   3   7
BRANCH   1  19
ATOM     19  C   UNL     1      -3.472  -0.589   0.964  0.00  0.00    +0.077 C 
BRANCH  19  20
ATOM     20  C   UNL     1      -4.190   0.327  -0.059  0.00  0.00    +0.279 C 
BRANCH  20  21
ATOM     21  P   UNL     1      -3.067   1.477  -0.924  0.00  0.00    +0.372 P 
ATOM     22  O   UNL     1      -1.972   0.831  -1.721  0.00  0.00    -0.255 OA
BRANCH  21  23
ATOM     23  O   UNL     1      -2.572   2.468   0.253  0.00  0.00    -0.322 OA
ATOM     24  H   UNL     1      -1.961   3.126  -0.115  0.00  0.00    +0.220 HD
ENDBRANCH  21  23
BRANCH  21  25
ATOM     25  O   UNL     1      -4.063   2.409  -1.791  0.00  0.00    -0.322 OA
ATOM     26  H   UNL     1      -3.544   3.059  -2.290  0.00  0.00    +0.220 HD
ENDBRANCH  21  25
ENDBRANCH  20  21
BRANCH  20  27
ATOM     27  P   UNL     1      -5.738   0.939   0.748  0.00  0.00    +0.372 P 
ATOM     28  O   UNL     1      -6.696  -0.139   1.163  0.00  0.00    -0.255 OA
BRANCH  27  29
ATOM     29  O   UNL     1      -5.178   1.863   1.950  0.00  0.00    -0.322 OA
ATOM     30  H   UNL     1      -5.924   2.238   2.443  0.00  0.00    +0.220 HD
ENDBRANCH  27  29
BRANCH  27  31
ATOM     31  O   UNL     1      -6.331   2.012  -0.304  0.00  0.00    -0.322 OA
ATOM     32  H   UNL     1      -7.155   2.386   0.045  0.00  0.00    +0.220 HD
ENDBRANCH  27  31
ENDBRANCH  20  27
BRANCH  20  33
ATOM     33  O   UNL     1      -4.732  -0.471  -1.113  0.00  0.00    -0.366 OA
ATOM     34  H   UNL     1      -5.182   0.102  -1.754  0.00  0.00    +0.212 HD
ENDBRANCH  20  33
ENDBRANCH  19  20
ENDBRANCH   1  19
TORSDOF 11
