REMARK  Name = 4447
REMARK  8 active torsions:
REMARK  status: ('A' for Active; 'I' for Inactive)
REMARK    1  A    between atoms: N_1  and  C_15
REMARK    2  A    between atoms: N_2  and  C_7
REMARK    3  A    between atoms: N_3  and  C_28
REMARK    4  A    between atoms: C_12  and  C_14
REMARK    5  A    between atoms: C_15  and  C_16
REMARK    6  A    between atoms: C_15  and  C_22
REMARK    7  A    between atoms: C_28  and  C_30
REMARK    8  A    between atoms: C_30  and  O_31
REMARK                            x       y       z     vdW  Elec       q    Type
REMARK                         _______ _______ _______ _____ _____    ______ ____
ROOT
ATOM      1  N   UNL     1      -0.338  -0.074  -0.011  0.00  0.00    -0.340 N 
ATOM      2  N   UNL     1       1.017  -1.920   0.430  0.00  0.00    -0.325 N 
ATOM      3  N   UNL     1      -1.068  -2.262  -0.622  0.00  0.00    -0.227 NA
ATOM      4  C   UNL     1      -0.181  -1.457  -0.106  0.00  0.00    +0.200 C 
ATOM      5  H   UNL     1       0.416   0.423   0.381  0.00  0.00    +0.164 HD
ATOM      6  H   UNL     1       0.975  -2.807   0.855  0.00  0.00    +0.169 HD
ENDROOT
BRANCH   2   7
ATOM      7  C   UNL     1       2.286  -1.298   0.450  0.00  0.00    +0.059 C 
ATOM      8  C   UNL     1       3.191  -1.600   1.466  0.00  0.00    +0.018 C 
ATOM      9  C   UNL     1       2.628  -0.385  -0.545  0.00  0.00    +0.018 C 
ATOM     10  C   UNL     1       4.443  -0.986   1.487  0.00  0.00    +0.012 C 
ATOM     11  C   UNL     1       3.881   0.229  -0.525  0.00  0.00    +0.012 C 
ATOM     12  C   UNL     1       4.788  -0.072   0.491  0.00  0.00    +0.069 C 
BRANCH  12  14
ATOM     13  N   UNL     1       7.115   1.068   0.529  0.00  0.00    -0.191 NA
ATOM     14  C   UNL     1       6.072   0.556   0.512  0.00  0.00    +0.100 C 
ENDBRANCH  12  14
ENDBRANCH   2   7
BRANCH   1  15
ATOM     15  C   UNL     1      -1.479   0.714  -0.422  0.00  0.00    +0.125 C 
BRANCH  15  16
ATOM     16  C   UNL     1      -1.057   2.082  -0.926  0.00  0.00    +0.002 C 
ATOM     17  C   UNL     1      -0.773   2.244  -2.269  0.00  0.00    -0.002 C 
ATOM     18  C   UNL     1      -0.968   3.129  -0.029  0.00  0.00    -0.002 C 
ATOM     19  C   UNL     1      -0.386   3.501  -2.732  0.00  0.00    -0.000 C 
ATOM     20  C   UNL     1      -0.581   4.387  -0.493  0.00  0.00    -0.000 C 
ATOM     21  C   UNL     1      -0.290   4.573  -1.844  0.00  0.00    -0.000 C 
ENDBRANCH  15  16
BRANCH  15  22
ATOM     22  C   UNL     1      -2.523   0.796   0.677  0.00  0.00    +0.002 C 
ATOM     23  C   UNL     1      -2.115   0.740   1.996  0.00  0.00    -0.002 C 
ATOM     24  C   UNL     1      -3.854   0.924   0.329  0.00  0.00    -0.002 C 
ATOM     25  C   UNL     1      -3.075   0.816   3.005  0.00  0.00    -0.000 C 
ATOM     26  C   UNL     1      -4.814   1.000   1.339  0.00  0.00    -0.000 C 
ATOM     27  C   UNL     1      -4.424   0.946   2.676  0.00  0.00    -0.000 C 
ENDBRANCH  15  22
ENDBRANCH   1  15
BRANCH   3  28
ATOM     28  C   UNL     1      -0.791  -3.691  -0.635  0.00  0.00    +0.237 C 
BRANCH  28  30
ATOM     29  O   UNL     1      -2.976  -3.850  -1.696  0.00  0.00    -0.248 OA
ATOM     30  C   UNL     1      -1.968  -4.385  -1.258  0.00  0.00    +0.339 C 
BRANCH  30  31
ATOM     31  O   UNL     1      -1.760  -5.726  -1.274  0.00  0.00    -0.479 OA
ATOM     32  H   UNL     1      -0.967  -6.081  -0.924  0.00  0.00    +0.295 HD
ENDBRANCH  30  31
ENDBRANCH  28  30
ENDBRANCH   3  28
TORSDOF 8
