REMARK  Name = 11952989
REMARK  5 active torsions:
REMARK  status: ('A' for Active; 'I' for Inactive)
REMARK    1  A    between atoms: C_4  and  C_21
REMARK    2  A    between atoms: C_6  and  C_11
REMARK    3  A    between atoms: C_24  and  C_27
REMARK    4  A    between atoms: C_27  and  C_29
REMARK    5  A    between atoms: C_29  and  O_30
REMARK                            x       y       z     vdW  Elec       q    Type
REMARK                         _______ _______ _______ _____ _____    ______ ____
ROOT
ATOM      1  N   UNL     1      -1.243  -4.364  -0.232  0.00  0.00    -0.297 N 
ATOM      2  N   UNL     1       1.143  -4.046  -0.140  0.00  0.00    -0.229 NA
ATOM      3  C   UNL     1      -0.530  -2.255  -0.065  0.00  0.00    +0.033 C 
ATOM      4  C   UNL     1      -1.950  -2.258  -0.106  0.00  0.00    +0.017 C 
ATOM      5  C   UNL     1      -0.121  -3.583  -0.145  0.00  0.00    +0.132 C 
ATOM      6  C   UNL     1       1.797  -1.701   0.042  0.00  0.00    +0.019 C 
ATOM      7  C   UNL     1       0.471  -1.275   0.033  0.00  0.00    +0.004 C 
ATOM      8  C   UNL     1      -2.360  -3.570  -0.209  0.00  0.00    +0.063 C 
ATOM      9  C   UNL     1       2.065  -3.060  -0.044  0.00  0.00    +0.100 C 
ATOM     10  H   UNL     1      -1.247  -5.347  -0.300  0.00  0.00    +0.154 HD
ENDROOT
BRANCH   6  11
ATOM     11  C   UNL     1       2.876  -0.742   0.140  0.00  0.00    +0.001 C 
ATOM     12  C   UNL     1       3.753   1.485  -0.296  0.00  0.00    +0.000 C 
ATOM     13  C   UNL     1       2.716   0.542  -0.382  0.00  0.00    +0.000 C 
ATOM     14  C   UNL     1       4.970   1.120   0.329  0.00  0.00    +0.000 C 
ATOM     15  C   UNL     1       4.072  -1.101   0.754  0.00  0.00    +0.000 C 
ATOM     16  C   UNL     1       5.113  -0.177   0.849  0.00  0.00    +0.000 C 
ATOM     17  C   UNL     1       3.610   2.782  -0.816  0.00  0.00    +0.000 C 
ATOM     18  C   UNL     1       6.007   2.063   0.415  0.00  0.00    +0.000 C 
ATOM     19  C   UNL     1       4.652   3.705  -0.721  0.00  0.00    +0.000 C 
ATOM     20  C   UNL     1       5.848   3.347  -0.107  0.00  0.00    +0.000 C 
ENDBRANCH   6  11
BRANCH   4  21
ATOM     21  C   UNL     1      -2.876  -1.164  -0.058  0.00  0.00    +0.001 C 
ATOM     22  C   UNL     1      -3.363  -0.714   1.170  0.00  0.00    -0.000 C 
ATOM     23  C   UNL     1      -3.291  -0.547  -1.239  0.00  0.00    -0.000 C 
ATOM     24  C   UNL     1      -4.677   0.966   0.035  0.00  0.00    -0.011 C 
ATOM     25  C   UNL     1      -4.263   0.350   1.216  0.00  0.00    -0.004 C 
ATOM     26  C   UNL     1      -4.191   0.517  -1.193  0.00  0.00    -0.004 C 
BRANCH  24  27
ATOM     27  C   UNL     1      -5.638   2.106   0.086  0.00  0.00    +0.136 C 
BRANCH  27  29
ATOM     28  O   UNL     1      -3.758   3.640   0.291  0.00  0.00    -0.250 OA
ATOM     29  C   UNL     1      -4.965   3.459   0.201  0.00  0.00    +0.318 C 
BRANCH  29  30
ATOM     30  O   UNL     1      -5.867   4.476   0.193  0.00  0.00    -0.480 OA
ATOM     31  H   UNL     1      -6.783   4.289   0.122  0.00  0.00    +0.295 HD
ENDBRANCH  29  30
ENDBRANCH  27  29
ENDBRANCH  24  27
ENDBRANCH   4  21
TORSDOF 5
