REMARK  Name = 25134249
REMARK  7 active torsions:
REMARK  status: ('A' for Active; 'I' for Inactive)
REMARK    1  A    between atoms: N_1  and  C_17
REMARK    2  A    between atoms: C_2  and  N_9
REMARK    3  A    between atoms: C_10  and  C_12
REMARK    4  A    between atoms: C_12  and  C_13
REMARK    5  A    between atoms: C_13  and  C_14
REMARK    6  A    between atoms: C_14  and  S_15
REMARK    7  A    between atoms: C_17  and  C_18
REMARK                            x       y       z     vdW  Elec       q    Type
REMARK                         _______ _______ _______ _____ _____    ______ ____
ROOT
ATOM      1  N   UNL     1      -1.563   0.794  -0.395  0.00  0.00    +0.390 N 
ATOM      2  C   UNL     1       1.063   1.508   0.714  0.00  0.00    +0.067 C 
ATOM      3  C   UNL     1       0.134   0.492   1.382  0.00  0.00    -0.003 C 
ATOM      4  C   UNL     1       0.253   2.461  -0.168  0.00  0.00    -0.003 C 
ATOM      5  C   UNL     1      -0.792  -0.194   0.372  0.00  0.00    -0.075 C 
ATOM      6  C   UNL     1      -0.677   1.710  -1.126  0.00  0.00    -0.075 C 
ATOM      7  H   UNL     1      -2.110   1.346   0.265  0.00  0.00    -0.079 HD
ENDROOT
BRANCH   2   9
ATOM      8  O   UNL     1       3.656   0.627   1.665  0.00  0.00    -0.275 OA
ATOM      9  N   UNL     1       2.099   0.846  -0.047  0.00  0.00    -0.306 N 
ATOM     10  C   UNL     1       3.316   0.459   0.497  0.00  0.00    +0.222 C 
ATOM     11  H   UNL     1       1.932   0.660  -0.999  0.00  0.00    +0.149 HD
BRANCH  10  12
ATOM     12  C   UNL     1       4.199  -0.217  -0.538  0.00  0.00    +0.086 C 
BRANCH  12  13
ATOM     13  C   UNL     1       5.546  -0.652   0.042  0.00  0.00    +0.021 C 
BRANCH  13  14
ATOM     14  C   UNL     1       6.464  -1.337  -0.969  0.00  0.00    +0.054 C 
BRANCH  14  15
ATOM     15  S   UNL     1       8.064  -1.832  -0.264  0.00  0.00    -0.168 S 
ATOM     16  H   UNL     1       8.817  -2.431  -1.225  0.00  0.00    +0.102 HD
ENDBRANCH  14  15
ENDBRANCH  13  14
ENDBRANCH  12  13
ENDBRANCH  10  12
ENDBRANCH   2   9
BRANCH   1  17
ATOM     17  C   UNL     1      -2.480   0.123  -1.317  0.00  0.00    -0.050 C 
BRANCH  17  18
ATOM     18  C   UNL     1      -3.726  -0.355  -0.621  0.00  0.00    -0.043 C 
ATOM     19  C   UNL     1      -3.766  -1.632  -0.063  0.00  0.00    -0.006 C 
ATOM     20  C   UNL     1      -4.840   0.480  -0.533  0.00  0.00    -0.006 C 
ATOM     21  C   UNL     1      -4.921  -2.075   0.583  0.00  0.00    -0.000 C 
ATOM     22  C   UNL     1      -5.994   0.037   0.113  0.00  0.00    -0.000 C 
ATOM     23  C   UNL     1      -6.035  -1.240   0.671  0.00  0.00    -0.000 C 
ENDBRANCH  17  18
ENDBRANCH   1  17
TORSDOF 7
