REMARK  Name = 11188898
REMARK  6 active torsions:
REMARK  status: ('A' for Active; 'I' for Inactive)
REMARK    1  A    between atoms: C_4  and  C_28
REMARK    2  A    between atoms: C_17  and  O_19
REMARK    3  A    between atoms: C_18  and  O_21
REMARK    4  A    between atoms: O_21  and  S_22
REMARK    5  A    between atoms: S_22  and  N_25
REMARK    6  A    between atoms: C_28  and  C_30
REMARK                            x       y       z     vdW  Elec       q    Type
REMARK                         _______ _______ _______ _____ _____    ______ ____
ROOT
ATOM      1  C   UNL     1      -3.470   0.290  -0.334  0.00  0.00    +0.001 C 
ATOM      2  C   UNL     1      -2.748  -0.870   0.386  0.00  0.00    +0.000 C 
ATOM      3  C   UNL     1      -1.254  -0.916   0.064  0.00  0.00    +0.004 C 
ATOM      4  C   UNL     1      -4.915   0.016   0.147  0.00  0.00    +0.015 C 
ATOM      5  C   UNL     1      -0.597   0.411   0.551  0.00  0.00    +0.022 C 
ATOM      6  C   UNL     1      -2.860   1.606   0.168  0.00  0.00    +0.000 C 
ATOM      7  C   UNL     1      -3.616  -2.084   0.070  0.00  0.00    +0.000 C 
ATOM      8  C   UNL     1      -5.050  -1.522   0.040  0.00  0.00    +0.001 C 
ATOM      9  C   UNL     1      -1.333   1.647  -0.032  0.00  0.00    +0.004 C 
ATOM     10  C   UNL     1      -0.544  -2.095   0.733  0.00  0.00    +0.005 C 
ATOM     11  C   UNL     1      -3.377   0.237  -1.880  0.00  0.00    +0.000 C 
ATOM     12  C   UNL     1       0.913   0.393   0.331  0.00  0.00    -0.023 C 
ATOM     13  C   UNL     1       0.904  -2.166   0.259  0.00  0.00    +0.026 C 
ATOM     14  C   UNL     1       1.610  -0.832   0.239  0.00  0.00    -0.023 C 
ATOM     15  C   UNL     1       1.659   1.585   0.305  0.00  0.00    +0.036 C 
ATOM     16  C   UNL     1       3.006  -0.833   0.072  0.00  0.00    +0.038 C 
ATOM     17  C   UNL     1       3.047   1.569   0.148  0.00  0.00    +0.175 C 
ATOM     18  C   UNL     1       3.720   0.361   0.027  0.00  0.00    +0.206 C 
ENDROOT
BRANCH  17  19
ATOM     19  O   UNL     1       3.730   2.748   0.120  0.00  0.00    -0.468 OA
ATOM     20  C   UNL     1       2.964   3.944   0.251  0.00  0.00    +0.253 C 
ENDBRANCH  17  19
BRANCH  18  21
ATOM     21  O   UNL     1       5.072   0.330  -0.131  0.00  0.00    -0.346 OA
BRANCH  21  22
ATOM     22  S   UNL     1       5.935  -1.057  -0.274  0.00  0.00    +0.086 S 
ATOM     23  O   UNL     1       5.564  -1.699  -1.522  0.00  0.00    -0.046 OA
ATOM     24  O   UNL     1       5.854  -1.778   0.984  0.00  0.00    -0.046 OA
BRANCH  22  25
ATOM     25  N   UNL     1       7.549  -0.500  -0.443  0.00  0.00    -0.194 NA
ATOM     26  H   UNL     1       7.641   0.013  -1.320  0.00  0.00    +0.145 HD
ATOM     27  H   UNL     1       8.185  -1.297  -0.446  0.00  0.00    +0.145 HD
ENDBRANCH  22  25
ENDBRANCH  21  22
ENDBRANCH  18  21
BRANCH   4  28
ATOM     28  C   UNL     1      -6.029   0.759  -0.577  0.00  0.00    +0.105 C 
BRANCH  28  30
ATOM     29  N   UNL     1      -8.389   0.078   0.353  0.00  0.00    -0.196 NA
ATOM     30  C   UNL     1      -7.346   0.377  -0.056  0.00  0.00    +0.073 C 
ENDBRANCH  28  30
ENDBRANCH   4  28
TORSDOF 6
