REMARK  Name = 6102686
REMARK  8 active torsions:
REMARK  status: ('A' for Active; 'I' for Inactive)
REMARK    1  A    between atoms: S_1  and  C_5
REMARK    2  A    between atoms: S_1  and  N_18
REMARK    3  A    between atoms: C_6  and  C_11
REMARK    4  A    between atoms: C_12  and  C_13
REMARK    5  A    between atoms: C_13  and  N_14
REMARK    6  A    between atoms: N_18  and  C_28
REMARK    7  A    between atoms: C_26  and  C_31
REMARK    8  A    between atoms: C_31  and  O_32
REMARK                            x       y       z     vdW  Elec       q    Type
REMARK                         _______ _______ _______ _____ _____    ______ ____
ROOT
ATOM      1  S   UNL     1       0.795  -1.702  -0.866  0.00  0.00    +0.074 S 
ATOM      2  O   UNL     1       1.994  -2.413  -0.465  0.00  0.00    -0.150 OA
ATOM      3  O   UNL     1       0.129  -2.053  -2.106  0.00  0.00    -0.150 OA
ENDROOT
BRANCH   1   5
ATOM      4  F   UNL     1       2.139   4.011  -1.250  0.00  0.00    -0.204 F 
ATOM      5  C   UNL     1       1.220   0.014  -0.948  0.00  0.00    +0.125 C 
ATOM      6  C   UNL     1       1.975   0.615   0.046  0.00  0.00    +0.021 C 
ATOM      7  C   UNL     1       0.768   0.736  -2.043  0.00  0.00    +0.022 C 
ATOM      8  C   UNL     1       2.287   1.970  -0.056  0.00  0.00    +0.031 C 
ATOM      9  C   UNL     1       1.080   2.091  -2.145  0.00  0.00    +0.031 C 
ATOM     10  C   UNL     1       1.840   2.709  -1.152  0.00  0.00    +0.140 C 
BRANCH   6  11
ATOM     11  C   UNL     1       2.463  -0.117   1.208  0.00  0.00    -0.005 C 
ATOM     12  C   UNL     1       3.654  -0.748   1.302  0.00  0.00    -0.049 C 
BRANCH  12  13
ATOM     13  C   UNL     1       4.667  -0.785   0.196  0.00  0.00    -0.050 C 
BRANCH  13  14
ATOM     14  N   UNL     1       6.026  -0.879   0.718  0.00  0.00    +0.387 N 
ATOM     15  C   UNL     1       6.993  -0.973  -0.377  0.00  0.00    -0.100 C 
ATOM     16  C   UNL     1       6.332   0.272   1.569  0.00  0.00    -0.100 C 
ATOM     17  H   UNL     1       6.093  -1.726   1.283  0.00  0.00    -0.079 HD
ENDBRANCH  13  14
ENDBRANCH  12  13
ENDBRANCH   6  11
ENDBRANCH   1   5
BRANCH   1  18
ATOM     18  N   UNL     1      -0.330  -1.728   0.436  0.00  0.00    -0.215 N 
ATOM     19  H   UNL     1      -0.039  -1.966   1.346  0.00  0.00    +0.174 HD
BRANCH  18  28
ATOM     20  C   UNL     1      -5.528   1.737   0.387  0.00  0.00    +0.005 C 
ATOM     21  C   UNL     1      -4.219   1.309   1.047  0.00  0.00    +0.026 C 
ATOM     22  C   UNL     1      -6.456   0.541   0.219  0.00  0.00    +0.005 C 
ATOM     23  C   UNL     1      -3.618   0.071   0.429  0.00  0.00    -0.019 C 
ATOM     24  C   UNL     1      -5.823  -0.499  -0.704  0.00  0.00    +0.026 C 
ATOM     25  C   UNL     1      -4.385  -0.802  -0.363  0.00  0.00    -0.026 C 
ATOM     26  C   UNL     1      -2.277  -0.243   0.700  0.00  0.00    +0.086 C 
ATOM     27  C   UNL     1      -3.786  -1.953  -0.898  0.00  0.00    -0.003 C 
ATOM     28  C   UNL     1      -1.697  -1.395   0.171  0.00  0.00    +0.071 C 
ATOM     29  C   UNL     1      -2.450  -2.248  -0.630  0.00  0.00    +0.016 C 
BRANCH  26  31
ATOM     30  O   UNL     1      -0.786   1.571   1.159  0.00  0.00    -0.245 OA
ATOM     31  C   UNL     1      -1.466   0.624   1.554  0.00  0.00    +0.339 C 
BRANCH  31  32
ATOM     32  O   UNL     1      -1.541   0.270   2.863  0.00  0.00    -0.477 OA
ATOM     33  H   UNL     1      -2.071  -0.458   3.122  0.00  0.00    +0.295 HD
ENDBRANCH  31  32
ENDBRANCH  26  31
ENDBRANCH  18  28
ENDBRANCH   1  18
TORSDOF 8
