REMARK  Name = 6852193
REMARK  5 active torsions:
REMARK  status: ('A' for Active; 'I' for Inactive)
REMARK    1  A    between atoms: C_6  and  C_13
REMARK    2  A    between atoms: C_8  and  C_16
REMARK    3  A    between atoms: N_15  and  C_18
REMARK    4  A    between atoms: C_18  and  C_19
REMARK    5  A    between atoms: C_19  and  S_20
REMARK                            x       y       z     vdW  Elec       q    Type
REMARK                         _______ _______ _______ _____ _____    ______ ____
ROOT
ATOM      1  S   UNL     1      -0.201   2.346   0.074  0.00  0.00    -0.064 S 
ATOM      2  N   UNL     1       2.539   1.716   0.311  0.00  0.00    -0.243 N 
ATOM      3  N   UNL     1       3.260   0.560   0.245  0.00  0.00    -0.165 NA
ATOM      4  C   UNL     1       1.078   0.183  -0.058  0.00  0.00    +0.047 A 
ATOM      5  C   UNL     1       1.220   1.497   0.129  0.00  0.00    +0.109 A 
ATOM      6  C   UNL     1       2.331  -0.390   0.014  0.00  0.00    +0.174 A 
ATOM      7  C   UNL     1      -0.221  -0.259  -0.266  0.00  0.00    +0.015 C 
ATOM      8  C   UNL     1      -1.065   0.849  -0.220  0.00  0.00    +0.084 C 
ATOM      9  C   UNL     1       3.208   2.970   0.552  0.00  0.00    +0.154 C 
ENDROOT
BRANCH   6  13
ATOM     10  F   UNL     1       1.673  -2.633  -0.353  0.00  0.00    -0.164 F 
ATOM     11  F   UNL     1       3.600  -2.018  -1.149  0.00  0.00    -0.164 F 
ATOM     12  F   UNL     1       3.343  -2.269   1.001  0.00  0.00    -0.164 F 
ATOM     13  C   UNL     1       2.729  -1.799  -0.122  0.00  0.00    +0.437 C 
ENDBRANCH   6  13
BRANCH   8  16
ATOM     14  O   UNL     1      -3.156   1.960  -0.293  0.00  0.00    -0.270 OA
ATOM     15  N   UNL     1      -3.155  -0.314  -0.615  0.00  0.00    -0.300 N 
ATOM     16  C   UNL     1      -2.483   0.905  -0.378  0.00  0.00    +0.252 C 
ATOM     17  H   UNL     1      -2.618  -1.136  -0.680  0.00  0.00    +0.150 HD
BRANCH  15  18
ATOM     18  C   UNL     1      -4.589  -0.422  -0.766  0.00  0.00    +0.101 C 
BRANCH  18  19
ATOM     19  C   UNL     1      -5.311  -0.662   0.552  0.00  0.00    +0.075 C 
BRANCH  19  20
ATOM     20  S   UNL     1      -4.801  -2.220   1.341  0.00  0.00    -0.166 S 
ATOM     21  H   UNL     1      -5.477  -2.378   2.511  0.00  0.00    +0.102 HD
ENDBRANCH  19  20
ENDBRANCH  18  19
ENDBRANCH  15  18
ENDBRANCH   8  16
TORSDOF 5
