REMARK  Name = 46937083
REMARK  10 active torsions:
REMARK  status: ('A' for Active; 'I' for Inactive)
REMARK    1  A    between atoms: N_1  and  C_13
REMARK    2  A    between atoms: C_5  and  N_20
REMARK    3  A    between atoms: C_21  and  C_23
REMARK    4  A    between atoms: C_23  and  C_24
REMARK    5  A    between atoms: C_24  and  S_25
REMARK    6  A    between atoms: S_25  and  C_26
REMARK    7  A    between atoms: C_26  and  C_27
REMARK    8  A    between atoms: C_27  and  N_28
REMARK    9  A    between atoms: C_27  and  C_33
REMARK   10  A    between atoms: C_33  and  O_34
REMARK                            x       y       z     vdW  Elec       q    Type
REMARK                         _______ _______ _______ _____ _____    ______ ____
ROOT
ATOM      1  N   UNK     1      -4.194   0.627   0.525  0.00  0.00    -0.301 N 
ATOM      2  N   UNK     1      -3.794  -3.349  -0.556  0.00  0.00    -0.248 NA
ATOM      3  N   UNK     1      -5.168  -1.422  -0.100  0.00  0.00    -0.233 NA
ATOM      4  C   UNK     1      -2.761  -1.279   0.077  0.00  0.00    +0.117 C 
ATOM      5  C   UNK     1      -0.349  -1.145   0.251  0.00  0.00    +0.047 C 
ATOM      6  C   UNK     1      -1.597  -0.539   0.348  0.00  0.00    +0.001 C 
ATOM      7  C   UNK     1      -2.688  -2.631  -0.294  0.00  0.00    +0.067 C 
ATOM      8  C   UNK     1      -4.040  -0.733   0.155  0.00  0.00    +0.115 C 
ATOM      9  C   UNK     1      -0.263  -2.483  -0.116  0.00  0.00    +0.016 C 
ATOM     10  C   UNK     1      -1.425  -3.213  -0.384  0.00  0.00    +0.016 C 
ATOM     11  C   UNK     1      -4.974  -2.705  -0.445  0.00  0.00    +0.251 C 
ATOM     12  H   UNK     1      -3.487   0.958   1.125  0.00  0.00    +0.153 HD
ENDROOT
BRANCH   1  13
ATOM     13  C   UNK     1      -5.159   1.593   0.200  0.00  0.00    +0.049 C 
ATOM     14  C   UNK     1      -5.465   2.606   1.109  0.00  0.00    +0.015 C 
ATOM     15  C   UNK     1      -5.814   1.538  -1.030  0.00  0.00    +0.015 C 
ATOM     16  C   UNK     1      -6.424   3.566   0.786  0.00  0.00    +0.001 C 
ATOM     17  C   UNK     1      -6.773   2.498  -1.353  0.00  0.00    +0.001 C 
ATOM     18  C   UNK     1      -7.078   3.512  -0.445  0.00  0.00    +0.000 C 
ENDBRANCH   1  13
BRANCH   5  20
ATOM     19  O   UNK     1       2.535  -1.980   0.179  0.00  0.00    -0.275 OA
ATOM     20  N   UNK     1       0.810  -0.416   0.518  0.00  0.00    -0.284 N 
ATOM     21  C   UNK     1       2.143  -0.854   0.470  0.00  0.00    +0.227 C 
ATOM     22  H   UNK     1       0.676   0.526   0.773  0.00  0.00    +0.155 HD
BRANCH  21  23
ATOM     23  C   UNK     1       3.106   0.268   0.836  0.00  0.00    +0.097 C 
BRANCH  23  24
ATOM     24  C   UNK     1       4.561  -0.183   0.791  0.00  0.00    +0.067 C 
BRANCH  24  25
ATOM     25  S   UNK     1       5.671   1.188   1.219  0.00  0.00    -0.141 S 
BRANCH  25  26
ATOM     26  C   UNK     1       7.244   0.311   1.065  0.00  0.00    +0.047 C 
BRANCH  26  27
ATOM     27  C   UNK     1       7.727   0.253  -0.385  0.00  0.00    +0.047 C 
BRANCH  27  28
ATOM     28  N   UNK     1       8.720  -0.812  -0.540  0.00  0.00    +0.389 N 
ATOM     29  H   UNK     1       8.313  -1.701  -0.250  0.00  0.00    -0.088 HD
ATOM     30  H   UNK     1       9.533  -0.605   0.040  0.00  0.00    -0.088 HD
ATOM     31  H   UNK     1       9.005  -0.871  -1.517  0.00  0.00    -0.088 HD
ENDBRANCH  27  28
BRANCH  27  33
ATOM     32  O   UNK     1       9.564   1.800  -0.663  0.00  0.00    -0.253 OA
ATOM     33  C   UNK     1       8.376   1.551  -0.827  0.00  0.00    +0.294 C 
BRANCH  33  34
ATOM     34  O   UNK     1       7.511   2.431  -1.391  0.00  0.00    -0.482 OA
ATOM     35  H   UNK     1       6.609   2.199  -1.498  0.00  0.00    +0.295 HD
ENDBRANCH  33  34
ENDBRANCH  27  33
ENDBRANCH  26  27
ENDBRANCH  25  26
ENDBRANCH  24  25
ENDBRANCH  23  24
ENDBRANCH  21  23
ENDBRANCH   5  20
TORSDOF 10
