REMARK  Name = 444607
REMARK  6 active torsions:
REMARK  status: ('A' for Active; 'I' for Inactive)
REMARK    1  A    between atoms: S_1  and  C_5
REMARK    2  A    between atoms: S_1  and  N_15
REMARK    3  A    between atoms: C_6  and  S_9
REMARK    4  A    between atoms: S_9  and  N_12
REMARK    5  A    between atoms: N_15  and  C_17
REMARK    6  A    between atoms: C_17  and  C_18
REMARK                            x       y       z     vdW  Elec       q    Type
REMARK                         _______ _______ _______ _____ _____    ______ ____
ROOT
ATOM      1  S   UNL     1      -2.797   1.385   0.275  0.00  0.00    +0.066 S 
ATOM      2  O   UNL     1      -2.856   2.358   1.349  0.00  0.00    -0.152 OA
ATOM      3  O   UNL     1      -3.625   1.517  -0.908  0.00  0.00    -0.152 OA
ENDROOT
BRANCH   1   5
ATOM      4  S   UNL     1       0.069   1.488   0.839  0.00  0.00    -0.047 S 
ATOM      5  C   UNL     1      -1.126   1.484  -0.367  0.00  0.00    +0.153 C 
ATOM      6  C   UNL     1       1.299   1.588  -0.348  0.00  0.00    +0.152 C 
ATOM      7  C   UNL     1      -0.640   1.554  -1.629  0.00  0.00    +0.029 C 
ATOM      8  C   UNL     1       0.783   1.615  -1.625  0.00  0.00    +0.028 C 
BRANCH   6   9
ATOM      9  S   UNL     1       2.936   1.635   0.290  0.00  0.00    +0.063 S 
ATOM     10  O   UNL     1       3.739   2.315  -0.719  0.00  0.00    -0.153 OA
ATOM     11  O   UNL     1       2.804   2.190   1.631  0.00  0.00    -0.153 OA
BRANCH   9  12
ATOM     12  N   UNL     1       3.519   0.025   0.426  0.00  0.00    -0.203 NA
ATOM     13  H   UNL     1       4.470   0.037   0.795  0.00  0.00    +0.144 HD
ATOM     14  H   UNL     1       3.518  -0.416  -0.494  0.00  0.00    +0.144 HD
ENDBRANCH   9  12
ENDBRANCH   6   9
ENDBRANCH   1   5
BRANCH   1  15
ATOM     15  N   UNL     1      -3.000  -0.186   0.917  0.00  0.00    -0.174 NA
ATOM     16  H   UNL     1      -3.943  -0.238   1.301  0.00  0.00    +0.149 HD
BRANCH  15  17
ATOM     17  C   UNL     1      -2.833  -1.337  -0.004  0.00  0.00    +0.118 C 
BRANCH  17  18
ATOM     18  C   UNL     1      -1.440  -1.871  -0.010  0.00  0.00    -0.005 C 
ATOM     19  C   UNL     1      -0.763  -2.067   1.193  0.00  0.00    -0.003 C 
ATOM     20  C   UNL     1      -0.816  -2.175  -1.220  0.00  0.00    -0.003 C 
ATOM     21  C   UNL     1       1.164  -2.871  -0.022  0.00  0.00    -0.022 C 
ATOM     22  C   UNL     1       0.539  -2.567   1.187  0.00  0.00    -0.005 C 
ATOM     23  C   UNL     1       0.487  -2.675  -1.226  0.00  0.00    -0.005 C 
ATOM     24  C   UNL     1       2.557  -3.404  -0.029  0.00  0.00    +0.031 C 
ENDBRANCH  17  18
ENDBRANCH  15  17
ENDBRANCH   1  15
TORSDOF 6
