REMARK  Name = 25134253
REMARK  9 active torsions:
REMARK  status: ('A' for Active; 'I' for Inactive)
REMARK    1  A    between atoms: N_1  and  C_17
REMARK    2  A    between atoms: C_2  and  N_9
REMARK    3  A    between atoms: C_10  and  C_12
REMARK    4  A    between atoms: C_12  and  C_13
REMARK    5  A    between atoms: C_13  and  C_14
REMARK    6  A    between atoms: C_14  and  S_15
REMARK    7  A    between atoms: C_17  and  C_19
REMARK    8  A    between atoms: C_20  and  O_25
REMARK    9  A    between atoms: C_22  and  O_27
REMARK                            x       y       z     vdW  Elec       q    Type
REMARK                         _______ _______ _______ _____ _____    ______ ____
ROOT
ATOM      1  N   UNL     1       0.013  -1.141   0.956  0.00  0.00    +0.390 N 
ATOM      2  C   UNL     1       2.580  -1.843  -0.290  0.00  0.00    +0.067 C 
ATOM      3  C   UNL     1       1.464  -1.121  -1.049  0.00  0.00    -0.003 C 
ATOM      4  C   UNL     1       1.994  -2.623   0.888  0.00  0.00    -0.003 C 
ATOM      5  C   UNL     1       0.567  -0.303  -0.115  0.00  0.00    -0.075 C 
ATOM      6  C   UNL     1       1.079  -1.755   1.758  0.00  0.00    -0.075 C 
ATOM      7  H   UNL     1      -0.524  -1.892   0.521  0.00  0.00    -0.079 HD
ENDROOT
BRANCH   2   9
ATOM      8  O   UNL     1       4.926  -0.971  -1.753  0.00  0.00    -0.275 OA
ATOM      9  N   UNL     1       3.595  -0.913   0.152  0.00  0.00    -0.306 N 
ATOM     10  C   UNL     1       4.690  -0.554  -0.622  0.00  0.00    +0.222 C 
ATOM     11  H   UNL     1       3.506  -0.515   1.048  0.00  0.00    +0.149 HD
BRANCH  10  12
ATOM     12  C   UNL     1       5.582   0.442   0.101  0.00  0.00    +0.086 C 
BRANCH  12  13
ATOM     13  C   UNL     1       4.844   1.734   0.455  0.00  0.00    +0.021 C 
BRANCH  13  14
ATOM     14  C   UNL     1       4.291   2.483  -0.757  0.00  0.00    +0.054 C 
BRANCH  14  15
ATOM     15  S   UNL     1       3.406   4.007  -0.314  0.00  0.00    -0.168 S 
ATOM     16  H   UNL     1       2.948   4.611  -1.444  0.00  0.00    +0.102 HD
ENDBRANCH  14  15
ENDBRANCH  13  14
ENDBRANCH  12  13
ENDBRANCH  10  12
ENDBRANCH   2   9
BRANCH   1  17
ATOM     17  C   UNL     1      -0.882  -0.358   1.808  0.00  0.00    -0.047 C 
BRANCH  17  19
ATOM     18 BR   UNL     1      -3.543   4.019   0.265  0.00  0.00    -0.049 Br
ATOM     19  C   UNL     1      -2.037   0.215   1.031  0.00  0.00    -0.006 C 
ATOM     20  C   UNL     1      -2.914  -0.618   0.337  0.00  0.00    +0.166 C 
ATOM     21  C   UNL     1      -2.224   1.597   1.010  0.00  0.00    +0.004 C 
ATOM     22  C   UNL     1      -3.978  -0.070  -0.379  0.00  0.00    +0.172 C 
ATOM     23  C   UNL     1      -3.288   2.146   0.294  0.00  0.00    +0.037 C 
ATOM     24  C   UNL     1      -4.165   1.312  -0.401  0.00  0.00    +0.047 C 
BRANCH  20  25
ATOM     25  O   UNL     1      -2.734  -1.970   0.355  0.00  0.00    -0.469 OA
ATOM     26  C   UNL     1      -2.521  -2.611  -0.900  0.00  0.00    +0.253 C 
ENDBRANCH  20  25
BRANCH  22  27
ATOM     27  O   UNL     1      -4.841  -0.873  -1.062  0.00  0.00    -0.468 OA
ATOM     28  C   UNL     1      -5.902  -0.231  -1.768  0.00  0.00    +0.253 C 
ENDBRANCH  22  27
ENDBRANCH  17  19
ENDBRANCH   1  17
TORSDOF 9
