REMARK  Name = 6854
REMARK  0 active torsions:
REMARK  status: ('A' for Active; 'I' for Inactive)
REMARK                            x       y       z     vdW  Elec       q    Type
REMARK                         _______ _______ _______ _____ _____    ______ ____
ROOT
ATOM      1  N   UNL     1       0.000   1.635   0.000  0.00  0.00    -0.353 N 
ATOM      2  C   UNL     1      -0.716  -0.477   0.000  0.00  0.00    +0.017 A 
ATOM      3  C   UNL     1       0.716  -0.477   0.000  0.00  0.00    +0.017 A 
ATOM      4  C   UNL     1      -1.132   0.855   0.000  0.00  0.00    +0.057 A 
ATOM      5  C   UNL     1       1.132   0.855   0.000  0.00  0.00    +0.057 A 
ATOM      6  C   UNL     1      -1.697  -1.490   0.000  0.00  0.00    +0.001 C 
ATOM      7  C   UNL     1       1.697  -1.490   0.000  0.00  0.00    +0.001 C 
ATOM      8  C   UNL     1      -2.481   1.226   0.000  0.00  0.00    +0.017 C 
ATOM      9  C   UNL     1       2.481   1.226   0.000  0.00  0.00    +0.017 C 
ATOM     10  C   UNL     1      -3.050  -1.135   0.000  0.00  0.00    +0.000 C 
ATOM     11  C   UNL     1       3.050  -1.135   0.000  0.00  0.00    +0.000 C 
ATOM     12  C   UNL     1      -3.435   0.204  -0.001  0.00  0.00    +0.001 C 
ATOM     13  C   UNL     1       3.435   0.204  -0.001  0.00  0.00    +0.001 C 
ATOM     14  H   UNL     1       0.000   2.620   0.001  0.00  0.00    +0.166 HD
ENDROOT
TORSDOF 0
