9543486
  -OEChem-10051721043D

 48 50  0     1  0  0  0  0  0999 V2000
    3.5614   -0.7474   -0.3100 S   0  0  0  0  0  0  0  0  0  0  0  0
    0.1960   -3.5290   -0.6662 O   0  0  0  0  0  0  0  0  0  0  0  0
    4.3246   -0.7322   -1.5433 O   0  0  0  0  0  0  0  0  0  0  0  0
    4.2316   -0.5761    0.9649 O   0  0  0  0  0  0  0  0  0  0  0  0
    2.6175   -2.1574   -0.2464 N   0  0  0  0  0  0  0  0  0  0  0  0
   -0.8416   -1.5785    2.3252 N   0  0  0  0  0  0  0  0  0  0  0  0
   -0.8443   -2.6898    1.3645 C   0  0  2  0  0  0  0  0  0  0  0  0
    0.2333   -2.4584    0.2783 C   0  0  1  0  0  0  0  0  0  0  0  0
    1.6461   -2.3457    0.8582 C   0  0  0  0  0  0  0  0  0  0  0  0
   -2.2707   -2.8380    0.7908 C   0  0  0  0  0  0  0  0  0  0  0  0
   -2.7362   -1.6360    0.0043 C   0  0  0  0  0  0  0  0  0  0  0  0
    2.3272    0.5136   -0.4170 C   0  0  0  0  0  0  0  0  0  0  0  0
    1.8261    1.0691    0.7479 C   0  0  0  0  0  0  0  0  0  0  0  0
    0.8447    2.0714    0.6799 C   0  0  0  0  0  0  0  0  0  0  0  0
   -3.4010   -0.6118    0.6596 C   0  0  0  0  0  0  0  0  0  0  0  0
   -2.4895   -1.5789   -1.3582 C   0  0  0  0  0  0  0  0  0  0  0  0
    1.8859    0.9206   -1.6606 C   0  0  0  0  0  0  0  0  0  0  0  0
    0.3808    2.5012   -0.5861 C   0  0  0  0  0  0  0  0  0  0  0  0
    0.9117    1.9154   -1.7469 C   0  0  0  0  0  0  0  0  0  0  0  0
   -3.8308    0.4988   -0.0669 C   0  0  0  0  0  0  0  0  0  0  0  0
   -2.9192   -0.4682   -2.0845 C   0  0  0  0  0  0  0  0  0  0  0  0
    0.3143    2.6573    1.8408 C   0  0  0  0  0  0  0  0  0  0  0  0
   -0.6007    3.5034   -0.6540 C   0  0  0  0  0  0  0  0  0  0  0  0
   -3.5900    0.5706   -1.4387 C   0  0  0  0  0  0  0  0  0  0  0  0
   -0.6604    3.6519    1.7547 C   0  0  0  0  0  0  0  0  0  0  0  0
   -1.1170    4.0740    0.5098 C   0  0  0  0  0  0  0  0  0  0  0  0
   -0.6175   -3.6186    1.9027 H   0  0  0  0  0  0  0  0  0  0  0  0
    0.0193   -1.5360   -0.2733 H   0  0  0  0  0  0  0  0  0  0  0  0
    1.9177   -3.2887    1.3480 H   0  0  0  0  0  0  0  0  0  0  0  0
    1.7382   -1.5584    1.6065 H   0  0  0  0  0  0  0  0  0  0  0  0
   -2.3226   -3.7308    0.1535 H   0  0  0  0  0  0  0  0  0  0  0  0
   -2.9802   -3.0340    1.6070 H   0  0  0  0  0  0  0  0  0  0  0  0
    2.6010   -2.8203   -1.0291 H   0  0  0  0  0  0  0  0  0  0  0  0
   -0.8218   -0.6874    1.8307 H   0  0  0  0  0  0  0  0  0  0  0  0
    0.0081   -1.6069    2.8863 H   0  0  0  0  0  0  0  0  0  0  0  0
    0.7013   -3.2497   -1.4479 H   0  0  0  0  0  0  0  0  0  0  0  0
    2.1845    0.7444    1.7215 H   0  0  0  0  0  0  0  0  0  0  0  0
   -3.5999   -0.6579    1.7264 H   0  0  0  0  0  0  0  0  0  0  0  0
   -1.9784   -2.3844   -1.8764 H   0  0  0  0  0  0  0  0  0  0  0  0
    2.2701    0.4820   -2.5764 H   0  0  0  0  0  0  0  0  0  0  0  0
    0.5677    2.2281   -2.7306 H   0  0  0  0  0  0  0  0  0  0  0  0
   -4.3526    1.3078    0.4358 H   0  0  0  0  0  0  0  0  0  0  0  0
   -2.7329   -0.4126   -3.1530 H   0  0  0  0  0  0  0  0  0  0  0  0
    0.6555    2.3421    2.8247 H   0  0  0  0  0  0  0  0  0  0  0  0
   -0.9733    3.8479   -1.6165 H   0  0  0  0  0  0  0  0  0  0  0  0
   -3.9235    1.4359   -2.0041 H   0  0  0  0  0  0  0  0  0  0  0  0
   -1.0632    4.0960    2.6603 H   0  0  0  0  0  0  0  0  0  0  0  0
   -1.8766    4.8475    0.4434 H   0  0  0  0  0  0  0  0  0  0  0  0
  1  3  2  0  0  0  0
  1  4  2  0  0  0  0
  1  5  1  0  0  0  0
  1 12  1  0  0  0  0
  2  8  1  0  0  0  0
  2 36  1  0  0  0  0
  5  9  1  0  0  0  0
  5 33  1  0  0  0  0
  6  7  1  0  0  0  0
  6 34  1  0  0  0  0
  6 35  1  0  0  0  0
  7  8  1  0  0  0  0
  7 10  1  0  0  0  0
  7 27  1  0  0  0  0
  8  9  1  0  0  0  0
  8 28  1  0  0  0  0
  9 29  1  0  0  0  0
  9 30  1  0  0  0  0
 10 11  1  0  0  0  0
 10 31  1  0  0  0  0
 10 32  1  0  0  0  0
 11 15  2  0  0  0  0
 11 16  1  0  0  0  0
 12 13  2  0  0  0  0
 12 17  1  0  0  0  0
 13 14  1  0  0  0  0
 13 37  1  0  0  0  0
 14 18  1  0  0  0  0
 14 22  2  0  0  0  0
 15 20  1  0  0  0  0
 15 38  1  0  0  0  0
 16 21  2  0  0  0  0
 16 39  1  0  0  0  0
 17 19  2  0  0  0  0
 17 40  1  0  0  0  0
 18 19  1  0  0  0  0
 18 23  2  0  0  0  0
 19 41  1  0  0  0  0
 20 24  2  0  0  0  0
 20 42  1  0  0  0  0
 21 24  1  0  0  0  0
 21 43  1  0  0  0  0
 22 25  1  0  0  0  0
 22 44  1  0  0  0  0
 23 26  1  0  0  0  0
 23 45  1  0  0  0  0
 24 46  1  0  0  0  0
 25 26  2  0  0  0  0
 25 47  1  0  0  0  0
 26 48  1  0  0  0  0
M  END
> <DATABASE_ID>
DB07522

> <DATABASE_NAME>
drugbank

> <ORIGINAL_SOURCE>
PUBCHEM

> <ORIGINAL_SOURCE_URL>
https://pubchem.ncbi.nlm.nih.gov/rest/pug/compound/inchikey/QSSWSEQPKCCATQ-VQTJNVASSA-N/SDF?record_type=3d

> <SMILES>
[H][C@](N)(CC1=CC=CC=C1)[C@]([H])(O)CNS(=O)(=O)C1=CC=C2C=CC=CC2=C1

> <INCHI_IDENTIFIER>
InChI=1S/C20H22N2O3S/c21-19(12-15-6-2-1-3-7-15)20(23)14-22-26(24,25)18-11-10-16-8-4-5-9-17(16)13-18/h1-11,13,19-20,22-23H,12,14,21H2/t19-,20+/m0/s1

> <INCHI_KEY>
QSSWSEQPKCCATQ-VQTJNVASSA-N

> <FORMULA>
C20H22N2O3S

> <MOLECULAR_WEIGHT>
370.465

> <EXACT_MASS>
370.13511327

> <JCHEM_ACCEPTOR_COUNT>
4

> <JCHEM_AVERAGE_POLARIZABILITY>
39.56693125037709

> <JCHEM_BIOAVAILABILITY>
1

> <JCHEM_DONOR_COUNT>
3

> <JCHEM_FORMAL_CHARGE>
0

> <JCHEM_GHOSE_FILTER>
1

> <JCHEM_IUPAC>
(2R,3S)-3-amino-2-hydroxy-S-(naphthalen-2-yl)-4-phenylbutane-1-sulfonamido

> <ALOGPS_LOGP>
1.66

> <JCHEM_LOGP>
2.1718091866001004

> <ALOGPS_LOGS>
-4.51

> <JCHEM_MDDR_LIKE_RULE>
1

> <JCHEM_NUMBER_OF_RINGS>
3

> <JCHEM_PHYSIOLOGICAL_CHARGE>
1

> <JCHEM_PKA>
14.096698947239307

> <JCHEM_PKA_STRONGEST_ACIDIC>
10.105388034673219

> <JCHEM_PKA_STRONGEST_BASIC>
8.980095521511586

> <JCHEM_POLAR_SURFACE_AREA>
92.41999999999999

> <JCHEM_REFRACTIVITY>
102.51290000000002

> <JCHEM_ROTATABLE_BOND_COUNT>
6

> <JCHEM_RULE_OF_FIVE>
1

> <ALOGPS_SOLUBILITY>
1.15e-02 g/l

> <JCHEM_TRADITIONAL_IUPAC>
(2R,3S)-3-amino-2-hydroxy-S-(naphthalen-2-yl)-4-phenylbutane-1-sulfonamido

> <JCHEM_VEBER_RULE>
0

> <DRUGBANK_ID>
DB07522

> <DRUG_GROUPS>
experimental

> <GENERIC_NAME>
N-[(2R,3S)-3-AMINO-2-HYDROXY-4-PHENYLBUTYL]NAPHTHALENE-2-SULFONAMIDE

$$$$
