REMARK  Name = 446532
REMARK  3 active torsions:
REMARK  status: ('A' for Active; 'I' for Inactive)
REMARK    1  A    between atoms: C_1  and  C_2
REMARK    2  A    between atoms: C_1  and  N_9
REMARK    3  A    between atoms: C_1  and  C_12
REMARK                            x       y       z     vdW  Elec       q    Type
REMARK                         _______ _______ _______ _____ _____    ______ ____
ROOT
ATOM      1  C   UNL     1       1.024   0.405  -0.189  0.00  0.00    +0.094 C 
ENDROOT
BRANCH   1   2
ATOM      2  C   UNL     1      -0.477   0.226  -0.085  0.00  0.00    -0.005 C 
ATOM      3  C   UNL     1      -1.028  -0.150   1.126  0.00  0.00    -0.003 C 
ATOM      4  C   UNL     1      -1.260   0.445  -1.204  0.00  0.00    -0.003 C 
ATOM      5  C   UNL     1      -2.410  -0.314   1.222  0.00  0.00    -0.000 C 
ATOM      6  C   UNL     1      -2.642   0.281  -1.108  0.00  0.00    -0.000 C 
ATOM      7  C   UNL     1      -3.217  -0.098   0.105  0.00  0.00    -0.000 C 
ENDBRANCH   1   2
BRANCH   1   9
ATOM      8  O   UNL     1       1.850  -2.326  -0.872  0.00  0.00    -0.265 OA
ATOM      9  N   UNL     1       1.709  -0.555   0.648  0.00  0.00    -0.295 N 
ATOM     10  C   UNL     1       2.051  -1.819   0.224  0.00  0.00    +0.300 C 
ATOM     11  H   UNL     1       1.941  -0.291   1.568  0.00  0.00    +0.150 HD
ENDBRANCH   1   9
BRANCH   1  12
ATOM     12  C   UNL     1       1.449   1.847   0.137  0.00  0.00    +0.024 C 
ATOM     13  C   UNL     1       2.951   2.059  -0.003  0.00  0.00    +0.002 C 
ENDBRANCH   1  12
TORSDOF 3
