REMARK  Name = 9543521
REMARK  8 active torsions:
REMARK  status: ('A' for Active; 'I' for Inactive)
REMARK    1  A    between atoms: N_2  and  C_16
REMARK    2  A    between atoms: C_3  and  C_6
REMARK    3  A    between atoms: C_8  and  O_13
REMARK    4  A    between atoms: C_9  and  C_12
REMARK    5  A    between atoms: O_13  and  C_14
REMARK    6  A    between atoms: C_16  and  C_17
REMARK    7  A    between atoms: C_18  and  O_23
REMARK    8  A    between atoms: C_20  and  O_25
REMARK                            x       y       z     vdW  Elec       q    Type
REMARK                         _______ _______ _______ _____ _____    ______ ____
ROOT
ATOM      1  O   UNL     1      -0.179  -3.080   0.669  0.00  0.00    -0.267 OA
ATOM      2  N   UNL     1       0.379  -0.869   1.097  0.00  0.00    -0.295 N 
ATOM      3  C   UNL     1      -0.475  -1.888   0.697  0.00  0.00    +0.276 C 
ATOM      4  H   UNL     1       0.047   0.058   1.084  0.00  0.00    +0.150 HD
ENDROOT
BRANCH   3   6
ATOM      5  N   UNL     1      -2.041  -0.147   0.300  0.00  0.00    -0.366 NA
ATOM      6  C   UNL     1      -1.829  -1.467   0.252  0.00  0.00    +0.187 C 
ATOM      7  C   UNL     1      -2.722  -2.421  -0.157  0.00  0.00    +0.034 C 
ATOM      8  C   UNL     1      -3.268   0.252  -0.102  0.00  0.00    +0.271 C 
ATOM      9  C   UNL     1      -4.261  -0.612  -0.537  0.00  0.00    +0.202 C 
ATOM     10  C   UNL     1      -3.974  -1.972  -0.562  0.00  0.00    +0.002 C 
BRANCH   9  12
ATOM     11  N   UNL     1      -6.589   0.239  -1.292  0.00  0.00    -0.195 NA
ATOM     12  C   UNL     1      -5.544  -0.143  -0.953  0.00  0.00    +0.087 C 
ENDBRANCH   9  12
BRANCH   8  13
ATOM     13  O   UNL     1      -3.503   1.602  -0.060  0.00  0.00    -0.454 OA
BRANCH  13  14
ATOM     14  C   UNL     1      -2.436   2.422   0.399  0.00  0.00    +0.208 C 
ATOM     15  C   UNL     1      -2.875   3.870   0.361  0.00  0.00    +0.051 C 
ENDBRANCH  13  14
ENDBRANCH   8  13
ENDBRANCH   3   6
BRANCH   2  16
ATOM     16  C   UNL     1       1.730  -1.115   1.531  0.00  0.00    +0.120 C 
BRANCH  16  17
ATOM     17  C   UNL     1       2.732  -0.368   0.715  0.00  0.00    +0.034 C 
ATOM     18  C   UNL     1       2.531   0.975   0.396  0.00  0.00    +0.136 C 
ATOM     19  C   UNL     1       3.879  -1.026   0.272  0.00  0.00    +0.037 C 
ATOM     20  C   UNL     1       4.825  -0.342  -0.491  0.00  0.00    +0.139 C 
ATOM     21  C   UNL     1       3.477   1.660  -0.368  0.00  0.00    +0.040 C 
ATOM     22  C   UNL     1       4.624   1.001  -0.811  0.00  0.00    +0.040 C 
BRANCH  18  23
ATOM     23  O   UNL     1       1.416   1.633   0.820  0.00  0.00    -0.472 OA
ATOM     24  C   UNL     1       1.291   3.004   0.448  0.00  0.00    +0.252 C 
ENDBRANCH  18  23
BRANCH  20  25
ATOM     25  O   UNL     1       5.944  -0.984  -0.924  0.00  0.00    -0.471 OA
ATOM     26  C   UNL     1       6.870  -0.225  -1.700  0.00  0.00    +0.252 C 
ENDBRANCH  20  25
ENDBRANCH  16  17
ENDBRANCH   2  16
TORSDOF 8
