REMARK  Name = 3034285
REMARK  9 active torsions:
REMARK  status: ('A' for Active; 'I' for Inactive)
REMARK    1  A    between atoms: O_1  and  C_4
REMARK    2  A    between atoms: O_1  and  C_18
REMARK    3  A    between atoms: C_6  and  O_8
REMARK    4  A    between atoms: O_8  and  C_9
REMARK    5  A    between atoms: C_10  and  C_16
REMARK    6  A    between atoms: C_17  and  C_23
REMARK    7  A    between atoms: C_23  and  C_28
REMARK    8  A    between atoms: C_24  and  O_25
REMARK    9  A    between atoms: C_28  and  O_29
REMARK                            x       y       z     vdW  Elec       q    Type
REMARK                         _______ _______ _______ _____ _____    ______ ____
ROOT
ATOM      1  O   UNL     1      -1.427   0.214   0.815  0.00  0.00    -0.440 OA
ENDROOT
BRANCH   1   4
ATOM      2  N   UNL     1      -0.076  -0.284  -1.002  0.00  0.00    -0.214 NA
ATOM      3  N   UNL     1       2.309  -0.488  -0.719  0.00  0.00    -0.214 NA
ATOM      4  C   UNL     1      -0.160  -0.021   0.312  0.00  0.00    +0.213 C 
ATOM      5  C   UNL     1       0.910   0.029   1.171  0.00  0.00    +0.170 C 
ATOM      6  C   UNL     1       2.139  -0.216   0.592  0.00  0.00    +0.213 C 
ATOM      7  C   UNL     1       1.176  -0.506  -1.447  0.00  0.00    +0.256 C 
BRANCH   6   8
ATOM      8  O   UNL     1       3.264  -0.186   1.373  0.00  0.00    -0.439 OA
BRANCH   8   9
ATOM      9  C   UNL     1       4.473  -0.435   0.754  0.00  0.00    +0.156 C 
ATOM     10  C   UNL     1       5.216   0.601   0.213  0.00  0.00    +0.103 C 
ATOM     11  C   UNL     1       4.918  -1.747   0.693  0.00  0.00    +0.038 C 
ATOM     12  C   UNL     1       6.434   0.320  -0.405  0.00  0.00    +0.013 C 
ATOM     13  C   UNL     1       6.137  -2.029   0.075  0.00  0.00    +0.003 C 
ATOM     14  C   UNL     1       6.895  -0.995  -0.474  0.00  0.00    +0.001 C 
BRANCH  10  16
ATOM     15  N   UNL     1       4.393   3.055   0.323  0.00  0.00    -0.191 NA
ATOM     16  C   UNL     1       4.761   1.957   0.274  0.00  0.00    +0.103 C 
ENDBRANCH  10  16
ENDBRANCH   8   9
ENDBRANCH   6   8
ENDBRANCH   1   4
BRANCH   1  18
ATOM     17  C   UNL     1      -3.465   0.606  -0.396  0.00  0.00    +0.044 C 
ATOM     18  C   UNL     1      -2.247   1.040   0.104  0.00  0.00    +0.147 C 
ATOM     19  C   UNL     1      -4.289   1.458  -1.117  0.00  0.00    +0.003 C 
ATOM     20  C   UNL     1      -1.842   2.356  -0.122  0.00  0.00    +0.038 C 
ATOM     21  C   UNL     1      -3.884   2.773  -1.343  0.00  0.00    +0.000 C 
ATOM     22  C   UNL     1      -2.661   3.223  -0.846  0.00  0.00    +0.003 C 
BRANCH  17  23
ATOM     23  C   UNL     1      -3.915  -0.778  -0.170  0.00  0.00    +0.115 C 
ATOM     24  C   UNL     1      -3.607  -1.751  -1.042  0.00  0.00    +0.179 C 
BRANCH  24  25
ATOM     25  O   UNL     1      -2.872  -1.562  -2.184  0.00  0.00    -0.468 OA
ATOM     26  C   UNL     1      -2.144  -2.731  -2.522  0.00  0.00    +0.253 C 
ENDBRANCH  24  25
BRANCH  23  28
ATOM     27  O   UNL     1      -5.101  -2.315   1.251  0.00  0.00    -0.245 OA
ATOM     28  C   UNL     1      -4.709  -1.178   1.028  0.00  0.00    +0.345 C 
BRANCH  28  29
ATOM     29  O   UNL     1      -4.931  -0.088   1.813  0.00  0.00    -0.441 OA
ATOM     30  C   UNL     1      -5.694  -0.324   3.001  0.00  0.00    +0.256 C 
ENDBRANCH  28  29
ENDBRANCH  23  28
ENDBRANCH  17  23
ENDBRANCH   1  18
TORSDOF 9
