REMARK  Name = 6540255
REMARK  4 active torsions:
REMARK  status: ('A' for Active; 'I' for Inactive)
REMARK    1  A    between atoms: N_3  and  C_22
REMARK    2  A    between atoms: C_22  and  C_23
REMARK    3  A    between atoms: C_23  and  C_24
REMARK    4  A    between atoms: C_24  and  N_25
REMARK                            x       y       z     vdW  Elec       q    Type
REMARK                         _______ _______ _______ _____ _____    ______ ____
ROOT
ATOM      1  O   UNL     1      -2.622   2.542  -0.490  0.00  0.00    -0.270 OA
ATOM      2  O   UNL     1      -4.859  -1.469  -0.187  0.00  0.00    -0.270 OA
ATOM      3  N   UNL     1       1.492  -0.591   0.522  0.00  0.00    -0.327 N 
ATOM      4  N   UNL     1      -4.069   0.718  -0.409  0.00  0.00    -0.248 N 
ATOM      5  C   UNL     1      -0.481   0.379   0.115  0.00  0.00    +0.022 A 
ATOM      6  C   UNL     1       0.150  -0.846   0.383  0.00  0.00    +0.060 A 
ATOM      7  C   UNL     1       0.541   1.386   0.099  0.00  0.00    +0.017 A 
ATOM      8  C   UNL     1       1.757   0.746   0.355  0.00  0.00    +0.060 A 
ATOM      9  C   UNL     1      -1.869   0.316  -0.058  0.00  0.00    +0.059 C 
ATOM     10  C   UNL     1      -2.554  -0.895   0.033  0.00  0.00    +0.054 C 
ATOM     11  C   UNL     1      -0.540  -2.076   0.476  0.00  0.00    +0.013 C 
ATOM     12  C   UNL     1      -1.925  -2.091   0.296  0.00  0.00    -0.016 C 
ATOM     13  C   UNL     1       0.566   2.783  -0.109  0.00  0.00    -0.003 C 
ATOM     14  C   UNL     1       2.981   1.425   0.414  0.00  0.00    +0.017 C 
ATOM     15  C   UNL     1      -2.854   1.359  -0.344  0.00  0.00    +0.252 C 
ATOM     16  C   UNL     1      -3.975  -0.634  -0.194  0.00  0.00    +0.252 C 
ATOM     17  C   UNL     1       1.782   3.476  -0.053  0.00  0.00    -0.022 C 
ATOM     18  C   UNL     1       2.972   2.804   0.205  0.00  0.00    -0.003 C 
ATOM     19  C   UNL     1      -2.666  -3.379   0.392  0.00  0.00    +0.031 C 
ATOM     20  C   UNL     1       1.799   4.952  -0.273  0.00  0.00    +0.031 C 
ATOM     21  H   UNL     1      -4.919   1.181  -0.591  0.00  0.00    +0.158 HD
ENDROOT
BRANCH   3  22
ATOM     22  C   UNL     1       2.495  -1.598   0.806  0.00  0.00    +0.104 C 
BRANCH  22  23
ATOM     23  C   UNL     1       3.077  -2.207  -0.469  0.00  0.00    +0.001 C 
BRANCH  23  24
ATOM     24  C   UNL     1       4.121  -3.272  -0.142  0.00  0.00    -0.084 C 
BRANCH  24  25
ATOM     25  N   UNL     1       4.681  -3.827  -1.368  0.00  0.00    +0.380 N 
ATOM     26  H   UNL     1       5.376  -4.536  -1.134  0.00  0.00    -0.089 HD
ATOM     27  H   UNL     1       5.123  -3.083  -1.908  0.00  0.00    -0.089 HD
ATOM     28  H   UNL     1       3.935  -4.251  -1.921  0.00  0.00    -0.089 HD
ENDBRANCH  24  25
ENDBRANCH  23  24
ENDBRANCH  22  23
ENDBRANCH   3  22
TORSDOF 4
