REMARK  Name = 446716
REMARK  5 active torsions:
REMARK  status: ('A' for Active; 'I' for Inactive)
REMARK    1  A    between atoms: C_1  and  C_15
REMARK    2  A    between atoms: C_2  and  O_13
REMARK    3  A    between atoms: C_4  and  N_9
REMARK    4  A    between atoms: C_5  and  N_12
REMARK    5  A    between atoms: C_15  and  C_18
REMARK                            x       y       z     vdW  Elec       q    Type
REMARK                         _______ _______ _______ _____ _____    ______ ____
ROOT
ATOM      1  C   UNL     1       0.381   0.369   0.725  0.00  0.00    +0.019 C 
ATOM      2  C   UNL     1       1.376   1.225   0.315  0.00  0.00    +0.152 C 
ATOM      3  C   UNL     1       0.474  -0.998   0.603  0.00  0.00    +0.023 C 
ATOM      4  C   UNL     1       2.530   0.683  -0.250  0.00  0.00    +0.178 C 
ATOM      5  C   UNL     1       1.629  -1.540   0.038  0.00  0.00    +0.144 C 
ATOM      6  C   UNL     1       2.657  -0.699  -0.388  0.00  0.00    +0.051 C 
ENDROOT
BRANCH   4   9
ATOM      7  O   UNL     1       4.611   0.999  -1.194  0.00  0.00    -0.126 OA
ATOM      8  O   UNL     1       3.470   2.765  -0.565  0.00  0.00    -0.126 OA
ATOM      9  N   UNL     1       3.589   1.524  -0.691  0.00  0.00    +0.061 N 
ENDBRANCH   4   9
BRANCH   5  12
ATOM     10  O   UNL     1       0.821  -3.685   0.288  0.00  0.00    -0.126 OA
ATOM     11  O   UNL     1       2.804  -3.414  -0.613  0.00  0.00    -0.126 OA
ATOM     12  N   UNL     1       1.757  -2.947  -0.102  0.00  0.00    +0.058 N 
ENDBRANCH   5  12
BRANCH   2  13
ATOM     13  O   UNL     1       1.245   2.577   0.453  0.00  0.00    -0.504 OA
ATOM     14  H   UNL     1       0.467   2.936   0.833  0.00  0.00    +0.292 HD
ENDBRANCH   2  13
BRANCH   1  15
ATOM     15  C   UNL     1      -0.896   0.945   1.348  0.00  0.00    +0.048 C 
ATOM     16  C   UNL     1      -0.982   0.607   2.858  0.00  0.00    +0.010 C 
BRANCH  15  18
ATOM     17 CL   UNL     1      -5.836  -0.348  -1.808  0.00  0.00    -0.082 Cl
ATOM     18  C   UNL     1      -2.123   0.623   0.564  0.00  0.00    -0.018 C 
ATOM     19  C   UNL     1      -2.452   1.382  -0.559  0.00  0.00    -0.003 C 
ATOM     20  C   UNL     1      -2.943  -0.436   0.953  0.00  0.00    -0.003 C 
ATOM     21  C   UNL     1      -3.600   1.082  -1.293  0.00  0.00    +0.011 C 
ATOM     22  C   UNL     1      -4.091  -0.737   0.220  0.00  0.00    +0.011 C 
ATOM     23  C   UNL     1      -4.419   0.022  -0.903  0.00  0.00    +0.058 C 
ENDBRANCH  15  18
ENDBRANCH   1  15
TORSDOF 5
