REMARK  Name = 11809364
REMARK  4 active torsions:
REMARK  status: ('A' for Active; 'I' for Inactive)
REMARK    1  A    between atoms: C_2  and  N_17
REMARK    2  A    between atoms: C_3  and  C_11
REMARK    3  A    between atoms: C_18  and  O_20
REMARK    4  A    between atoms: O_20  and  C_21
REMARK                            x       y       z     vdW  Elec       q    Type
REMARK                         _______ _______ _______ _____ _____    ______ ____
ROOT
ATOM      1  N   UNL     1       1.473   2.568   0.180  0.00  0.00    -0.238 NA
ATOM      2  C   UNL     1      -0.621   1.397   0.054  0.00  0.00    +0.075 C 
ATOM      3  C   UNL     1       0.748   1.427   0.188  0.00  0.00    +0.148 C 
ATOM      4  C   UNL     1      -1.309   2.586  -0.096  0.00  0.00    +0.018 C 
ATOM      5  C   UNL     1      -0.599   3.781  -0.109  0.00  0.00    +0.022 C 
ATOM      6  C   UNL     1       0.778   3.719   0.032  0.00  0.00    +0.099 C 
ENDROOT
BRANCH   3  11
ATOM      7  S   UNL     1       5.293  -0.359  -0.835  0.00  0.00    -0.051 S 
ATOM      8  O   UNL     1       1.024  -0.756   0.935  0.00  0.00    -0.268 OA
ATOM      9  N   UNL     1       2.837   0.263  -0.161  0.00  0.00    -0.259 N 
ATOM     10  N   UNL     1       3.662  -1.926   0.417  0.00  0.00    -0.222 NA
ATOM     11  C   UNL     1       1.535   0.211   0.350  0.00  0.00    +0.270 C 
ATOM     12  C   UNL     1       3.800  -0.750  -0.112  0.00  0.00    +0.166 C 
ATOM     13  C   UNL     1       5.851  -1.924  -0.409  0.00  0.00    +0.059 C 
ATOM     14  C   UNL     1       4.850  -2.610   0.246  0.00  0.00    +0.108 C 
ATOM     15  H   UNL     1       3.104   1.102  -0.602  0.00  0.00    +0.157 HD
ENDBRANCH   3  11
BRANCH   2  17
ATOM     16  O   UNL     1      -3.564   0.847  -0.200  0.00  0.00    -0.226 OA
ATOM     17  N   UNL     1      -1.337   0.178   0.067  0.00  0.00    -0.248 N 
ATOM     18  C   UNL     1      -2.700  -0.009  -0.055  0.00  0.00    +0.405 C 
ATOM     19  H   UNL     1      -0.797  -0.638   0.177  0.00  0.00    +0.158 HD
BRANCH  18  20
ATOM     20  O   UNL     1      -2.970  -1.352   0.011  0.00  0.00    -0.442 OA
BRANCH  20  21
ATOM     21  C   UNL     1      -4.345  -1.724  -0.099  0.00  0.00    +0.138 C 
ATOM     22  C   UNL     1      -4.873  -1.240  -1.448  0.00  0.00    +0.044 C 
ATOM     23  C   UNL     1      -4.417  -3.247  -0.009  0.00  0.00    +0.044 C 
ATOM     24  C   UNL     1      -5.117  -1.081   1.052  0.00  0.00    +0.044 C 
ENDBRANCH  20  21
ENDBRANCH  18  20
ENDBRANCH   2  17
TORSDOF 4
