REMARK  Name = 46937061
REMARK  16 active torsions:
REMARK  status: ('A' for Active; 'I' for Inactive)
REMARK    1  A    between atoms: C_1  and  O_2
REMARK    2  A    between atoms: C_1  and  C_4
REMARK    3  A    between atoms: C_1  and  C_14
REMARK    4  A    between atoms: C_5  and  C_6
REMARK    5  A    between atoms: C_6  and  C_8
REMARK    6  A    between atoms: C_7  and  C_9
REMARK    7  A    between atoms: C_9  and  C_10
REMARK    8  A    between atoms: C_10  and  C_11
REMARK    9  A    between atoms: C_11  and  C_12
REMARK   10  A    between atoms: C_14  and  C_16
REMARK   11  A    between atoms: C_16  and  C_17
REMARK   12  A    between atoms: C_17  and  C_18
REMARK   13  A    between atoms: C_18  and  C_19
REMARK   14  A    between atoms: C_19  and  C_20
REMARK   15  A    between atoms: C_20  and  C_22
REMARK   16  A    between atoms: C_22  and  O_23
REMARK                            x       y       z     vdW  Elec       q    Type
REMARK                         _______ _______ _______ _____ _____    ______ ____
ROOT
ATOM      1  C   UNL     1       1.838   1.175  -1.112  0.00  0.00    +0.140 C 
ENDROOT
BRANCH   1   2
ATOM      2  O   UNL     1       1.253   1.081  -2.408  0.00  0.00    -0.380 OA
ATOM      3  H   UNL     1       0.348   1.428  -2.381  0.00  0.00    +0.211 HD
ENDBRANCH   1   2
BRANCH   1   4
ATOM      4  C   UNL     1       3.250   0.647  -1.094  0.00  0.00    -0.001 C 
ATOM      5  C   UNL     1       3.848   0.019  -0.070  0.00  0.00    -0.024 C 
BRANCH   5   6
ATOM      6  C   UNL     1       3.177  -0.257   1.245  0.00  0.00    +0.051 C 
BRANCH   6   8
ATOM      7  C   UNL     1       2.110  -2.447   1.840  0.00  0.00    -0.030 C 
ATOM      8  C   UNL     1       3.208  -1.721   1.580  0.00  0.00    -0.026 C 
BRANCH   7   9
ATOM      9  C   UNL     1       0.681  -1.971   1.850  0.00  0.00    +0.026 C 
BRANCH   9  10
ATOM     10  C   UNL     1      -0.293  -2.692   0.911  0.00  0.00    +0.005 C 
BRANCH  10  11
ATOM     11  C   UNL     1       0.057  -2.526  -0.572  0.00  0.00    +0.000 C 
BRANCH  11  12
ATOM     12  C   UNL     1      -0.912  -3.174  -1.564  0.00  0.00    +0.000 C 
ATOM     13  C   UNL     1      -0.552  -2.923  -3.020  0.00  0.00    +0.000 C 
ENDBRANCH  11  12
ENDBRANCH  10  11
ENDBRANCH   9  10
ENDBRANCH   7   9
ENDBRANCH   6   8
ENDBRANCH   5   6
ENDBRANCH   1   4
BRANCH   1  14
ATOM     14  C   UNL     1       1.749   2.621  -0.616  0.00  0.00    +0.098 C 
BRANCH  14  16
ATOM     15  O   UNL     1      -0.447   3.534  -0.957  0.00  0.00    -0.296 OA
ATOM     16  C   UNL     1       0.344   3.006  -0.175  0.00  0.00    +0.153 C 
BRANCH  16  17
ATOM     17  C   UNL     1      -0.012   2.715   1.274  0.00  0.00    +0.065 C 
BRANCH  17  18
ATOM     18  C   UNL     1      -1.504   2.453   1.468  0.00  0.00    +0.008 C 
BRANCH  18  19
ATOM     19  C   UNL     1      -2.023   1.271   0.647  0.00  0.00    +0.012 C 
BRANCH  19  20
ATOM     20  C   UNL     1      -3.497   0.967   0.891  0.00  0.00    +0.109 C 
BRANCH  20  22
ATOM     21  O   UNL     1      -3.457  -0.567  -0.974  0.00  0.00    -0.250 OA
ATOM     22  C   UNL     1      -3.929  -0.247   0.109  0.00  0.00    +0.314 C 
BRANCH  22  23
ATOM     23  O   UNL     1      -4.890  -0.962   0.747  0.00  0.00    -0.480 OA
ATOM     24  H   UNL     1      -5.216  -0.672   1.576  0.00  0.00    +0.295 HD
ENDBRANCH  22  23
ENDBRANCH  20  22
ENDBRANCH  19  20
ENDBRANCH  18  19
ENDBRANCH  17  18
ENDBRANCH  16  17
ENDBRANCH  14  16
ENDBRANCH   1  14
TORSDOF 16
