REMARK  Name = 46937095
REMARK  1 active torsions:
REMARK  status: ('A' for Active; 'I' for Inactive)
REMARK    1  A    between atoms: C_1  and  C_3
REMARK                            x       y       z     vdW  Elec       q    Type
REMARK                         _______ _______ _______ _____ _____    ______ ____
ROOT
ATOM      1  C   UNL     1      -1.626   0.267  -0.102  0.00  0.00    +0.028 C 
ATOM      2  C   UNL     1      -2.832   0.154   0.850  0.00  0.00    +0.003 C 
ATOM      3  C   UNL     1      -1.360   1.757  -0.386  0.00  0.00    +0.003 C 
ATOM      4  C   UNL     1      -2.004  -0.417  -1.433  0.00  0.00    +0.003 C 
ENDROOT
BRANCH   1   5
ATOM      5  C   UNL     1      -0.350  -0.414   0.478  0.00  0.00    +0.152 C 
ATOM      6  C   UNL     1      -0.479  -1.906   0.781  0.00  0.00    +0.035 C 
ATOM      7  O   UNL     1       0.761  -0.238  -0.404  0.00  0.00    -0.223 OA
ENDBRANCH   1   5
TORSDOF 1
REMARK  Name = 46937095
REMARK  1 active torsions:
REMARK  status: ('A' for Active; 'I' for Inactive)
REMARK    1  A    between atoms: C_1  and  C_3
REMARK                            x       y       z     vdW  Elec       q    Type
REMARK                         _______ _______ _______ _____ _____    ______ ____
ROOT
ATOM      1  P   UNL     1       2.256  -0.235   0.226  0.00  0.00    +0.000 P 
ENDROOT
TORSDOF 0
REMARK  Name = 46937095
REMARK  1 active torsions:
REMARK  status: ('A' for Active; 'I' for Inactive)
REMARK    1  A    between atoms: C_1  and  C_3
REMARK                            x       y       z     vdW  Elec       q    Type
REMARK                         _______ _______ _______ _____ _____    ______ ____
ROOT
ATOM      1  O   UNL     1       3.265  -0.413  -0.881  0.00  0.00    -0.253 OA
ATOM      2  H   UNL     1       2.653  -0.509  -1.067  0.00  0.00    +0.253 HD
ENDROOT
TORSDOF 0
REMARK  Name = 46937095
REMARK  1 active torsions:
REMARK  status: ('A' for Active; 'I' for Inactive)
REMARK    1  A    between atoms: C_1  and  C_3
REMARK                            x       y       z     vdW  Elec       q    Type
REMARK                         _______ _______ _______ _____ _____    ______ ____
ROOT
ATOM      1  C   UNL     1       2.370   1.446   0.869  0.00  0.00    +0.000 C 
ENDROOT
TORSDOF 0
