REMARK  Name = 6852140
REMARK  4 active torsions:
REMARK  status: ('A' for Active; 'I' for Inactive)
REMARK    1  A    between atoms: C_2  and  N_18
REMARK    2  A    between atoms: C_5  and  C_13
REMARK    3  A    between atoms: C_19  and  C_21
REMARK    4  A    between atoms: C_24  and  O_28
REMARK                            x       y       z     vdW  Elec       q    Type
REMARK                         _______ _______ _______ _____ _____    ______ ____
ROOT
ATOM      1  C   UNL     1      -1.962   0.667   0.093  0.00  0.00    +0.014 C 
ATOM      2  C   UNL     1      -0.798   1.450   0.171  0.00  0.00    +0.050 C 
ATOM      3  C   UNL     1      -3.213   1.304  -0.089  0.00  0.00    +0.001 C 
ATOM      4  C   UNL     1      -1.912  -0.733   0.194  0.00  0.00    +0.004 C 
ATOM      5  C   UNL     1      -3.078  -1.494   0.115  0.00  0.00    +0.031 C 
ATOM      6  C   UNL     1      -4.377   0.521  -0.167  0.00  0.00    +0.000 C 
ATOM      7  C   UNL     1      -0.867   2.840   0.070  0.00  0.00    +0.015 C 
ATOM      8  C   UNL     1      -3.263   2.704  -0.190  0.00  0.00    +0.000 C 
ATOM      9  C   UNL     1      -4.308  -0.869  -0.066  0.00  0.00    +0.003 C 
ATOM     10  C   UNL     1      -2.097   3.465  -0.110  0.00  0.00    +0.001 C 
ENDROOT
BRANCH   5  13
ATOM     11  N   UNL     1      -4.158  -3.730   0.145  0.00  0.00    -0.343 N 
ATOM     12  N   UNL     1      -1.843  -3.536   0.396  0.00  0.00    -0.285 NA
ATOM     13  C   UNL     1      -3.010  -2.943   0.220  0.00  0.00    +0.117 C 
ATOM     14  H   UNL     1      -4.089  -4.709   0.219  0.00  0.00    +0.144 HD
ATOM     15  H   UNL     1      -5.038  -3.307   0.017  0.00  0.00    +0.144 HD
ATOM     16  H   UNL     1      -1.795  -4.517   0.467  0.00  0.00    +0.188 HD
ENDBRANCH   5  13
BRANCH   2  18
ATOM     17  O   UNL     1       1.806   2.427  -0.757  0.00  0.00    -0.270 OA
ATOM     18  N   UNL     1       0.467   0.876   0.352  0.00  0.00    -0.280 N 
ATOM     19  C   UNL     1       1.677   1.388  -0.114  0.00  0.00    +0.249 C 
ATOM     20  H   UNL     1       0.505   0.031   0.856  0.00  0.00    +0.155 HD
BRANCH  19  21
ATOM     21  C   UNL     1       2.844   0.538   0.187  0.00  0.00    +0.053 C 
ATOM     22  C   UNL     1       3.249  -0.445  -0.702  0.00  0.00    +0.016 C 
ATOM     23  C   UNL     1       3.519   0.753   1.379  0.00  0.00    +0.004 C 
ATOM     24  C   UNL     1       4.356  -1.234  -0.391  0.00  0.00    +0.130 C 
ATOM     25  C   UNL     1       2.517  -0.671  -1.986  0.00  0.00    +0.034 C 
ATOM     26  C   UNL     1       4.626  -0.036   1.690  0.00  0.00    +0.003 C 
ATOM     27  C   UNL     1       5.045  -1.030   0.805  0.00  0.00    +0.036 C 
BRANCH  24  28
ATOM     28  O   UNL     1       4.781  -2.210  -1.243  0.00  0.00    -0.506 OA
ATOM     29  H   UNL     1       4.327  -2.357  -2.049  0.00  0.00    +0.292 HD
ENDBRANCH  24  28
ENDBRANCH  19  21
ENDBRANCH   2  18
TORSDOF 4
