REMARK  Name = 24856363
REMARK  6 active torsions:
REMARK  status: ('A' for Active; 'I' for Inactive)
REMARK    1  A    between atoms: C_1  and  C_24
REMARK    2  A    between atoms: C_3  and  C_9
REMARK    3  A    between atoms: C_8  and  C_16
REMARK    4  A    between atoms: N_15  and  C_18
REMARK    5  A    between atoms: C_18  and  C_19
REMARK    6  A    between atoms: N_23  and  C_26
REMARK                            x       y       z     vdW  Elec       q    Type
REMARK                         _______ _______ _______ _____ _____    ______ ____
ROOT
ATOM      1  C   UNL     1      -3.782  -0.554  -0.016  0.00  0.00    +0.053 C 
ATOM      2  C   UNL     1      -2.403  -0.347  -0.047  0.00  0.00    +0.004 C 
ATOM      3  C   UNL     1      -1.533  -1.435   0.015  0.00  0.00    -0.004 C 
ATOM      4  C   UNL     1      -4.291  -1.849   0.077  0.00  0.00    +0.004 C 
ATOM      5  C   UNL     1      -2.042  -2.730   0.109  0.00  0.00    -0.022 C 
ATOM      6  C   UNL     1      -3.421  -2.937   0.140  0.00  0.00    -0.004 C 
ATOM      7  C   UNL     1      -1.141  -3.921   0.178  0.00  0.00    +0.031 C 
ENDROOT
BRANCH   3   9
ATOM      8  C   UNL     1       2.644  -0.733  -0.086  0.00  0.00    +0.053 C 
ATOM      9  C   UNL     1      -0.107  -1.194  -0.018  0.00  0.00    -0.000 C 
ATOM     10  C   UNL     1       1.972  -0.766   1.136  0.00  0.00    +0.005 C 
ATOM     11  C   UNL     1       1.940  -0.930  -1.274  0.00  0.00    +0.005 C 
ATOM     12  C   UNL     1       0.597  -0.997   1.170  0.00  0.00    +0.000 C 
ATOM     13  C   UNL     1       0.565  -1.161  -1.240  0.00  0.00    +0.000 C 
BRANCH   8  16
ATOM     14  O   UNL     1       4.765  -0.914  -1.069  0.00  0.00    -0.270 OA
ATOM     15  N   UNL     1       4.625   0.245   0.935  0.00  0.00    -0.301 N 
ATOM     16  C   UNL     1       4.078  -0.492  -0.122  0.00  0.00    +0.246 C 
ATOM     17  H   UNL     1       4.022   0.549   1.652  0.00  0.00    +0.150 HD
BRANCH  15  18
ATOM     18  C   UNL     1       6.026   0.586   1.029  0.00  0.00    +0.090 C 
BRANCH  18  19
ATOM     19  C   UNL     1       6.308   1.891   0.366  0.00  0.00    +0.020 C 
ATOM     20  C   UNL     1       6.685   1.909  -1.087  0.00  0.00    +0.002 C 
ATOM     21  C   UNL     1       7.715   2.218  -0.040  0.00  0.00    +0.002 C 
ENDBRANCH  18  19
ENDBRANCH  15  18
ENDBRANCH   8  16
ENDBRANCH   3   9
BRANCH   1  24
ATOM     22  O   UNL     1      -5.843   0.442  -0.527  0.00  0.00    -0.270 OA
ATOM     23  N   UNL     1      -4.212   1.806   0.398  0.00  0.00    -0.302 N 
ATOM     24  C   UNL     1      -4.690   0.581  -0.081  0.00  0.00    +0.246 C 
ATOM     25  H   UNL     1      -3.288   1.845   0.737  0.00  0.00    +0.150 HD
BRANCH  23  26
ATOM     26  C   UNL     1      -5.000   3.017   0.423  0.00  0.00    +0.072 C 
ATOM     27  C   UNL     1      -5.107   3.897  -0.788  0.00  0.00    +0.021 C 
ATOM     28  C   UNL     1      -4.349   4.368   0.418  0.00  0.00    +0.021 C 
ENDBRANCH  23  26
ENDBRANCH   1  24
TORSDOF 6
