REMARK  Name = 24832041
REMARK  6 active torsions:
REMARK  status: ('A' for Active; 'I' for Inactive)
REMARK    1  A    between atoms: C_1  and  C_18
REMARK    2  A    between atoms: C_4  and  C_7
REMARK    3  A    between atoms: C_10  and  C_15
REMARK    4  A    between atoms: C_18  and  N_19
REMARK    5  A    between atoms: C_18  and  C_23
REMARK    6  A    between atoms: C_23  and  C_26
REMARK                            x       y       z     vdW  Elec       q    Type
REMARK                         _______ _______ _______ _____ _____    ______ ____
ROOT
ATOM      1  C   UNL     1      -1.283  -1.544   0.611  0.00  0.00    -0.042 C 
ATOM      2  C   UNL     1      -0.738  -1.969  -0.600  0.00  0.00    -0.006 C 
ATOM      3  C   UNL     1      -0.554  -0.695   1.444  0.00  0.00    -0.006 C 
ATOM      4  C   UNL     1       1.266  -0.697  -0.146  0.00  0.00    -0.000 C 
ATOM      5  C   UNL     1       0.536  -1.546  -0.979  0.00  0.00    -0.000 C 
ATOM      6  C   UNL     1       0.720  -0.272   1.066  0.00  0.00    -0.000 C 
ENDROOT
BRANCH   4   7
ATOM      7  C   UNL     1       2.586  -0.258  -0.539  0.00  0.00    +0.000 C 
ATOM      8  C   UNL     1       3.545   0.026   0.434  0.00  0.00    +0.005 C 
ATOM      9  C   UNL     1       2.901  -0.118  -1.890  0.00  0.00    +0.000 C 
ATOM     10  C   UNL     1       4.819   0.450   0.055  0.00  0.00    +0.053 C 
ATOM     11  C   UNL     1       4.175   0.306  -2.269  0.00  0.00    +0.000 C 
ATOM     12  C   UNL     1       5.134   0.590  -1.297  0.00  0.00    +0.005 C 
BRANCH  10  15
ATOM     13  O   UNL     1       5.574   0.613   2.280  0.00  0.00    -0.270 OA
ATOM     14  N   UNL     1       7.075   1.162   0.636  0.00  0.00    -0.325 N 
ATOM     15  C   UNL     1       5.820   0.744   1.068  0.00  0.00    +0.243 C 
ATOM     16  H   UNL     1       7.778   1.371   1.293  0.00  0.00    +0.145 HD
ATOM     17  H   UNL     1       7.261   1.249  -0.327  0.00  0.00    +0.145 HD
ENDBRANCH  10  15
ENDBRANCH   4   7
BRANCH   1  18
ATOM     18  C   UNL     1      -2.645  -1.995   1.016  0.00  0.00    -0.038 C 
BRANCH  18  19
ATOM     19  N   UNL     1      -2.708  -3.459   1.215  0.00  0.00    +0.384 N 
ATOM     20  H   UNL     1      -3.654  -3.725   1.490  0.00  0.00    -0.089 HD
ATOM     21  H   UNL     1      -2.052  -3.731   1.948  0.00  0.00    -0.089 HD
ATOM     22  H   UNL     1      -2.462  -3.932   0.346  0.00  0.00    -0.089 HD
ENDBRANCH  18  19
BRANCH  18  23
ATOM     23  C   UNL     1      -3.773  -1.597   0.020  0.00  0.00    +0.011 C 
BRANCH  23  26
ATOM     24  F   UNL     1      -3.453  -0.246  -2.453  0.00  0.00    -0.205 F 
ATOM     25  F   UNL     1      -4.659   2.816   1.916  0.00  0.00    -0.204 F 
ATOM     26  C   UNL     1      -3.920  -0.100  -0.130  0.00  0.00    +0.006 C 
ATOM     27  C   UNL     1      -3.749   0.498  -1.378  0.00  0.00    +0.136 C 
ATOM     28  C   UNL     1      -4.228   0.682   0.983  0.00  0.00    +0.028 C 
ATOM     29  C   UNL     1      -4.364   2.064   0.848  0.00  0.00    +0.140 C 
ATOM     30  C   UNL     1      -3.885   1.880  -1.513  0.00  0.00    +0.032 C 
ATOM     31  C   UNL     1      -4.193   2.663  -0.401  0.00  0.00    +0.032 C 
ENDBRANCH  23  26
ENDBRANCH  18  23
ENDBRANCH   1  18
TORSDOF 6
