REMARK  Name = 12106168
REMARK  2 active torsions:
REMARK  status: ('A' for Active; 'I' for Inactive)
REMARK    1  A    between atoms: C_3  and  C_8
REMARK    2  A    between atoms: C_4  and  C_15
REMARK                            x       y       z     vdW  Elec       q    Type
REMARK                         _______ _______ _______ _____ _____    ______ ____
ROOT
ATOM      1  N   UNL     1       0.097  -2.838   0.000  0.00  0.00    -0.236 N 
ATOM      2  N   UNL     1      -1.101  -3.447   0.000  0.00  0.00    -0.180 NA
ATOM      3  C   UNL     1       0.023  -1.476   0.000  0.00  0.00    +0.066 C 
ATOM      4  C   UNL     1      -1.317  -1.173   0.000  0.00  0.00    +0.036 C 
ATOM      5  C   UNL     1      -1.961  -2.425   0.000  0.00  0.00    +0.119 C 
ATOM      6  H   UNL     1       0.950  -3.330   0.000  0.00  0.00    +0.174 HD
ENDROOT
BRANCH   3   8
ATOM      7  F   UNL     1       4.573   1.739   0.000  0.00  0.00    -0.204 F 
ATOM      8  C   UNL     1       1.201  -0.644   0.000  0.00  0.00    +0.015 C 
ATOM      9  C   UNL     1       1.771  -0.241   1.208  0.00  0.00    +0.004 C 
ATOM     10  C   UNL     1       1.771  -0.241  -1.208  0.00  0.00    +0.004 C 
ATOM     11  C   UNL     1       2.910   0.564   1.208  0.00  0.00    +0.030 C 
ATOM     12  C   UNL     1       2.910   0.564  -1.208  0.00  0.00    +0.030 C 
ATOM     13  C   UNL     1       3.479   0.966   0.000  0.00  0.00    +0.140 C 
ENDBRANCH   3   8
BRANCH   4  15
ATOM     14  N   UNL     1      -2.927   2.740   0.000  0.00  0.00    -0.242 NA
ATOM     15  C   UNL     1      -1.861   0.151   0.000  0.00  0.00    +0.006 C 
ATOM     16  C   UNL     1      -2.128   0.800   1.203  0.00  0.00    +0.021 C 
ATOM     17  C   UNL     1      -2.128   0.800  -1.203  0.00  0.00    +0.021 C 
ATOM     18  C   UNL     1      -2.655   2.081   1.149  0.00  0.00    +0.099 C 
ATOM     19  C   UNL     1      -2.655   2.080  -1.149  0.00  0.00    +0.099 C 
ENDBRANCH   4  15
TORSDOF 2
