REMARK  Name = 4369433
REMARK  5 active torsions:
REMARK  status: ('A' for Active; 'I' for Inactive)
REMARK    1  A    between atoms: N_2  and  C_25
REMARK    2  A    between atoms: C_5  and  C_13
REMARK    3  A    between atoms: C_7  and  C_19
REMARK    4  A    between atoms: C_25  and  C_26
REMARK    5  A    between atoms: C_26  and  O_27
REMARK                            x       y       z     vdW  Elec       q    Type
REMARK                         _______ _______ _______ _____ _____    ______ ____
ROOT
ATOM      1  N   UNL     1       0.992   2.364  -0.049  0.00  0.00    -0.301 N 
ATOM      2  N   UNL     1      -3.008  -0.040   0.122  0.00  0.00    -0.319 N 
ATOM      3  N   UNL     1      -1.022   3.690  -0.037  0.00  0.00    -0.233 NA
ATOM      4  N   UNL     1      -3.047   2.342   0.055  0.00  0.00    -0.233 NA
ATOM      5  C   UNL     1       0.127   0.315   0.032  0.00  0.00    +0.005 C 
ATOM      6  C   UNL     1      -0.939   1.249   0.033  0.00  0.00    +0.131 C 
ATOM      7  C   UNL     1       1.305   1.029  -0.018  0.00  0.00    +0.046 C 
ATOM      8  C   UNL     1      -0.369   2.515  -0.019  0.00  0.00    +0.117 C 
ATOM      9  C   UNL     1      -2.332   1.193   0.070  0.00  0.00    +0.113 C 
ATOM     10  C   UNL     1      -2.357   3.503   0.003  0.00  0.00    +0.252 C 
ATOM     11  H   UNL     1       1.645   3.100  -0.087  0.00  0.00    +0.153 HD
ATOM     12  H   UNL     1      -2.476  -0.868   0.131  0.00  0.00    +0.148 HD
ENDROOT
BRANCH   5  13
ATOM     13  C   UNL     1       0.086  -1.122   0.074  0.00  0.00    -0.002 C 
ATOM     14  C   UNL     1       0.036  -1.852  -1.113  0.00  0.00    -0.000 C 
ATOM     15  C   UNL     1       0.096  -1.782   1.302  0.00  0.00    -0.000 C 
ATOM     16  C   UNL     1      -0.004  -3.246  -1.071  0.00  0.00    -0.000 C 
ATOM     17  C   UNL     1       0.056  -3.176   1.343  0.00  0.00    -0.000 C 
ATOM     18  C   UNL     1       0.006  -3.908   0.156  0.00  0.00    -0.000 C 
ENDBRANCH   5  13
BRANCH   7  19
ATOM     19  C   UNL     1       2.682   0.587  -0.042  0.00  0.00    +0.013 C 
ATOM     20  C   UNL     1       3.311   0.341  -1.260  0.00  0.00    +0.001 C 
ATOM     21  C   UNL     1       3.374   0.410   1.154  0.00  0.00    +0.001 C 
ATOM     22  C   UNL     1       4.639  -0.085  -1.282  0.00  0.00    +0.000 C 
ATOM     23  C   UNL     1       4.702  -0.016   1.132  0.00  0.00    +0.000 C 
ATOM     24  C   UNL     1       5.335  -0.264  -0.086  0.00  0.00    +0.000 C 
ENDBRANCH   7  19
BRANCH   2  25
ATOM     25  C   UNL     1      -4.436  -0.145   0.162  0.00  0.00    +0.120 C 
BRANCH  25  26
ATOM     26  C   UNL     1      -4.847  -1.605   0.248  0.00  0.00    +0.158 C 
BRANCH  26  27
ATOM     27  O   UNL     1      -4.388  -2.296  -0.907  0.00  0.00    -0.380 OA
ATOM     28  H   UNL     1      -4.650  -3.228  -0.852  0.00  0.00    +0.211 HD
ENDBRANCH  26  27
ENDBRANCH  25  26
ENDBRANCH   2  25
TORSDOF 5
