REMARK  Name = 5494422
REMARK  8 active torsions:
REMARK  status: ('A' for Active; 'I' for Inactive)
REMARK    1  A    between atoms: C_3  and  C_8
REMARK    2  A    between atoms: C_7  and  C_19
REMARK    3  A    between atoms: C_8  and  N_10
REMARK    4  A    between atoms: C_11  and  C_13
REMARK    5  A    between atoms: C_19  and  C_20
REMARK    6  A    between atoms: C_20  and  N_21
REMARK    7  A    between atoms: C_20  and  C_25
REMARK    8  A    between atoms: C_25  and  C_27
REMARK                            x       y       z     vdW  Elec       q    Type
REMARK                         _______ _______ _______ _____ _____    ______ ____
ROOT
ATOM      1  O   UNL     1      -1.338  -0.309   1.680  0.00  0.00    -0.275 OA
ATOM      2  N   UNL     1      -1.237  -2.066   0.177  0.00  0.00    -0.280 N 
ATOM      3  C   UNL     1       0.218  -2.059   0.011  0.00  0.00    +0.095 C 
ATOM      4  C   UNL     1       0.514  -3.405  -0.654  0.00  0.00    +0.023 C 
ATOM      5  C   UNL     1      -0.737  -3.672  -1.483  0.00  0.00    +0.023 C 
ATOM      6  C   UNL     1      -1.853  -3.139  -0.598  0.00  0.00    +0.093 C 
ATOM      7  C   UNL     1      -1.893  -1.204   1.042  0.00  0.00    +0.224 C 
ENDROOT
BRANCH   3   8
ATOM      8  C   UNL     1       0.677  -0.880  -0.844  0.00  0.00    +0.109 C 
BRANCH   8  10
ATOM      9  O   UNL     1       1.963   0.814   1.085  0.00  0.00    -0.270 OA
ATOM     10  N   UNL     1       2.085  -0.660  -0.703  0.00  0.00    -0.299 N 
ATOM     11  C   UNL     1       2.626   0.183   0.266  0.00  0.00    +0.246 C 
ATOM     12  H   UNL     1       2.698  -1.126  -1.317  0.00  0.00    +0.150 HD
BRANCH  11  13
ATOM     13  C   UNL     1       4.105   0.324   0.265  0.00  0.00    +0.053 C 
ATOM     14  C   UNL     1       4.694   1.490   0.754  0.00  0.00    +0.005 C 
ATOM     15  C   UNL     1       4.904  -0.709  -0.224  0.00  0.00    +0.005 C 
ATOM     16  C   UNL     1       6.083   1.623   0.754  0.00  0.00    +0.000 C 
ATOM     17  C   UNL     1       6.292  -0.576  -0.225  0.00  0.00    +0.000 C 
ATOM     18  C   UNL     1       6.882   0.590   0.264  0.00  0.00    +0.000 C 
ENDBRANCH  11  13
ENDBRANCH   8  10
ENDBRANCH   3   8
BRANCH   7  19
ATOM     19  C   UNL     1      -3.380  -1.419   1.168  0.00  0.00    +0.064 C 
BRANCH  19  20
ATOM     20  C   UNL     1      -4.117  -0.112   1.467  0.00  0.00    -0.052 C 
BRANCH  20  21
ATOM     21  N   UNL     1      -5.389  -0.468   2.110  0.00  0.00    +0.382 N 
ATOM     22  H   UNL     1      -5.203  -1.020   2.948  0.00  0.00    -0.089 HD
ATOM     23  H   UNL     1      -5.957  -1.014   1.462  0.00  0.00    -0.089 HD
ATOM     24  H   UNL     1      -5.890   0.382   2.367  0.00  0.00    -0.089 HD
ENDBRANCH  20  21
BRANCH  20  25
ATOM     25  C   UNL     1      -4.426   0.721   0.204  0.00  0.00    +0.007 C 
BRANCH  25  27
ATOM     26  F   UNL     1      -3.233   0.479  -2.357  0.00  0.00    -0.205 F 
ATOM     27  C   UNL     1      -3.290   1.598  -0.264  0.00  0.00    +0.003 C 
ATOM     28  C   UNL     1      -2.750   1.424  -1.538  0.00  0.00    +0.136 C 
ATOM     29  C   UNL     1      -2.780   2.583   0.581  0.00  0.00    -0.002 C 
ATOM     30  C   UNL     1      -1.700   2.236  -1.968  0.00  0.00    +0.029 C 
ATOM     31  C   UNL     1      -1.730   3.395   0.152  0.00  0.00    -0.000 C 
ATOM     32  C   UNL     1      -1.190   3.221  -1.122  0.00  0.00    +0.002 C 
ENDBRANCH  25  27
ENDBRANCH  20  25
ENDBRANCH  19  20
ENDBRANCH   7  19
TORSDOF 8
