REMARK  Name = 9547919
REMARK  12 active torsions:
REMARK  status: ('A' for Active; 'I' for Inactive)
REMARK    1  A    between atoms: C_1  and  C_4
REMARK    2  A    between atoms: C_1  and  N_8
REMARK    3  A    between atoms: C_1  and  C_24
REMARK    4  A    between atoms: C_9  and  C_11
REMARK    5  A    between atoms: C_11  and  N_13
REMARK    6  A    between atoms: C_11  and  C_17
REMARK    7  A    between atoms: C_17  and  C_18
REMARK    8  A    between atoms: C_24  and  C_25
REMARK    9  A    between atoms: C_28  and  C_33
REMARK   10  A    between atoms: C_33  and  P_34
REMARK   11  A    between atoms: P_34  and  O_36
REMARK   12  A    between atoms: P_34  and  O_38
REMARK                            x       y       z     vdW  Elec       q    Type
REMARK                         _______ _______ _______ _____ _____    ______ ____
ROOT
ATOM      1  C   UNL     1      -0.425  -3.268  -0.274  0.00  0.00    +0.153 C 
ENDROOT
BRANCH   1   4
ATOM      2  O   UNL     1      -2.404  -4.383   0.591  0.00  0.00    -0.274 OA
ATOM      3  N   UNL     1      -1.171  -5.438  -1.034  0.00  0.00    -0.327 N 
ATOM      4  C   UNL     1      -1.433  -4.403  -0.162  0.00  0.00    +0.238 C 
ATOM      5  H   UNL     1      -1.758  -6.229  -1.051  0.00  0.00    +0.145 HD
ATOM      6  H   UNL     1      -0.396  -5.387  -1.640  0.00  0.00    +0.145 HD
ENDBRANCH   1   4
BRANCH   1   8
ATOM      7  O   UNL     1      -0.764  -1.142  -2.206  0.00  0.00    -0.273 OA
ATOM      8  N   UNL     1      -1.154  -2.033  -0.097  0.00  0.00    -0.297 N 
ATOM      9  C   UNL     1      -1.264  -1.065  -1.086  0.00  0.00    +0.241 C 
ATOM     10  H   UNL     1      -1.595  -1.870   0.768  0.00  0.00    +0.150 HD
BRANCH   9  11
ATOM     11  C   UNL     1      -2.040   0.156  -0.606  0.00  0.00    +0.153 C 
BRANCH  11  13
ATOM     12  O   UNL     1      -0.721   2.337   0.783  0.00  0.00    -0.275 OA
ATOM     13  N   UNL     1      -1.416   1.316  -1.190  0.00  0.00    -0.298 N 
ATOM     14  C   UNL     1      -0.807   2.311  -0.442  0.00  0.00    +0.223 C 
ATOM     15  C   UNL     1      -0.213   3.393  -1.303  0.00  0.00    +0.095 C 
ATOM     16  H   UNL     1      -1.422   1.406  -2.171  0.00  0.00    +0.150 HD
ENDBRANCH  11  13
BRANCH  11  17
ATOM     17  C   UNL     1      -3.518   0.035  -0.996  0.00  0.00    +0.055 C 
BRANCH  17  18
ATOM     18  C   UNL     1      -4.411   0.946  -0.190  0.00  0.00    -0.020 C 
ATOM     19  C   UNL     1      -4.959   0.485   0.997  0.00  0.00    -0.004 C 
ATOM     20  C   UNL     1      -4.667   2.228  -0.651  0.00  0.00    -0.004 C 
ATOM     21  C   UNL     1      -5.784   1.327   1.742  0.00  0.00    -0.000 C 
ATOM     22  C   UNL     1      -5.492   3.071   0.095  0.00  0.00    -0.000 C 
ATOM     23  C   UNL     1      -6.051   2.620   1.291  0.00  0.00    -0.000 C 
ENDBRANCH  17  18
ENDBRANCH  11  17
ENDBRANCH   9  11
ENDBRANCH   1   8
BRANCH   1  24
ATOM     24  C   UNL     1       0.688  -3.439   0.766  0.00  0.00    +0.055 C 
BRANCH  24  25
ATOM     25  C   UNL     1       1.704  -2.324   0.722  0.00  0.00    -0.020 C 
ATOM     26  C   UNL     1       1.509  -1.195   1.502  0.00  0.00    -0.004 C 
ATOM     27  C   UNL     1       2.814  -2.450  -0.098  0.00  0.00    -0.004 C 
ATOM     28  C   UNL     1       3.572  -0.278   0.641  0.00  0.00    +0.049 C 
ATOM     29  C   UNL     1       2.449  -0.165   1.461  0.00  0.00    +0.001 C 
ATOM     30  C   UNL     1       3.754  -1.420  -0.139  0.00  0.00    +0.001 C 
BRANCH  28  33
ATOM     31  F   UNL     1       4.689   1.529   1.753  0.00  0.00    -0.187 F 
ATOM     32  F   UNL     1       5.833   0.435   0.260  0.00  0.00    -0.187 F 
ATOM     33  C   UNL     1       4.576   0.824   0.598  0.00  0.00    +0.372 C 
BRANCH  33  34
ATOM     34  P   UNL     1       4.329   2.153  -0.546  0.00  0.00    +0.401 P 
ATOM     35  O   UNL     1       4.278   1.739  -1.988  0.00  0.00    -0.252 OA
BRANCH  34  36
ATOM     36  O   UNL     1       5.504   3.202  -0.183  0.00  0.00    -0.320 OA
ATOM     37  H   UNL     1       5.443   3.972  -0.770  0.00  0.00    +0.220 HD
ENDBRANCH  34  36
BRANCH  34  38
ATOM     38  O   UNL     1       2.996   2.895  -0.009  0.00  0.00    -0.320 OA
ATOM     39  H   UNL     1       2.789   3.646  -0.588  0.00  0.00    +0.220 HD
ENDBRANCH  34  38
ENDBRANCH  33  34
ENDBRANCH  28  33
ENDBRANCH  24  25
ENDBRANCH   1  24
TORSDOF 12
