REMARK  Name = 2822496
REMARK  6 active torsions:
REMARK  status: ('A' for Active; 'I' for Inactive)
REMARK    1  A    between atoms: C_2  and  C_7
REMARK    2  A    between atoms: C_4  and  C_19
REMARK    3  A    between atoms: C_7  and  S_8
REMARK    4  A    between atoms: S_8  and  C_13
REMARK    5  A    between atoms: C_12  and  C_18
REMARK    6  A    between atoms: C_20  and  C_21
REMARK                            x       y       z     vdW  Elec       q    Type
REMARK                         _______ _______ _______ _____ _____    ______ ____
ROOT
ATOM      1  O   UNL     1      -0.865  -0.953   0.414  0.00  0.00    -0.442 OA
ATOM      2  C   UNL     1       0.265  -1.614   0.050  0.00  0.00    +0.192 C 
ATOM      3  C   UNL     1       0.055  -2.329  -1.107  0.00  0.00    +0.045 C 
ATOM      4  C   UNL     1      -1.791  -1.256  -0.522  0.00  0.00    +0.187 C 
ATOM      5  C   UNL     1      -1.290  -2.092  -1.476  0.00  0.00    +0.049 C 
ENDROOT
BRANCH   2   7
ATOM      6  O   UNL     1       1.484  -0.781   1.914  0.00  0.00    -0.275 OA
ATOM      7  C   UNL     1       1.417  -1.470   0.873  0.00  0.00    +0.270 C 
BRANCH   7   8
ATOM      8  S   UNL     1       2.854  -2.433   0.413  0.00  0.00    +0.043 S 
BRANCH   8  13
ATOM      9  N   UNL     1       5.849  -0.291  -0.351  0.00  0.00    -0.196 N 
ATOM     10  N   UNL     1       3.794   0.131   0.263  0.00  0.00    -0.322 NA
ATOM     11  N   UNL     1       5.301  -1.512  -0.250  0.00  0.00    -0.107 NA
ATOM     12  C   UNL     1       4.947   0.680  -0.045  0.00  0.00    +0.284 C 
ATOM     13  C   UNL     1       4.084  -1.175   0.118  0.00  0.00    +0.139 C 
ATOM     14  H   UNL     1       6.782  -0.120  -0.613  0.00  0.00    +0.178 HD
BRANCH  12  18
ATOM     15  F   UNL     1       4.249   2.948   0.262  0.00  0.00    -0.162 F 
ATOM     16  F   UNL     1       6.302   2.472   0.775  0.00  0.00    -0.162 F 
ATOM     17  F   UNL     1       5.695   2.547  -1.312  0.00  0.00    -0.162 F 
ATOM     18  C   UNL     1       5.286   2.111  -0.076  0.00  0.00    +0.463 C 
ENDBRANCH  12  18
ENDBRANCH   8  13
ENDBRANCH   7   8
ENDBRANCH   2   7
BRANCH   4  19
ATOM     19  C   UNL     1      -3.085  -0.671  -0.357  0.00  0.00    -0.023 C 
ATOM     20  C   UNL     1      -4.174  -0.178  -0.219  0.00  0.00    -0.057 C 
BRANCH  20  21
ATOM     21  C   UNL     1      -5.467   0.407  -0.054  0.00  0.00    +0.042 C 
ATOM     22  C   UNL     1      -5.872   1.449  -0.889  0.00  0.00    +0.008 C 
ATOM     23  C   UNL     1      -6.324  -0.064   0.940  0.00  0.00    +0.008 C 
ATOM     24  C   UNL     1      -7.135   2.020  -0.729  0.00  0.00    +0.001 C 
ATOM     25  C   UNL     1      -7.587   0.507   1.100  0.00  0.00    +0.001 C 
ATOM     26  C   UNL     1      -7.992   1.549   0.266  0.00  0.00    +0.000 C 
ENDBRANCH  20  21
ENDBRANCH   4  19
TORSDOF 6
