REMARK  Name = 10150081
REMARK  8 active torsions:
REMARK  status: ('A' for Active; 'I' for Inactive)
REMARK    1  A    between atoms: C_3  and  N_18
REMARK    2  A    between atoms: C_4  and  C_11
REMARK    3  A    between atoms: N_10  and  O_13
REMARK    4  A    between atoms: O_13  and  C_14
REMARK    5  A    between atoms: C_14  and  C_15
REMARK    6  A    between atoms: C_15  and  O_16
REMARK    7  A    between atoms: N_18  and  C_21
REMARK    8  A    between atoms: C_26  and  C_27
REMARK                            x       y       z     vdW  Elec       q    Type
REMARK                         _______ _______ _______ _____ _____    ______ ____
ROOT
ATOM      1  F   UNL     1       1.853  -2.377  -0.020  0.00  0.00    -0.200 F 
ATOM      2  F   UNL     1       0.506  -4.646   0.658  0.00  0.00    -0.202 F 
ATOM      3  C   UNL     1      -0.194  -1.215  -0.341  0.00  0.00    +0.083 C 
ATOM      4  C   UNL     1      -1.591  -1.227  -0.324  0.00  0.00    +0.071 C 
ATOM      5  C   UNL     1       0.512  -2.373  -0.008  0.00  0.00    +0.181 C 
ATOM      6  C   UNL     1      -2.277  -2.390   0.024  0.00  0.00    +0.008 C 
ATOM      7  C   UNL     1      -0.174  -3.537   0.340  0.00  0.00    +0.169 C 
ATOM      8  C   UNL     1      -1.569  -3.545   0.355  0.00  0.00    +0.032 C 
ENDROOT
BRANCH   4  11
ATOM      9  O   UNL     1      -1.907   0.805  -1.458  0.00  0.00    -0.268 OA
ATOM     10  N   UNL     1      -3.596   0.108  -0.051  0.00  0.00    -0.190 N 
ATOM     11  C   UNL     1      -2.361  -0.037  -0.665  0.00  0.00    +0.269 C 
ATOM     12  H   UNL     1      -3.943  -0.557   0.587  0.00  0.00    +0.183 HD
BRANCH  10  13
ATOM     13  O   UNL     1      -4.325   1.264  -0.393  0.00  0.00    -0.263 OA
BRANCH  13  14
ATOM     14  C   UNL     1      -5.128   1.634   0.719  0.00  0.00    +0.203 C 
BRANCH  14  15
ATOM     15  C   UNL     1      -5.920   2.878   0.366  0.00  0.00    +0.172 C 
BRANCH  15  16
ATOM     16  O   UNL     1      -6.739   3.237   1.472  0.00  0.00    -0.379 OA
ATOM     17  H   UNL     1      -7.248   4.033   1.253  0.00  0.00    +0.211 HD
ENDBRANCH  15  16
ENDBRANCH  14  15
ENDBRANCH  13  14
ENDBRANCH  10  13
ENDBRANCH   4  11
BRANCH   3  18
ATOM     18  N   UNL     1       0.516  -0.050  -0.690  0.00  0.00    -0.309 N 
ATOM     19  H   UNL     1       0.036   0.531  -1.324  0.00  0.00    +0.152 HD
BRANCH  18  21
ATOM     20  F   UNL     1       2.033   1.527  -2.409  0.00  0.00    -0.203 F 
ATOM     21  C   UNL     1       1.779   0.450  -0.308  0.00  0.00    +0.076 C 
ATOM     22  C   UNL     1       2.516   1.237  -1.193  0.00  0.00    +0.154 C 
ATOM     23  C   UNL     1       2.291   0.154   0.955  0.00  0.00    +0.018 C 
ATOM     24  C   UNL     1       3.765   1.729  -0.814  0.00  0.00    +0.039 C 
ATOM     25  C   UNL     1       3.540   0.645   1.334  0.00  0.00    +0.010 C 
ATOM     26  C   UNL     1       4.277   1.433   0.449  0.00  0.00    +0.045 C 
BRANCH  26  27
ATOM     27  C   UNL     1       5.557   1.937   0.837  0.00  0.00    -0.051 C 
ATOM     28  C   UNL     1       6.634   2.361   1.164  0.00  0.00    -0.009 C 
ENDBRANCH  26  27
ENDBRANCH  18  21
ENDBRANCH   3  18
TORSDOF 8
