REMARK  Name = 25126798
REMARK  5 active torsions:
REMARK  status: ('A' for Active; 'I' for Inactive)
REMARK    1  A    between atoms: N_1  and  C_16
REMARK    2  A    between atoms: C_4  and  C_9
REMARK    3  A    between atoms: C_16  and  C_17
REMARK    4  A    between atoms: C_16  and  C_22
REMARK    5  A    between atoms: C_22  and  C_24
REMARK                            x       y       z     vdW  Elec       q    Type
REMARK                         _______ _______ _______ _____ _____    ______ ____
ROOT
ATOM      1  N   UNL     1       1.339   0.361  -0.266  0.00  0.00    -0.211 N 
ATOM      2  N   UNL     1       1.000   0.027  -1.523  0.00  0.00    -0.176 NA
ATOM      3  C   UNL     1       0.271   0.527   0.567  0.00  0.00    +0.087 C 
ATOM      4  C   UNL     1      -0.843   0.285  -0.199  0.00  0.00    +0.051 C 
ATOM      5  C   UNL     1      -0.334  -0.017  -1.476  0.00  0.00    +0.120 C 
ENDROOT
BRANCH   4   9
ATOM      6  N   UNL     1      -2.470   1.209   1.299  0.00  0.00    -0.248 NA
ATOM      7  N   UNL     1      -5.314  -1.144  -0.343  0.00  0.00    -0.300 N 
ATOM      8  N   UNL     1      -4.811   0.540   1.308  0.00  0.00    -0.233 NA
ATOM      9  C   UNL     1      -2.185   0.353   0.291  0.00  0.00    +0.069 C 
ATOM     10  C   UNL     1      -3.199  -0.440  -0.245  0.00  0.00    +0.117 C 
ATOM     11  C   UNL     1      -4.465  -0.290   0.309  0.00  0.00    +0.115 C 
ATOM     12  C   UNL     1      -3.307  -1.420  -1.265  0.00  0.00    +0.003 C 
ATOM     13  C   UNL     1      -4.621  -1.835  -1.303  0.00  0.00    +0.059 C 
ATOM     14  C   UNL     1      -3.748   1.249   1.739  0.00  0.00    +0.251 C 
ATOM     15  H   UNL     1      -6.275  -1.245  -0.152  0.00  0.00    +0.153 HD
ENDBRANCH   4   9
BRANCH   1  16
ATOM     16  C   UNL     1       2.811   0.515   0.108  0.00  0.00    +0.111 C 
BRANCH  16  17
ATOM     17  C   UNL     1       3.560  -0.794  -0.063  0.00  0.00    +0.021 C 
ATOM     18  C   UNL     1       5.026  -0.707   0.351  0.00  0.00    +0.002 C 
ATOM     19  C   UNL     1       3.035  -1.910   0.834  0.00  0.00    +0.002 C 
ATOM     20  C   UNL     1       5.445  -2.161   0.540  0.00  0.00    +0.000 C 
ATOM     21  C   UNL     1       4.162  -2.937   0.845  0.00  0.00    +0.000 C 
ENDBRANCH  16  17
BRANCH  16  22
ATOM     22  C   UNL     1       3.495   1.653  -0.686  0.00  0.00    +0.127 C 
BRANCH  22  24
ATOM     23  N   UNL     1       2.318   3.981  -0.331  0.00  0.00    -0.196 NA
ATOM     24  C   UNL     1       2.836   2.954  -0.488  0.00  0.00    +0.075 C 
ENDBRANCH  22  24
ENDBRANCH  16  22
ENDBRANCH   1  16
TORSDOF 5
