REMARK  Name = 24764434
REMARK  8 active torsions:
REMARK  status: ('A' for Active; 'I' for Inactive)
REMARK    1  A    between atoms: C_1  and  N_4
REMARK    2  A    between atoms: C_1  and  C_17
REMARK    3  A    between atoms: C_1  and  C_28
REMARK    4  A    between atoms: C_11  and  C_14
REMARK    5  A    between atoms: C_14  and  O_15
REMARK    6  A    between atoms: C_17  and  C_18
REMARK    7  A    between atoms: C_28  and  C_30
REMARK    8  A    between atoms: C_30  and  O_31
REMARK                            x       y       z     vdW  Elec       q    Type
REMARK                         _______ _______ _______ _____ _____    ______ ____
ROOT
ATOM      1  C   UNL     1      -1.140   1.640  -0.116  0.00  0.00    +0.098 C 
ENDROOT
BRANCH   1   4
ATOM      2  O   UNL     1       1.274   1.653  -1.867  0.00  0.00    -0.269 OA
ATOM      3  O   UNL     1      -0.140   0.205   2.300  0.00  0.00    -0.269 OA
ATOM      4  N   UNL     1       0.174   1.084   0.137  0.00  0.00    -0.224 N 
ATOM      5  C   UNL     1       1.219   1.150  -0.761  0.00  0.00    +0.255 C 
ATOM      6  C   UNL     1       0.518   0.432   1.302  0.00  0.00    +0.255 C 
ATOM      7  C   UNL     1       2.338   0.466  -0.114  0.00  0.00    +0.059 C 
ATOM      8  C   UNL     1       1.915   0.032   1.133  0.00  0.00    +0.058 C 
ATOM      9  C   UNL     1       3.621   0.239  -0.570  0.00  0.00    +0.011 C 
ATOM     10  C   UNL     1       2.752  -0.651   1.992  0.00  0.00    +0.005 C 
ATOM     11  C   UNL     1       4.487  -0.452   0.283  0.00  0.00    +0.076 C 
ATOM     12  C   UNL     1       4.056  -0.893   1.551  0.00  0.00    +0.007 C 
BRANCH  11  14
ATOM     13  O   UNL     1       6.704  -1.319   0.523  0.00  0.00    -0.245 OA
ATOM     14  C   UNL     1       5.852  -0.720  -0.142  0.00  0.00    +0.338 C 
BRANCH  14  15
ATOM     15  O   UNL     1       6.114  -0.234  -1.386  0.00  0.00    -0.477 OA
ATOM     16  H   UNL     1       5.446   0.215  -1.864  0.00  0.00    +0.295 HD
ENDBRANCH  14  15
ENDBRANCH  11  14
ENDBRANCH   1   4
BRANCH   1  17
ATOM     17  C   UNL     1      -1.831   0.916  -1.292  0.00  0.00    +0.047 C 
BRANCH  17  18
ATOM     18  C   UNL     1      -1.924  -0.587  -1.173  0.00  0.00    -0.020 C 
ATOM     19  C   UNL     1      -2.880  -1.211  -0.355  0.00  0.00    -0.004 C 
ATOM     20  C   UNL     1      -1.016  -1.345  -1.913  0.00  0.00    -0.004 C 
ATOM     21  C   UNL     1      -2.916  -2.624  -0.286  0.00  0.00    -0.000 C 
ATOM     22  C   UNL     1      -3.801  -0.463   0.397  0.00  0.00    -0.000 C 
ATOM     23  C   UNL     1      -1.051  -2.735  -1.846  0.00  0.00    -0.000 C 
ATOM     24  C   UNL     1      -1.994  -3.372  -1.038  0.00  0.00    -0.000 C 
ATOM     25  C   UNL     1      -3.871  -3.248   0.531  0.00  0.00    -0.000 C 
ATOM     26  C   UNL     1      -4.744  -1.100   1.204  0.00  0.00    -0.000 C 
ATOM     27  C   UNL     1      -4.779  -2.490   1.271  0.00  0.00    -0.000 C 
ENDBRANCH  17  18
ENDBRANCH   1  17
BRANCH   1  28
ATOM     28  C   UNL     1      -1.046   3.165  -0.269  0.00  0.00    +0.130 C 
BRANCH  28  30
ATOM     29  O   UNL     1      -3.359   3.347   0.465  0.00  0.00    -0.250 OA
ATOM     30  C   UNL     1      -2.330   3.884   0.081  0.00  0.00    +0.316 C 
BRANCH  30  31
ATOM     31  O   UNL     1      -2.201   5.231  -0.044  0.00  0.00    -0.480 OA
ATOM     32  H   UNL     1      -1.393   5.598  -0.343  0.00  0.00    +0.295 HD
ENDBRANCH  30  31
ENDBRANCH  28  30
ENDBRANCH   1  28
TORSDOF 8
