REMARK  Name = 33625
REMARK  5 active torsions:
REMARK  status: ('A' for Active; 'I' for Inactive)
REMARK    1  A    between atoms: N_1  and  C_18
REMARK    2  A    between atoms: C_2  and  N_9
REMARK    3  A    between atoms: C_10  and  C_12
REMARK    4  A    between atoms: C_18  and  C_19
REMARK    5  A    between atoms: C_19  and  C_21
REMARK                            x       y       z     vdW  Elec       q    Type
REMARK                         _______ _______ _______ _____ _____    ______ ____
ROOT
ATOM      1  N   UNL     1      -0.467  -2.176  -0.261  0.00  0.00    +0.387 N 
ATOM      2  C   UNL     1       2.430  -2.379   0.193  0.00  0.00    +0.068 C 
ATOM      3  C   UNL     1       1.742  -2.984  -1.033  0.00  0.00    -0.003 C 
ATOM      4  C   UNL     1       1.425  -2.222   1.336  0.00  0.00    -0.003 C 
ATOM      5  C   UNL     1       0.457  -2.236  -1.401  0.00  0.00    -0.076 C 
ATOM      6  C   UNL     1       0.150  -1.500   0.888  0.00  0.00    -0.076 C 
ATOM      7  H   UNL     1      -0.684  -3.133   0.018  0.00  0.00    -0.080 HD
ENDROOT
BRANCH   2   9
ATOM      8  O   UNL     1       4.806  -1.284   1.378  0.00  0.00    -0.270 OA
ATOM      9  N   UNL     1       3.053  -1.115  -0.131  0.00  0.00    -0.303 N 
ATOM     10  C   UNL     1       4.205  -0.671   0.500  0.00  0.00    +0.246 C 
ATOM     11  H   UNL     1       2.644  -0.549  -0.825  0.00  0.00    +0.150 HD
BRANCH  10  12
ATOM     12  C   UNL     1       4.705   0.661   0.073  0.00  0.00    +0.053 C 
ATOM     13  C   UNL     1       5.443   1.413   0.965  0.00  0.00    +0.005 C 
ATOM     14  C   UNL     1       4.416   1.104  -1.201  0.00  0.00    +0.005 C 
ATOM     15  C   UNL     1       5.912   2.664   0.564  0.00  0.00    +0.000 C 
ATOM     16  C   UNL     1       4.886   2.355  -1.601  0.00  0.00    +0.000 C 
ATOM     17  C   UNL     1       5.634   3.135  -0.719  0.00  0.00    +0.000 C 
ENDBRANCH  10  12
ENDBRANCH   2   9
BRANCH   1  18
ATOM     18  C   UNL     1      -1.710  -1.506  -0.643  0.00  0.00    -0.073 C 
BRANCH  18  19
ATOM     19  C   UNL     1      -2.699  -1.479   0.523  0.00  0.00    +0.005 C 
BRANCH  19  21
ATOM     20  N   UNL     1      -6.033  -0.506  -0.603  0.00  0.00    -0.312 N 
ATOM     21  C   UNL     1      -3.993  -0.810   0.136  0.00  0.00    -0.008 C 
ATOM     22  C   UNL     1      -4.273   0.561   0.259  0.00  0.00    +0.011 C 
ATOM     23  C   UNL     1      -5.068  -1.453  -0.389  0.00  0.00    +0.057 C 
ATOM     24  C   UNL     1      -5.575   0.734  -0.216  0.00  0.00    +0.048 C 
ATOM     25  C   UNL     1      -3.566   1.688   0.723  0.00  0.00    +0.001 C 
ATOM     26  C   UNL     1      -6.207   1.981  -0.250  0.00  0.00    +0.015 C 
ATOM     27  C   UNL     1      -4.186   2.942   0.695  0.00  0.00    +0.000 C 
ATOM     28  C   UNL     1      -5.486   3.085   0.215  0.00  0.00    +0.001 C 
ATOM     29  H   UNL     1      -6.925  -0.685  -0.978  0.00  0.00    +0.152 HD
ENDBRANCH  19  21
ENDBRANCH  18  19
ENDBRANCH   1  18
TORSDOF 5
