REMARK  Name = 23646577
REMARK  1 active torsions:
REMARK  status: ('A' for Active; 'I' for Inactive)
REMARK    1  A    between atoms: C_30  and  C_35
REMARK                            x       y       z     vdW  Elec       q    Type
REMARK                         _______ _______ _______ _____ _____    ______ ____
ROOT
ATOM      1  O   UNL     1      -0.231   0.931  -1.255  0.00  0.00    -0.277 OA
ATOM      2  O   UNL     1      -1.117  -2.581   1.317  0.00  0.00    -0.453 OA
ATOM      3  N   UNL     1      -1.521   2.501  -0.042  0.00  0.00    -0.260 N 
ATOM      4  N   UNL     1       1.983   2.337   0.125  0.00  0.00    +0.394 N 
ATOM      5  N   UNL     1       4.269   0.164   0.529  0.00  0.00    -0.270 N 
ATOM      6  N   UNL     1       6.287   0.744  -0.213  0.00  0.00    -0.225 NA
ATOM      7  C   UNL     1       0.766   2.975  -0.380  0.00  0.00    +0.020 C 
ATOM      8  C   UNL     1       0.163   3.905   0.679  0.00  0.00    +0.009 C 
ATOM      9  C   UNL     1      -1.320   3.871   0.366  0.00  0.00    +0.096 C 
ATOM     10  C   UNL     1      -0.347   1.964  -0.611  0.00  0.00    +0.209 C 
ATOM     11  C   UNL     1      -2.799   1.871  -0.045  0.00  0.00    +0.054 C 
ATOM     12  C   UNL     1       2.725   1.622  -0.915  0.00  0.00    -0.036 C 
ATOM     13  C   UNL     1      -2.964   0.474   0.203  0.00  0.00    +0.017 C 
ATOM     14  C   UNL     1       4.050   1.125  -0.434  0.00  0.00    +0.028 C 
ATOM     15  C   UNL     1      -3.928   2.657  -0.325  0.00  0.00    +0.015 C 
ATOM     16  C   UNL     1      -4.245  -0.110   0.033  0.00  0.00    +0.001 C 
ATOM     17  C   UNL     1      -1.939  -0.372   0.685  0.00  0.00    +0.039 C 
ATOM     18  C   UNL     1       3.305  -0.488   1.407  0.00  0.00    +0.123 C 
ATOM     19  C   UNL     1      -5.184   2.073  -0.463  0.00  0.00    +0.001 C 
ATOM     20  C   UNL     1      -5.336   0.699  -0.310  0.00  0.00    +0.000 C 
ATOM     21  C   UNL     1       5.320   1.456  -0.870  0.00  0.00    +0.109 C 
ATOM     22  C   UNL     1      -2.119  -1.748   0.860  0.00  0.00    +0.145 C 
ATOM     23  C   UNL     1      -4.426  -1.491   0.238  0.00  0.00    +0.003 C 
ATOM     24  C   UNL     1       2.326  -1.406   0.724  0.00  0.00    +0.001 C 
ATOM     25  C   UNL     1       5.625  -0.021   0.623  0.00  0.00    +0.168 C 
ATOM     26  C   UNL     1      -3.369  -2.308   0.640  0.00  0.00    +0.037 C 
ATOM     27  C   UNL     1       1.075  -1.606   1.328  0.00  0.00    +0.036 C 
ATOM     28  C   UNL     1       0.112  -2.416   0.719  0.00  0.00    +0.155 C 
ATOM     29  C   UNL     1       2.621  -2.118  -0.448  0.00  0.00    -0.002 C 
ATOM     30  C   UNL     1       0.405  -3.100  -0.458  0.00  0.00    +0.103 C 
ATOM     31  C   UNL     1       1.665  -2.953  -1.036  0.00  0.00    +0.013 C 
ATOM     32  H   UNL     1       1.723   1.673   0.854  0.00  0.00    -0.083 HD
ATOM     33  H   UNL     1       2.590   3.075   0.482  0.00  0.00    -0.083 HD
ENDROOT
BRANCH  30  35
ATOM     34  N   UNL     1      -1.312  -4.678  -1.588  0.00  0.00    -0.191 NA
ATOM     35  C   UNL     1      -0.543  -3.971  -1.082  0.00  0.00    +0.103 C 
ENDBRANCH  30  35
TORSDOF 1
