REMARK  Name = 6914666
REMARK  5 active torsions:
REMARK  status: ('A' for Active; 'I' for Inactive)
REMARK    1  A    between atoms: C_5  and  O_21
REMARK    2  A    between atoms: CA_6  and  C_14
REMARK    3  A    between atoms: N_13  and  CA_16
REMARK    4  A    between atoms: CA_16  and  C_18
REMARK    5  A    between atoms: C_18  and  O_19
REMARK                            x       y       z     vdW  Elec       q    Type
REMARK                         _______ _______ _______ _____ _____    ______ ____
ROOT
ATOM      1 CL   UNL     1      -1.276  -3.265  -0.088  0.00  0.00    -0.048 Cl
ATOM      2  N   UNL     1       0.044  -1.075  -0.113  0.00  0.00    -0.387 NA
ATOM      3  C   UNL     1      -2.164   0.666   0.027  0.00  0.00    +0.015 C 
ATOM      4  C   UNL     1      -2.360  -0.730   0.012  0.00  0.00    +0.039 C 
ATOM      5  C   UNL     1      -0.858   1.167  -0.029  0.00  0.00    +0.190 C 
ATOM      6  CA  UNL     1       0.194   0.266  -0.096  0.00  0.00    +0.194 C 
ATOM      7  C   UNL     1      -3.282   1.512   0.096  0.00  0.00    -0.001 C 
ATOM      8  C   UNL     1      -1.224  -1.540  -0.058  0.00  0.00    +0.188 C 
ATOM      9  C   UNL     1      -3.663  -1.254   0.066  0.00  0.00    +0.003 C 
ATOM     10  C   UNL     1      -4.572   0.982   0.150  0.00  0.00    -0.000 C 
ATOM     11  C   UNL     1      -4.762  -0.398   0.135  0.00  0.00    +0.000 C 
ENDROOT
BRANCH   6  14
ATOM     12  O   UNL     1       1.909   1.786   0.401  0.00  0.00    -0.268 OA
ATOM     13  N   UNL     1       2.484  -0.087  -0.839  0.00  0.00    -0.290 N 
ATOM     14  C   ACE A   1       1.573   0.726  -0.155  0.00  0.00    +0.275 C 
ATOM     15  H   UNL     1       2.149  -0.913  -1.256  0.00  0.00    +0.150 HD
BRANCH  13  16
ATOM     16  CA  UNL     1       3.891   0.221  -0.965  0.00  0.00    +0.201 C 
BRANCH  16  18
ATOM     17  OXT UNL     1       4.270  -1.389   0.788  0.00  0.00    -0.248 OA
ATOM     18  C   UNL     1       4.635  -0.385   0.190  0.00  0.00    +0.334 C 
BRANCH  18  19
ATOM     19  O   UNL     1       5.772   0.291   0.493  0.00  0.00    -0.479 OA
ATOM     20  H   UNL     1       6.007   1.055   0.004  0.00  0.00    +0.295 HD
ENDBRANCH  18  19
ENDBRANCH  16  18
ENDBRANCH  13  16
ENDBRANCH   6  14
BRANCH   5  21
ATOM     21  O   UNL     1      -0.610   2.506  -0.017  0.00  0.00    -0.373 OA
ATOM     22  H   UNL     1      -1.322   3.114   0.029  0.00  0.00    +0.211 HD
ENDBRANCH   5  21
TORSDOF 5
