3000237
  -OEChem-10051721243D

 41 43  0     1  0  0  0  0  0999 V2000
   -1.5251   -4.6017   -0.2241 Cl  0  0  0  0  0  0  0  0  0  0  0  0
   -4.1011    2.7964   -0.0665 S   0  0  0  0  0  0  0  0  0  0  0  0
    1.2284    0.9888   -0.1175 N   0  0  2  0  0  0  0  0  0  0  0  0
   -1.8368    1.2186    0.3351 N   0  0  0  0  0  0  0  0  0  0  0  0
   -3.7191    0.1111   -0.3050 N   0  0  0  0  0  0  0  0  0  0  0  0
    0.4590    2.2462    0.0358 C   0  0  2  0  0  0  0  0  0  0  0  0
   -0.8687    2.1847    0.8266 C   0  0  0  0  0  0  0  0  0  0  0  0
    0.9131   -0.0760    0.8454 C   0  0  0  0  0  0  0  0  0  0  0  0
   -1.5430   -0.1537    0.2512 C   0  0  0  0  0  0  0  0  0  0  0  0
   -0.3488   -0.8112    0.4794 C   0  0  0  0  0  0  0  0  0  0  0  0
    2.6705    1.2574   -0.1275 C   0  0  0  0  0  0  0  0  0  0  0  0
   -2.7003   -0.8257   -0.1360 C   0  0  0  0  0  0  0  0  0  0  0  0
    0.1927    2.8182   -1.3656 C   0  0  0  0  0  0  0  0  0  0  0  0
   -3.2043    1.3986   -0.0085 C   0  0  0  0  0  0  0  0  0  0  0  0
   -0.3759   -2.2082    0.3318 C   0  0  0  0  0  0  0  0  0  0  0  0
   -2.7404   -2.1914   -0.2959 C   0  0  0  0  0  0  0  0  0  0  0  0
   -1.5546   -2.8868   -0.0500 C   0  0  0  0  0  0  0  0  0  0  0  0
    3.4521    0.0360   -0.5132 C   0  0  0  0  0  0  0  0  0  0  0  0
    4.6958   -0.3146   -0.1330 C   0  0  0  0  0  0  0  0  0  0  0  0
    5.4229   -1.5585   -0.5589 C   0  0  0  0  0  0  0  0  0  0  0  0
    5.4835    0.5718    0.7965 C   0  0  0  0  0  0  0  0  0  0  0  0
    1.0732    2.9782    0.5793 H   0  0  0  0  0  0  0  0  0  0  0  0
   -0.6807    1.9512    1.8819 H   0  0  0  0  0  0  0  0  0  0  0  0
   -1.3286    3.1790    0.8279 H   0  0  0  0  0  0  0  0  0  0  0  0
    0.8412    0.3125    1.8694 H   0  0  0  0  0  0  0  0  0  0  0  0
    1.7029   -0.8333    0.8998 H   0  0  0  0  0  0  0  0  0  0  0  0
    2.9020    2.0300   -0.8696 H   0  0  0  0  0  0  0  0  0  0  0  0
    2.9729    1.6341    0.8559 H   0  0  0  0  0  0  0  0  0  0  0  0
   -0.3517    3.7667   -1.3001 H   0  0  0  0  0  0  0  0  0  0  0  0
    1.1240    3.0194   -1.9049 H   0  0  0  0  0  0  0  0  0  0  0  0
   -0.4043    2.1297   -1.9742 H   0  0  0  0  0  0  0  0  0  0  0  0
   -4.6679   -0.1075   -0.5825 H   0  0  0  0  0  0  0  0  0  0  0  0
    0.5343   -2.7805    0.5045 H   0  0  0  0  0  0  0  0  0  0  0  0
   -3.6514   -2.6978   -0.5945 H   0  0  0  0  0  0  0  0  0  0  0  0
    2.9607   -0.6279   -1.2258 H   0  0  0  0  0  0  0  0  0  0  0  0
    5.6927   -2.1605    0.3146 H   0  0  0  0  0  0  0  0  0  0  0  0
    4.8051   -2.1799   -1.2154 H   0  0  0  0  0  0  0  0  0  0  0  0
    6.3366   -1.3010   -1.1041 H   0  0  0  0  0  0  0  0  0  0  0  0
    5.0856    1.5844    0.8948 H   0  0  0  0  0  0  0  0  0  0  0  0
    5.5311    0.1213    1.7932 H   0  0  0  0  0  0  0  0  0  0  0  0
    6.5086    0.6844    0.4252 H   0  0  0  0  0  0  0  0  0  0  0  0
  1 17  1  0  0  0  0
  2 14  2  0  0  0  0
  3  6  1  0  0  0  0
  3  8  1  0  0  0  0
  3 11  1  0  0  0  0
  4  7  1  0  0  0  0
  4  9  1  0  0  0  0
  4 14  1  0  0  0  0
  5 12  1  0  0  0  0
  5 14  1  0  0  0  0
  5 32  1  0  0  0  0
  6  7  1  0  0  0  0
  6 13  1  0  0  0  0
  6 22  1  0  0  0  0
  7 23  1  0  0  0  0
  7 24  1  0  0  0  0
  8 10  1  0  0  0  0
  8 25  1  0  0  0  0
  8 26  1  0  0  0  0
  9 10  2  0  0  0  0
  9 12  1  0  0  0  0
 10 15  1  0  0  0  0
 11 18  1  0  0  0  0
 11 27  1  0  0  0  0
 11 28  1  0  0  0  0
 12 16  2  0  0  0  0
 13 29  1  0  0  0  0
 13 30  1  0  0  0  0
 13 31  1  0  0  0  0
 15 17  2  0  0  0  0
 15 33  1  0  0  0  0
 16 17  1  0  0  0  0
 16 34  1  0  0  0  0
 18 19  2  0  0  0  0
 18 35  1  0  0  0  0
 19 20  1  0  0  0  0
 19 21  1  0  0  0  0
 20 36  1  0  0  0  0
 20 37  1  0  0  0  0
 20 38  1  0  0  0  0
 21 39  1  0  0  0  0
 21 40  1  0  0  0  0
 21 41  1  0  0  0  0
M  END
> <DATABASE_ID>
DB08598

> <DATABASE_NAME>
drugbank

> <ORIGINAL_SOURCE>
PUBCHEM

> <ORIGINAL_SOURCE_URL>
https://pubchem.ncbi.nlm.nih.gov/rest/pug/compound/inchikey/RCSLUNOLLUVOOG-NSHDSACASA-N/SDF?record_type=3d

> <SMILES>
[H][C@]1(C)CN2C(=S)NC3=C2C(CN1CC=C(C)C)=CC(Cl)=C3

> <INCHI_IDENTIFIER>
InChI=1S/C16H20ClN3S/c1-10(2)4-5-19-9-12-6-13(17)7-14-15(12)20(8-11(19)3)16(21)18-14/h4,6-7,11H,5,8-9H2,1-3H3,(H,18,21)/t11-/m0/s1

> <INCHI_KEY>
RCSLUNOLLUVOOG-NSHDSACASA-N

> <FORMULA>
C16H20ClN3S

> <MOLECULAR_WEIGHT>
321.868

> <EXACT_MASS>
321.106646052

> <JCHEM_ACCEPTOR_COUNT>
1

> <JCHEM_AVERAGE_POLARIZABILITY>
35.61199550182269

> <JCHEM_BIOAVAILABILITY>
1

> <JCHEM_DONOR_COUNT>
1

> <JCHEM_FORMAL_CHARGE>
0

> <JCHEM_GHOSE_FILTER>
1

> <JCHEM_IUPAC>
(11S)-6-chloro-11-methyl-10-(3-methylbut-2-en-1-yl)-1,3,10-triazatricyclo[6.4.1.0⁴,¹³]trideca-4(13),5,7-triene-2-thione

> <ALOGPS_LOGP>
3.22

> <JCHEM_LOGP>
4.063070255702881

> <ALOGPS_LOGS>
-4.01

> <JCHEM_MDDR_LIKE_RULE>
0

> <JCHEM_NUMBER_OF_RINGS>
3

> <JCHEM_PHYSIOLOGICAL_CHARGE>
0

> <JCHEM_PKA_STRONGEST_ACIDIC>
8.106357303768634

> <JCHEM_PKA_STRONGEST_BASIC>
6.555200335496041

> <JCHEM_POLAR_SURFACE_AREA>
18.509999999999998

> <JCHEM_REFRACTIVITY>
96.0171

> <JCHEM_ROTATABLE_BOND_COUNT>
2

> <JCHEM_RULE_OF_FIVE>
1

> <ALOGPS_SOLUBILITY>
3.13e-02 g/l

> <JCHEM_TRADITIONAL_IUPAC>
(11S)-6-chloro-11-methyl-10-(3-methylbut-2-en-1-yl)-1,3,10-triazatricyclo[6.4.1.0⁴,¹³]trideca-4(13),5,7-triene-2-thione

> <JCHEM_VEBER_RULE>
1

> <DRUGBANK_ID>
DB08598

> <DRUG_GROUPS>
experimental

> <GENERIC_NAME>
4-CHLORO-8-METHYL-7-(3-METHYL-BUT-2-ENYL)-6,7,8,9-TETRAHYDRO-2H-2,7,9A-TRIAZA-BENZO[CD]AZULENE-1-THIONE

$$$$
