REMARK  Name = 11117974
REMARK  3 active torsions:
REMARK  status: ('A' for Active; 'I' for Inactive)
REMARK    1  A    between atoms: C_4  and  C_15
REMARK    2  A    between atoms: C_15  and  C_17
REMARK    3  A    between atoms: C_17  and  O_18
REMARK                            x       y       z     vdW  Elec       q    Type
REMARK                         _______ _______ _______ _____ _____    ______ ____
ROOT
ATOM      1  O   UNL     1      -1.442   2.489   0.996  0.00  0.00    -0.273 OA
ATOM      2  N   UNL     1       0.508   2.156  -0.218  0.00  0.00    -0.272 N 
ATOM      3  N   UNL     1      -0.441  -0.614   0.419  0.00  0.00    -0.327 N 
ATOM      4  C   UNL     1      -1.238   0.419  -0.223  0.00  0.00    +0.158 C 
ATOM      5  C   UNL     1       1.281   1.315  -1.133  0.00  0.00    +0.121 C 
ATOM      6  C   UNL     1       1.776   0.051  -0.472  0.00  0.00    +0.011 C 
ATOM      7  C   UNL     1      -0.756   1.789   0.250  0.00  0.00    +0.244 C 
ATOM      8  C   UNL     1       0.921  -0.817   0.241  0.00  0.00    +0.042 C 
ATOM      9  C   UNL     1       3.143  -0.265  -0.601  0.00  0.00    -0.001 C 
ATOM     10  C   UNL     1       1.123   3.403   0.215  0.00  0.00    +0.115 C 
ATOM     11  C   UNL     1       1.490  -1.968   0.826  0.00  0.00    +0.014 C 
ATOM     12  C   UNL     1       3.675  -1.412  -0.018  0.00  0.00    -0.000 C 
ATOM     13  C   UNL     1       2.848  -2.264   0.699  0.00  0.00    +0.001 C 
ATOM     14  H   UNL     1      -0.909  -1.224   1.034  0.00  0.00    +0.147 HD
ENDROOT
BRANCH   4  15
ATOM     15  C   UNL     1      -2.708   0.202   0.138  0.00  0.00    +0.138 C 
BRANCH  15  17
ATOM     16  O   UNL     1      -2.802  -1.764  -1.299  0.00  0.00    -0.250 OA
ATOM     17  C   UNL     1      -3.200  -1.140  -0.327  0.00  0.00    +0.316 C 
BRANCH  17  18
ATOM     18  O   UNL     1      -4.178  -1.581   0.505  0.00  0.00    -0.480 OA
ATOM     19  H   UNL     1      -4.443  -1.059   1.236  0.00  0.00    +0.295 HD
ENDBRANCH  17  18
ENDBRANCH  15  17
ENDBRANCH   4  15
TORSDOF 3
