REMARK  Name = 24886843
REMARK  5 active torsions:
REMARK  status: ('A' for Active; 'I' for Inactive)
REMARK    1  A    between atoms: C_3  and  C_19
REMARK    2  A    between atoms: C_6  and  O_9
REMARK    3  A    between atoms: O_9  and  C_11
REMARK    4  A    between atoms: C_14  and  C_18
REMARK    5  A    between atoms: C_19  and  C_24
REMARK                            x       y       z     vdW  Elec       q    Type
REMARK                         _______ _______ _______ _____ _____    ______ ____
ROOT
ATOM      1 BR   UNL     1      -2.464  -4.394   1.054  0.00  0.00    -0.046 Br
ATOM      2  F   UNL     1      -0.291  -0.442  -1.620  0.00  0.00    -0.201 F 
ATOM      3  C   UNL     1       1.177  -2.132  -0.839  0.00  0.00    +0.014 C 
ATOM      4  C   UNL     1      -0.105  -1.596  -0.963  0.00  0.00    +0.171 C 
ATOM      5  C   UNL     1       1.367  -3.333  -0.156  0.00  0.00    -0.001 C 
ATOM      6  C   UNL     1      -1.196  -2.261  -0.403  0.00  0.00    +0.178 C 
ATOM      7  C   UNL     1       0.276  -3.998   0.404  0.00  0.00    +0.010 C 
ATOM      8  C   UNL     1      -1.006  -3.462   0.280  0.00  0.00    +0.071 C 
ENDROOT
BRANCH   6   9
ATOM      9  O   UNL     1      -2.437  -1.712  -0.540  0.00  0.00    -0.451 OA
BRANCH   9  11
ATOM     10 CL   UNL     1      -1.796   1.511   3.369  0.00  0.00    -0.082 Cl
ATOM     11  C   UNL     1      -2.642  -0.449  -0.014  0.00  0.00    +0.147 C 
ATOM     12  C   UNL     1      -3.320   0.516  -0.758  0.00  0.00    +0.048 C 
ATOM     13  C   UNL     1      -2.171  -0.142   1.263  0.00  0.00    +0.049 C 
ATOM     14  C   UNL     1      -3.526   1.789  -0.227  0.00  0.00    +0.072 C 
ATOM     15  C   UNL     1      -2.377   1.131   1.794  0.00  0.00    +0.061 C 
ATOM     16  C   UNL     1      -3.055   2.096   1.049  0.00  0.00    +0.022 C 
BRANCH  14  18
ATOM     17  N   UNL     1      -4.784   3.579  -1.612  0.00  0.00    -0.191 NA
ATOM     18  C   UNL     1      -4.220   2.777  -0.991  0.00  0.00    +0.101 C 
ENDBRANCH  14  18
ENDBRANCH   9  11
ENDBRANCH   6   9
BRANCH   3  19
ATOM     19  C   UNL     1       2.370  -1.409  -1.449  0.00  0.00    +0.072 C 
BRANCH  19  24
ATOM     20  N   UNL     1       3.872  -0.838   0.447  0.00  0.00    -0.231 N 
ATOM     21  N   UNL     1       4.385   0.173   1.179  0.00  0.00    -0.126 NA
ATOM     22  N   UNL     1       4.017   2.563   0.979  0.00  0.00    -0.103 NA
ATOM     23  N   UNL     1       3.320   3.451   0.217  0.00  0.00    -0.107 NA
ATOM     24  C   UNL     1       3.023  -0.441  -0.551  0.00  0.00    +0.057 C 
ATOM     25  C   UNL     1       2.985   0.924  -0.455  0.00  0.00    +0.078 C 
ATOM     26  C   UNL     1       3.841   1.262   0.628  0.00  0.00    +0.072 C 
ATOM     27  C   UNL     1       2.255   1.771  -1.260  0.00  0.00    +0.031 C 
ATOM     28  C   UNL     1       2.501   3.067  -0.825  0.00  0.00    +0.110 C 
ATOM     29  H   UNL     1       4.090  -1.783   0.616  0.00  0.00    +0.175 HD
ENDBRANCH  19  24
ENDBRANCH   3  19
TORSDOF 5
