REMARK  Name = 5272139
REMARK  10 active torsions:
REMARK  status: ('A' for Active; 'I' for Inactive)
REMARK    1  A    between atoms: O_1  and  C_3
REMARK    2  A    between atoms: O_1  and  C_14
REMARK    3  A    between atoms: C_2  and  C_12
REMARK    4  A    between atoms: C_14  and  C_15
REMARK    5  A    between atoms: C_15  and  C_16
REMARK    6  A    between atoms: C_16  and  C_17
REMARK    7  A    between atoms: C_17  and  C_18
REMARK    8  A    between atoms: C_18  and  C_19
REMARK    9  A    between atoms: C_19  and  C_20
REMARK   10  A    between atoms: C_20  and  C_23
REMARK                            x       y       z     vdW  Elec       q    Type
REMARK                         _______ _______ _______ _____ _____    ______ ____
ROOT
ATOM      1  O   UNL     1       1.703   1.408   0.736  0.00  0.00    -0.475 OA
ENDROOT
BRANCH   1   3
ATOM      2  C   UNL     1       5.603   0.213  -0.081  0.00  0.00    +0.053 C 
ATOM      3  C   UNL     1       2.987   1.013   0.465  0.00  0.00    +0.139 C 
ATOM      4  C   UNL     1       4.782  -0.585   0.715  0.00  0.00    +0.008 C 
ATOM      5  C   UNL     1       5.117   1.411  -0.604  0.00  0.00    +0.008 C 
ATOM      6  C   UNL     1       3.474  -0.185   0.988  0.00  0.00    +0.037 C 
ATOM      7  C   UNL     1       3.809   1.811  -0.331  0.00  0.00    +0.037 C 
BRANCH   2  12
ATOM      8  O   UNL     1       7.687   0.652  -1.142  0.00  0.00    -0.458 OA
ATOM      9  N   UNL     1       7.553  -1.293   0.054  0.00  0.00    -0.236 NA
ATOM     10  C   UNL     1       8.873  -1.256  -0.596  0.00  0.00    +0.150 C 
ATOM     11  C   UNL     1       9.023   0.175  -1.072  0.00  0.00    +0.231 C 
ATOM     12  C   UNL     1       6.982  -0.209  -0.368  0.00  0.00    +0.220 C 
ATOM     13  C   UNL     1       9.954  -1.679   0.381  0.00  0.00    +0.030 C 
ENDBRANCH   2  12
ENDBRANCH   1   3
BRANCH   1  14
ATOM     14  C   UNL     1       0.747   0.378   0.946  0.00  0.00    +0.205 C 
BRANCH  14  15
ATOM     15  C   UNL     1      -0.623   0.883   0.516  0.00  0.00    +0.047 C 
BRANCH  15  16
ATOM     16  C   UNL     1      -1.701  -0.183   0.701  0.00  0.00    +0.004 C 
BRANCH  16  17
ATOM     17  C   UNL     1      -3.081   0.346   0.307  0.00  0.00    +0.000 C 
BRANCH  17  18
ATOM     18  C   UNL     1      -4.165  -0.712   0.525  0.00  0.00    +0.000 C 
BRANCH  18  19
ATOM     19  C   UNL     1      -5.550  -0.169   0.161  0.00  0.00    +0.008 C 
BRANCH  19  20
ATOM     20  C   UNL     1      -6.669  -1.202   0.333  0.00  0.00    +0.067 C 
BRANCH  20  23
ATOM     21  O   UNL     1      -8.412  -0.828  -1.332  0.00  0.00    -0.358 OA
ATOM     22  N   UNL     1      -9.680  -0.288  -1.506  0.00  0.00    -0.082 NA
ATOM     23  C   UNL     1      -8.032  -0.671  -0.038  0.00  0.00    +0.154 C 
ATOM     24  C   UNL     1      -9.024  -0.035   0.660  0.00  0.00    +0.054 C 
ATOM     25  C   UNL     1     -10.025   0.179  -0.303  0.00  0.00    +0.101 C 
ATOM     26  C   UNL     1     -11.333   0.829  -0.116  0.00  0.00    +0.056 C 
ENDBRANCH  20  23
ENDBRANCH  19  20
ENDBRANCH  18  19
ENDBRANCH  17  18
ENDBRANCH  16  17
ENDBRANCH  15  16
ENDBRANCH  14  15
ENDBRANCH   1  14
TORSDOF 10
