3344
  -OEChem-10051722003D

 39 41  0     0  0  0  0  0  0999 V2000
   -3.3256   -0.9004   -0.0396 O   0  0  0  0  0  0  0  0  0  0  0  0
   -5.1750   -2.0803   -0.7000 O   0  0  0  0  0  0  0  0  0  0  0  0
   -0.1615    0.7724   -0.1552 N   0  0  0  0  0  0  0  0  0  0  0  0
   -5.3184    0.1127    0.0607 N   0  0  0  0  0  0  0  0  0  0  0  0
   -3.0543    0.4893    0.2650 C   0  0  0  0  0  0  0  0  0  0  0  0
   -2.0571    0.5619    1.4244 C   0  0  0  0  0  0  0  0  0  0  0  0
   -2.4612    1.1574   -0.9846 C   0  0  0  0  0  0  0  0  0  0  0  0
   -0.6717    0.0491    1.0169 C   0  0  0  0  0  0  0  0  0  0  0  0
   -1.0624    0.6200   -1.3052 C   0  0  0  0  0  0  0  0  0  0  0  0
   -4.4172    1.0586    0.6341 C   0  0  0  0  0  0  0  0  0  0  0  0
    1.1843    0.3108   -0.4951 C   0  0  0  0  0  0  0  0  0  0  0  0
   -4.6683   -1.0525   -0.2739 C   0  0  0  0  0  0  0  0  0  0  0  0
    2.1622    0.5840    0.6483 C   0  0  0  0  0  0  0  0  0  0  0  0
    3.5587    0.1329    0.3017 C   0  0  0  0  0  0  0  0  0  0  0  0
    3.9521   -1.1611    0.6081 C   0  0  0  0  0  0  0  0  0  0  0  0
    4.4266    1.0193   -0.3181 C   0  0  0  0  0  0  0  0  0  0  0  0
    5.2438   -1.5786    0.2874 C   0  0  0  0  0  0  0  0  0  0  0  0
    5.7183    0.6017   -0.6390 C   0  0  0  0  0  0  0  0  0  0  0  0
    6.1268   -0.6973   -0.3361 C   0  0  0  0  0  0  0  0  0  0  0  0
   -2.4137   -0.0445    2.2665 H   0  0  0  0  0  0  0  0  0  0  0  0
   -1.9720    1.5978    1.7777 H   0  0  0  0  0  0  0  0  0  0  0  0
   -2.4030    2.2432   -0.8341 H   0  0  0  0  0  0  0  0  0  0  0  0
   -3.1048    0.9822   -1.8555 H   0  0  0  0  0  0  0  0  0  0  0  0
   -0.0463    0.2042    1.8996 H   0  0  0  0  0  0  0  0  0  0  0  0
   -0.7124   -1.0316    0.8277 H   0  0  0  0  0  0  0  0  0  0  0  0
   -1.1285   -0.4309   -1.6159 H   0  0  0  0  0  0  0  0  0  0  0  0
   -0.6720    1.1856   -2.1602 H   0  0  0  0  0  0  0  0  0  0  0  0
   -4.5961    1.0638    1.7143 H   0  0  0  0  0  0  0  0  0  0  0  0
   -4.6113    2.0578    0.2350 H   0  0  0  0  0  0  0  0  0  0  0  0
    1.1816   -0.7586   -0.7467 H   0  0  0  0  0  0  0  0  0  0  0  0
    1.5363    0.8431   -1.3887 H   0  0  0  0  0  0  0  0  0  0  0  0
   -6.3237    0.2397    0.0011 H   0  0  0  0  0  0  0  0  0  0  0  0
    1.8913    0.0645    1.5728 H   0  0  0  0  0  0  0  0  0  0  0  0
    2.1722    1.6540    0.8954 H   0  0  0  0  0  0  0  0  0  0  0  0
    3.2712   -1.8564    1.0911 H   0  0  0  0  0  0  0  0  0  0  0  0
    4.1171    2.0322   -0.5597 H   0  0  0  0  0  0  0  0  0  0  0  0
    5.5618   -2.5901    0.5225 H   0  0  0  0  0  0  0  0  0  0  0  0
    6.4059    1.2876   -1.1251 H   0  0  0  0  0  0  0  0  0  0  0  0
    7.1325   -1.0224   -0.5862 H   0  0  0  0  0  0  0  0  0  0  0  0
  1  5  1  0  0  0  0
  1 12  1  0  0  0  0
  2 12  2  0  0  0  0
  3  8  1  0  0  0  0
  3  9  1  0  0  0  0
  3 11  1  0  0  0  0
  4 10  1  0  0  0  0
  4 12  1  0  0  0  0
  4 32  1  0  0  0  0
  5  6  1  0  0  0  0
  5  7  1  0  0  0  0
  5 10  1  0  0  0  0
  6  8  1  0  0  0  0
  6 20  1  0  0  0  0
  6 21  1  0  0  0  0
  7  9  1  0  0  0  0
  7 22  1  0  0  0  0
  7 23  1  0  0  0  0
  8 24  1  0  0  0  0
  8 25  1  0  0  0  0
  9 26  1  0  0  0  0
  9 27  1  0  0  0  0
 10 28  1  0  0  0  0
 10 29  1  0  0  0  0
 11 13  1  0  0  0  0
 11 30  1  0  0  0  0
 11 31  1  0  0  0  0
 13 14  1  0  0  0  0
 13 33  1  0  0  0  0
 13 34  1  0  0  0  0
 14 15  2  0  0  0  0
 14 16  1  0  0  0  0
 15 17  1  0  0  0  0
 15 35  1  0  0  0  0
 16 18  2  0  0  0  0
 16 36  1  0  0  0  0
 17 19  2  0  0  0  0
 17 37  1  0  0  0  0
 18 19  1  0  0  0  0
 18 38  1  0  0  0  0
 19 39  1  0  0  0  0
M  END
> <DATABASE_ID>
DB08979

> <DATABASE_NAME>
drugbank

> <ORIGINAL_SOURCE>
PUBCHEM

> <ORIGINAL_SOURCE_URL>
https://pubchem.ncbi.nlm.nih.gov/rest/pug/compound/inchikey/FVNFBBAOMBJTST-UHFFFAOYSA-N/SDF?record_type=3d

> <SMILES>
OC1=NCC2(CCN(CCC3=CC=CC=C3)CC2)O1

> <INCHI_IDENTIFIER>
InChI=1S/C15H20N2O2/c18-14-16-12-15(19-14)7-10-17(11-8-15)9-6-13-4-2-1-3-5-13/h1-5H,6-12H2,(H,16,18)

> <INCHI_KEY>
FVNFBBAOMBJTST-UHFFFAOYSA-N

> <FORMULA>
C15H20N2O2

> <MOLECULAR_WEIGHT>
260.3315

> <EXACT_MASS>
260.152477894

> <JCHEM_ACCEPTOR_COUNT>
4

> <JCHEM_AVERAGE_POLARIZABILITY>
29.175618136790398

> <JCHEM_BIOAVAILABILITY>
1

> <JCHEM_DONOR_COUNT>
1

> <JCHEM_FORMAL_CHARGE>
0

> <JCHEM_GHOSE_FILTER>
1

> <JCHEM_IUPAC>
8-(2-phenylethyl)-1-oxa-3,8-diazaspiro[4.5]dec-2-en-2-ol

> <ALOGPS_LOGP>
1.81

> <JCHEM_LOGP>
0.9844113190788227

> <ALOGPS_LOGS>
-2.79

> <JCHEM_MDDR_LIKE_RULE>
0

> <JCHEM_NUMBER_OF_RINGS>
3

> <JCHEM_PHYSIOLOGICAL_CHARGE>
2

> <JCHEM_PKA_STRONGEST_ACIDIC>
7.985248410758006

> <JCHEM_PKA_STRONGEST_BASIC>
9.372154961017833

> <JCHEM_POLAR_SURFACE_AREA>
45.06

> <JCHEM_REFRACTIVITY>
74.51610000000001

> <JCHEM_ROTATABLE_BOND_COUNT>
3

> <JCHEM_RULE_OF_FIVE>
1

> <ALOGPS_SOLUBILITY>
4.20e-01 g/l

> <JCHEM_TRADITIONAL_IUPAC>
pneumorel

> <JCHEM_VEBER_RULE>
0

> <DRUGBANK_ID>
DB08979

> <DRUG_GROUPS>
experimental

> <GENERIC_NAME>
Fenspiride

> <SYNONYMS>
Fenspirida; Fenspiride; Fenspiridum

> <SALTS>
Fenspiride hydrochloride

$$$$
