REMARK  Name = 15942672
REMARK  5 active torsions:
REMARK  status: ('A' for Active; 'I' for Inactive)
REMARK    1  A    between atoms: N_2  and  C_7
REMARK    2  A    between atoms: N_3  and  C_17
REMARK    3  A    between atoms: C_8  and  C_16
REMARK    4  A    between atoms: C_18  and  O_23
REMARK    5  A    between atoms: O_23  and  C_25
REMARK                            x       y       z     vdW  Elec       q    Type
REMARK                         _______ _______ _______ _____ _____    ______ ____
ROOT
ATOM      1  O   UNL     1      -0.664   0.970  -0.675  0.00  0.00    -0.252 OA
ATOM      2  N   UNL     1      -2.320  -0.537   0.015  0.00  0.00    -0.268 N 
ATOM      3  N   UNL     1      -0.105  -1.193   0.016  0.00  0.00    -0.268 N 
ATOM      4  C   UNL     1      -0.989  -0.138  -0.259  0.00  0.00    +0.308 C 
ATOM      5  H   UNL     1      -2.429  -1.459   0.344  0.00  0.00    +0.156 HD
ATOM      6  H   UNL     1      -0.515  -2.025   0.345  0.00  0.00    +0.156 HD
ENDROOT
BRANCH   2   7
ATOM      7  C   UNL     1      -3.496   0.201  -0.121  0.00  0.00    +0.052 C 
ATOM      8  C   UNL     1      -5.899   0.361   0.068  0.00  0.00    +0.073 C 
ATOM      9  C   UNL     1      -4.723  -0.377   0.204  0.00  0.00    +0.019 C 
ATOM     10  C   UNL     1      -3.444   1.516  -0.582  0.00  0.00    +0.015 C 
ATOM     11  C   UNL     1      -5.847   1.677  -0.393  0.00  0.00    +0.004 C 
ATOM     12  C   UNL     1      -4.620   2.254  -0.718  0.00  0.00    +0.001 C 
BRANCH   8  16
ATOM     13  F   UNL     1      -8.275   0.582   0.235  0.00  0.00    -0.166 F 
ATOM     14  F   UNL     1      -7.505  -1.368  -0.319  0.00  0.00    -0.166 F 
ATOM     15  F   UNL     1      -7.276  -0.651   1.721  0.00  0.00    -0.166 F 
ATOM     16  C   UNL     1      -7.212  -0.255   0.416  0.00  0.00    +0.419 C 
ENDBRANCH   8  16
ENDBRANCH   2   7
BRANCH   3  17
ATOM     17  C   UNL     1       1.303  -1.209  -0.122  0.00  0.00    +0.052 C 
ATOM     18  C   UNL     1       4.060  -1.239  -0.392  0.00  0.00    +0.145 C 
ATOM     19  C   UNL     1       2.003  -2.358   0.204  0.00  0.00    +0.018 C 
ATOM     20  C   UNL     1       1.952  -0.074  -0.580  0.00  0.00    +0.018 C 
ATOM     21  C   UNL     1       3.392  -2.373   0.068  0.00  0.00    +0.039 C 
ATOM     22  C   UNL     1       3.340  -0.089  -0.717  0.00  0.00    +0.039 C 
BRANCH  18  23
ATOM     23  O   UNL     1       5.414  -1.254  -0.527  0.00  0.00    -0.453 OA
BRANCH  23  25
ATOM     24  N   UNL     1       7.531   2.032   0.883  0.00  0.00    -0.242 NA
ATOM     25  C   UNL     1       6.120  -0.160  -0.056  0.00  0.00    +0.148 C 
ATOM     26  C   UNL     1       5.807   0.363   1.181  0.00  0.00    +0.058 C 
ATOM     27  C   UNL     1       7.119   0.383  -0.835  0.00  0.00    +0.058 C 
ATOM     28  C   UNL     1       6.542   1.459   1.605  0.00  0.00    +0.102 C 
ATOM     29  C   UNL     1       7.794   1.478  -0.321  0.00  0.00    +0.102 C 
ENDBRANCH  23  25
ENDBRANCH  18  23
ENDBRANCH   3  17
TORSDOF 5
