REMARK  Name = 108223
REMARK  9 active torsions:
REMARK  status: ('A' for Active; 'I' for Inactive)
REMARK    1  A    between atoms: C_1  and  O_2
REMARK    2  A    between atoms: C_1  and  C_4
REMARK    3  A    between atoms: C_1  and  C_10
REMARK    4  A    between atoms: C_4  and  O_5
REMARK    5  A    between atoms: C_4  and  C_7
REMARK    6  A    between atoms: C_7  and  C_9
REMARK    7  A    between atoms: C_10  and  O_11
REMARK    8  A    between atoms: C_10  and  C_13
REMARK    9  A    between atoms: C_13  and  O_14
REMARK                            x       y       z     vdW  Elec       q    Type
REMARK                         _______ _______ _______ _____ _____    ______ ____
ROOT
ATOM      1  C   UNL     1      -0.588   0.329  -0.159  0.00  0.00    +0.167 C 
ENDROOT
BRANCH   1   2
ATOM      2  O   UNL     1      -0.423   1.484   0.674  0.00  0.00    -0.379 OA
ATOM      3  H   UNL     1       0.306   2.026   0.334  0.00  0.00    +0.211 HD
ENDBRANCH   1   2
BRANCH   1   4
ATOM      4  C   UNL     1       0.781  -0.373  -0.208  0.00  0.00    +0.147 C 
BRANCH   4   5
ATOM      5  O   UNL     1       1.093  -0.813   1.121  0.00  0.00    -0.381 OA
ATOM      6  H   UNL     1       0.386  -1.395   1.443  0.00  0.00    +0.210 HD
ENDBRANCH   4   5
BRANCH   4   7
ATOM      7  C   UNL     1       1.924   0.534  -0.661  0.00  0.00    +0.104 C 
BRANCH   7   9
ATOM      8  O   UNL     1       4.159   0.184   0.174  0.00  0.00    -0.288 OA
ATOM      9  C   UNL     1       3.243  -0.190  -0.551  0.00  0.00    +0.210 C 
ENDBRANCH   7   9
ENDBRANCH   4   7
ENDBRANCH   1   4
BRANCH   1  10
ATOM     10  C   UNL     1      -1.746  -0.525   0.387  0.00  0.00    +0.169 C 
BRANCH  10  11
ATOM     11  O   UNL     1      -1.985  -1.640  -0.475  0.00  0.00    -0.379 OA
ATOM     12  H   UNL     1      -1.170  -2.159  -0.565  0.00  0.00    +0.211 HD
ENDBRANCH  10  11
BRANCH  10  13
ATOM     13  C   UNL     1      -3.056   0.256   0.494  0.00  0.00    +0.169 C 
BRANCH  13  14
ATOM     14  O   UNL     1      -3.401   0.754  -0.795  0.00  0.00    -0.379 OA
ATOM     15  H   UNL     1      -4.232   1.252  -0.738  0.00  0.00    +0.211 HD
ENDBRANCH  13  14
ENDBRANCH  10  13
ENDBRANCH   1  10
TORSDOF 9
