REMARK  Name = 21850055
REMARK  3 active torsions:
REMARK  status: ('A' for Active; 'I' for Inactive)
REMARK    1  A    between atoms: C_5  and  C_14
REMARK    2  A    between atoms: C_15  and  O_20
REMARK    3  A    between atoms: C_16  and  O_22
REMARK                            x       y       z     vdW  Elec       q    Type
REMARK                         _______ _______ _______ _____ _____    ______ ____
ROOT
ATOM      1  N   UNL     1      -1.590   0.002   1.665  0.00  0.00    -0.324 NA
ATOM      2  N   UNL     1      -3.760   0.001   0.855  0.00  0.00    -0.272 NA
ATOM      3  N   UNL     1      -4.220  -0.001  -1.508  0.00  0.00    -0.169 NA
ATOM      4  N   UNL     1      -5.965  -0.002   0.053  0.00  0.00    -0.292 N 
ATOM      5  C   UNL     1       0.301   0.000   0.163  0.00  0.00    +0.051 C 
ATOM      6  C   UNL     1      -0.570  -0.001  -0.912  0.00  0.00    +0.018 C 
ATOM      7  C   UNL     1      -1.954  -0.001  -0.682  0.00  0.00    +0.106 C 
ATOM      8  C   UNL     1      -0.257   0.001   1.424  0.00  0.00    +0.190 C 
ATOM      9  C   UNL     1      -2.441   0.001   0.630  0.00  0.00    +0.152 C 
ATOM     10  C   UNL     1      -2.892  -0.001  -1.711  0.00  0.00    +0.124 C 
ATOM     11  C   UNL     1      -4.579   0.000  -0.217  0.00  0.00    +0.152 C 
ATOM     12  H   UNL     1      -6.286  -0.001   0.984  0.00  0.00    +0.155 HD
ATOM     13  H   UNL     1      -6.611  -0.004  -0.690  0.00  0.00    +0.155 HD
ATOM     14  N   UNL     1       0.606   0.003   2.549  0.00  0.00    -0.332 N 
ATOM     15  H   UNL     1       0.229   0.004   3.459  0.00  0.00    +0.145 HD
ATOM     16  H   UNL     1       1.582   0.003   2.421  0.00  0.00    +0.145 HD
ENDROOT
BRANCH   5  17
ATOM     17  C   UNL     1       1.730   0.000  -0.068  0.00  0.00    +0.072 C 
ATOM     18  C   UNL     1       2.418   1.208  -0.180  0.00  0.00    +0.142 C 
ATOM     19  C   UNL     1       2.419  -1.208  -0.179  0.00  0.00    +0.142 C 
ATOM     20  C   UNL     1       3.795   1.208  -0.403  0.00  0.00    +0.037 C 
ATOM     21  C   UNL     1       3.796  -1.208  -0.403  0.00  0.00    +0.037 C 
ATOM     22  C   UNL     1       4.484   0.000  -0.515  0.00  0.00    +0.006 C 
BRANCH  18  23
ATOM     23  O   UNL     1       1.772   2.404  -0.077  0.00  0.00    -0.471 OA
ATOM     24  C   UNL     1       2.566   3.581  -0.206  0.00  0.00    +0.252 C 
ENDBRANCH  18  23
BRANCH  19  25
ATOM     25  O   UNL     1       1.773  -2.405  -0.075  0.00  0.00    -0.471 OA
ATOM     26  C   UNL     1       2.568  -3.582  -0.203  0.00  0.00    +0.252 C 
ENDBRANCH  19  25
ENDBRANCH   5  17
TORSDOF 3
