REMARK  Name = 11367
REMARK  3 active torsions:
REMARK  status: ('A' for Active; 'I' for Inactive)
REMARK    1  A    between atoms: C_1  and  N_8
REMARK    2  A    between atoms: C_6  and  O_14
REMARK    3  A    between atoms: C_10  and  C_13
REMARK                            x       y       z     vdW  Elec       q    Type
REMARK                         _______ _______ _______ _____ _____    ______ ____
ROOT
ATOM      1  C   UNL     1       0.607  -0.378   0.018  0.00  0.00    +0.054 C 
ATOM      2  C   UNL     1       1.014   0.872   0.483  0.00  0.00    +0.018 C 
ATOM      3  C   UNL     1       1.554  -1.290  -0.450  0.00  0.00    +0.018 C 
ATOM      4  C   UNL     1       2.367   1.211   0.481  0.00  0.00    +0.038 C 
ATOM      5  C   UNL     1       2.907  -0.951  -0.452  0.00  0.00    +0.038 C 
ATOM      6  C   UNL     1       3.313   0.299   0.013  0.00  0.00    +0.134 C 
ENDROOT
BRANCH   1   8
ATOM      7  O   UNL     1      -1.503   1.484  -0.275  0.00  0.00    -0.272 OA
ATOM      8  N   UNL     1      -0.746  -0.717   0.020  0.00  0.00    -0.255 N 
ATOM      9  C   UNL     1      -1.191  -2.135   0.183  0.00  0.00    +0.120 C 
ATOM     10  C   UNL     1      -1.767   0.286  -0.134  0.00  0.00    +0.260 C 
BRANCH  10  13
ATOM     11 CL   UNL     1      -4.123   0.903  -1.245  0.00  0.00    -0.087 Cl
ATOM     12 CL   UNL     1      -3.850  -0.046   1.498  0.00  0.00    -0.087 Cl
ATOM     13  C   UNL     1      -3.216  -0.169  -0.151  0.00  0.00    +0.234 C 
ENDBRANCH  10  13
ENDBRANCH   1   8
BRANCH   6  14
ATOM     14  O   UNL     1       4.634   0.629   0.013  0.00  0.00    -0.506 OA
ATOM     15  H   UNL     1       4.907   1.469   0.326  0.00  0.00    +0.292 HD
ENDBRANCH   6  14
TORSDOF 3
