REMARK  Name = 588963
REMARK  4 active torsions:
REMARK  status: ('A' for Active; 'I' for Inactive)
REMARK    1  A    between atoms: C_2  and  C_12
REMARK    2  A    between atoms: C_12  and  C_13
REMARK    3  A    between atoms: C_13  and  N_15
REMARK    4  A    between atoms: C_16  and  C_19
REMARK                            x       y       z     vdW  Elec       q    Type
REMARK                         _______ _______ _______ _____ _____    ______ ____
ROOT
ATOM      1  N   UNL     1      -3.543  -0.242  -0.729  0.00  0.00    -0.357 N 
ATOM      2  C   UNL     1      -1.970   0.952   0.284  0.00  0.00    -0.008 A 
ATOM      3  C   UNL     1      -1.654  -0.426   0.443  0.00  0.00    +0.013 A 
ATOM      4  C   UNL     1      -3.137   1.033  -0.440  0.00  0.00    +0.030 A 
ATOM      5  C   UNL     1      -2.656  -1.154  -0.202  0.00  0.00    +0.056 A 
ATOM      6  C   UNL     1      -0.608  -1.127   1.075  0.00  0.00    +0.001 C 
ATOM      7  C   UNL     1      -3.917   2.201  -0.894  0.00  0.00    +0.049 C 
ATOM      8  C   UNL     1      -2.665  -2.553  -0.246  0.00  0.00    +0.017 C 
ATOM      9  C   UNL     1      -0.603  -2.526   1.039  0.00  0.00    +0.000 C 
ATOM     10  C   UNL     1      -1.617  -3.226   0.388  0.00  0.00    +0.001 C 
ATOM     11  H   UNL     1      -4.353  -0.474  -1.239  0.00  0.00    +0.166 HD
ENDROOT
BRANCH   2  12
ATOM     12  C   UNL     1      -1.188   2.093   0.804  0.00  0.00    +0.049 C 
BRANCH  12  13
ATOM     13  C   UNL     1      -0.114   2.611  -0.165  0.00  0.00    +0.094 C 
BRANCH  13  15
ATOM     14  O   UNL     1       2.283   2.123   1.238  0.00  0.00    -0.270 OA
ATOM     15  N   UNL     1       0.860   1.603  -0.490  0.00  0.00    -0.300 N 
ATOM     16  C   UNL     1       2.027   1.423   0.257  0.00  0.00    +0.252 C 
ATOM     17  H   UNL     1       0.699   1.020  -1.266  0.00  0.00    +0.150 HD
BRANCH  16  19
ATOM     18  S   UNL     1       4.335   0.070   0.692  0.00  0.00    -0.082 S 
ATOM     19  C   UNL     1       2.908   0.331  -0.180  0.00  0.00    +0.083 C 
ATOM     20  C   UNL     1       2.717  -0.514  -1.217  0.00  0.00    +0.012 C 
ATOM     21  C   UNL     1       3.797  -1.438  -1.317  0.00  0.00    +0.008 C 
ATOM     22  C   UNL     1       4.746  -1.233  -0.341  0.00  0.00    +0.036 C 
ENDBRANCH  16  19
ENDBRANCH  13  15
ENDBRANCH  12  13
ENDBRANCH   2  12
TORSDOF 4
