REMARK  Name = 3532
REMARK  2 active torsions:
REMARK  status: ('A' for Active; 'I' for Inactive)
REMARK    1  A    between atoms: C_5  and  C_10
REMARK    2  A    between atoms: C_10  and  O_11
REMARK                            x       y       z     vdW  Elec       q    Type
REMARK                         _______ _______ _______ _____ _____    ______ ____
ROOT
ATOM      1  N   UNL     1      -1.829   1.111  -0.496  0.00  0.00    +0.387 N 
ATOM      2  C   UNL     1      -2.461   0.080   0.333  0.00  0.00    -0.077 C 
ATOM      3  C   UNL     1      -1.808  -1.292   0.123  0.00  0.00    +0.003 C 
ATOM      4  C   UNL     1      -0.408   1.259  -0.150  0.00  0.00    -0.048 C 
ATOM      5  C   UNL     1       0.324  -0.043  -0.003  0.00  0.00    +0.027 C 
ATOM      6  C   UNL     1      -0.308  -1.220   0.105  0.00  0.00    -0.028 C 
ATOM      7  H   UNL     1      -2.305   2.000  -0.345  0.00  0.00    -0.084 HD
ATOM      8  H   UNL     1      -1.901   0.833  -1.475  0.00  0.00    -0.084 HD
ENDROOT
BRANCH   5  10
ATOM      9  O   UNL     1       2.458  -0.969  -0.432  0.00  0.00    -0.246 OA
ATOM     10  C   UNL     1       1.787  -0.039  -0.002  0.00  0.00    +0.332 C 
BRANCH  10  11
ATOM     11  O   UNL     1       2.244   1.113   0.522  0.00  0.00    -0.477 OA
ATOM     12  H   UNL     1       1.640   1.763   0.823  0.00  0.00    +0.295 HD
ENDBRANCH  10  11
ENDBRANCH   5  10
TORSDOF 2
