REMARK  Name = 25058141
REMARK  4 active torsions:
REMARK  status: ('A' for Active; 'I' for Inactive)
REMARK    1  A    between atoms: C_3  and  C_8
REMARK    2  A    between atoms: C_7  and  C_15
REMARK    3  A    between atoms: C_16  and  O_21
REMARK    4  A    between atoms: C_20  and  O_23
REMARK                            x       y       z     vdW  Elec       q    Type
REMARK                         _______ _______ _______ _____ _____    ______ ____
ROOT
ATOM      1  O   UNL     1       0.131  -0.294  -1.857  0.00  0.00    -0.270 OA
ATOM      2  N   UNL     1      -0.163   0.970   0.076  0.00  0.00    -0.274 N 
ATOM      3  C   UNL     1      -1.578   1.292  -0.143  0.00  0.00    +0.098 C 
ATOM      4  C   UNL     1      -1.869   2.395   0.883  0.00  0.00    +0.026 C 
ATOM      5  C   UNL     1      -0.902   2.092   2.024  0.00  0.00    +0.024 C 
ATOM      6  C   UNL     1       0.340   1.597   1.299  0.00  0.00    +0.094 C 
ATOM      7  C   UNL     1       0.573   0.224  -0.834  0.00  0.00    +0.252 C 
ENDROOT
BRANCH   3   8
ATOM      8  C   UNL     1      -2.513   0.106   0.003  0.00  0.00    -0.008 C 
ATOM      9  C   UNL     1      -3.696   0.030  -0.733  0.00  0.00    -0.024 C 
ATOM     10  C   UNL     1      -2.176  -0.918   0.889  0.00  0.00    -0.003 C 
ATOM     11  C   UNL     1      -4.541  -1.069  -0.583  0.00  0.00    -0.005 C 
ATOM     12  C   UNL     1      -4.078   1.114  -1.687  0.00  0.00    +0.031 C 
ATOM     13  C   UNL     1      -3.022  -2.017   1.038  0.00  0.00    -0.000 C 
ATOM     14  C   UNL     1      -4.204  -2.093   0.303  0.00  0.00    -0.000 C 
ENDBRANCH   3   8
BRANCH   7  15
ATOM     15  C   UNL     1       1.998   0.020  -0.539  0.00  0.00    +0.087 C 
ATOM     16  C   UNL     1       2.425  -1.079   0.207  0.00  0.00    +0.141 C 
ATOM     17  C   UNL     1       2.928   0.943  -1.016  0.00  0.00    +0.011 C 
ATOM     18  C   UNL     1       3.782  -1.254   0.476  0.00  0.00    +0.073 C 
ATOM     19  C   UNL     1       4.286   0.767  -0.747  0.00  0.00    +0.037 C 
ATOM     20  C   UNL     1       4.712  -0.331  -0.001  0.00  0.00    +0.137 C 
BRANCH  16  21
ATOM     21  O   UNL     1       1.531  -1.992   0.682  0.00  0.00    -0.505 OA
ATOM     22  H   UNL     1       0.616  -1.886   0.508  0.00  0.00    +0.292 HD
ENDBRANCH  16  21
BRANCH  20  23
ATOM     23  O   UNL     1       6.037  -0.502   0.261  0.00  0.00    -0.505 OA
ATOM     24  H   UNL     1       6.324  -1.240   0.762  0.00  0.00    +0.292 HD
ENDBRANCH  20  23
ENDBRANCH   7  15
TORSDOF 4
