REMARK  Name = 447446
REMARK  0 active torsions:
REMARK  status: ('A' for Active; 'I' for Inactive)
REMARK                            x       y       z     vdW  Elec       q    Type
REMARK                         _______ _______ _______ _____ _____    ______ ____
ROOT
ATOM      1  O   UNL     1       0.003   3.115  -1.098  0.00  0.00    -0.317 OA
ATOM      2  O   UNL     1      -2.251  -3.856   0.104  0.00  0.00    -0.270 OA
ATOM      3  O   UNL     1       2.353  -3.805   0.090  0.00  0.00    -0.270 OA
ATOM      4  N   UNL     1      -1.490   1.578  -0.183  0.00  0.00    -0.304 N 
ATOM      5  N   UNL     1       1.466   1.609  -0.142  0.00  0.00    -0.304 N 
ATOM      6  N   UNL     1       0.055  -4.212   0.114  0.00  0.00    -0.248 N 
ATOM      7  C   UNL     1      -1.175   2.983  -0.314  0.00  0.00    +0.207 C 
ATOM      8  C   UNL     1       1.085   3.000  -0.180  0.00  0.00    +0.207 C 
ATOM      9  C   UNL     1      -0.710   0.455  -0.115  0.00  0.00    +0.078 A 
ATOM     10  C   UNL     1       0.714   0.469  -0.106  0.00  0.00    +0.078 A 
ATOM     11  C   UNL     1      -0.886   3.660   1.012  0.00  0.00    +0.059 C 
ATOM     12  C   UNL     1       0.612   3.517   1.173  0.00  0.00    +0.059 C 
ATOM     13  C   UNL     1      -1.319  -0.858  -0.041  0.00  0.00    +0.023 A 
ATOM     14  C   UNL     1       1.353  -0.829  -0.043  0.00  0.00    +0.023 A 
ATOM     15  C   UNL     1      -2.774   1.038  -0.110  0.00  0.00    +0.062 A 
ATOM     16  C   UNL     1       2.762   1.104  -0.091  0.00  0.00    +0.062 A 
ATOM     17  C   UNL     1      -2.710  -0.388  -0.039  0.00  0.00    +0.017 A 
ATOM     18  C   UNL     1       2.733  -0.325  -0.044  0.00  0.00    +0.017 A 
ATOM     19  C   UNL     1      -0.659  -2.082   0.011  0.00  0.00    +0.060 A 
ATOM     20  C   UNL     1       0.722  -2.067   0.006  0.00  0.00    +0.060 A 
ATOM     21  C   UNL     1      -4.013   1.711  -0.099  0.00  0.00    +0.017 C 
ATOM     22  C   UNL     1       3.984   1.806  -0.076  0.00  0.00    +0.017 C 
ATOM     23  C   UNL     1      -1.100  -3.467   0.081  0.00  0.00    +0.252 C 
ATOM     24  C   UNL     1       1.194  -3.442   0.073  0.00  0.00    +0.252 C 
ATOM     25  C   UNL     1      -3.941  -1.089   0.028  0.00  0.00    +0.001 C 
ATOM     26  C   UNL     1       3.981  -0.998   0.004  0.00  0.00    +0.001 C 
ATOM     27  C   UNL     1      -5.195   0.974  -0.030  0.00  0.00    +0.001 C 
ATOM     28  C   UNL     1       5.184   1.097  -0.027  0.00  0.00    +0.001 C 
ATOM     29  C   UNL     1      -5.162  -0.409   0.030  0.00  0.00    +0.000 C 
ATOM     30  C   UNL     1       5.185  -0.288   0.011  0.00  0.00    +0.000 C 
ATOM     31  H   UNL     1       0.066  -5.195   0.162  0.00  0.00    +0.158 HD
ENDROOT
TORSDOF 0
