REMARK  Name = 92249
REMARK  1 active torsions:
REMARK  status: ('A' for Active; 'I' for Inactive)
REMARK    1  A    between atoms: C_8  and  N_13
REMARK                            x       y       z     vdW  Elec       q    Type
REMARK                         _______ _______ _______ _____ _____    ______ ____
ROOT
ATOM      1  O   UNL     1      -0.904  -1.533  -0.001  0.00  0.00    -0.421 OA
ATOM      2  O   UNL     1      -3.171  -1.834   0.001  0.00  0.00    -0.244 OA
ATOM      3  C   UNL     1      -0.001   0.737   0.000  0.00  0.00    +0.031 C 
ATOM      4  C   UNL     1      -1.375   1.257   0.000  0.00  0.00    -0.012 C 
ATOM      5  C   UNL     1       0.191  -0.645  -0.001  0.00  0.00    +0.150 C 
ATOM      6  C   UNL     1       1.140   1.551   0.000  0.00  0.00    +0.004 C 
ATOM      7  C   UNL     1       1.462  -1.222  -0.001  0.00  0.00    +0.052 C 
ATOM      8  C   UNL     1       2.582  -0.397   0.000  0.00  0.00    +0.045 C 
ATOM      9  C   UNL     1      -2.397   0.390   0.000  0.00  0.00    +0.078 C 
ATOM     10  C   UNL     1       2.421   0.988   0.001  0.00  0.00    +0.014 C 
ATOM     11  C   UNL     1      -1.614   2.739   0.000  0.00  0.00    +0.031 C 
ATOM     12  C   UNL     1      -2.211  -1.071   0.000  0.00  0.00    +0.346 C 
ENDROOT
BRANCH   8  13
ATOM     13  N   UNL     1       3.875  -0.958   0.001  0.00  0.00    -0.357 N 
ATOM     14  H   UNL     1       3.988  -1.936   0.000  0.00  0.00    +0.142 HD
ATOM     15  H   UNL     1       4.666  -0.372   0.001  0.00  0.00    +0.142 HD
ENDBRANCH   8  13
TORSDOF 1
