REMARK  Name = 11963512
REMARK  10 active torsions:
REMARK  status: ('A' for Active; 'I' for Inactive)
REMARK    1  A    between atoms: C_1  and  N_7
REMARK    2  A    between atoms: C_4  and  C_17
REMARK    3  A    between atoms: N_7  and  C_9
REMARK    4  A    between atoms: C_9  and  C_10
REMARK    5  A    between atoms: C_10  and  C_11
REMARK    6  A    between atoms: C_11  and  C_12
REMARK    7  A    between atoms: C_12  and  C_14
REMARK    8  A    between atoms: C_14  and  O_15
REMARK    9  A    between atoms: C_18  and  C_19
REMARK   10  A    between atoms: C_22  and  N_27
REMARK                            x       y       z     vdW  Elec       q    Type
REMARK                         _______ _______ _______ _____ _____    ______ ____
ROOT
ATOM      1  C   UNL     1      -2.480  -1.361  -0.149  0.00  0.00    +0.048 C 
ATOM      2  C   UNL     1      -1.535  -1.914   0.722  0.00  0.00    +0.015 C 
ATOM      3  C   UNL     1      -2.081  -0.376  -1.059  0.00  0.00    +0.015 C 
ATOM      4  C   UNL     1       0.182  -0.503  -0.224  0.00  0.00    +0.000 C 
ATOM      5  C   UNL     1      -0.208  -1.486   0.685  0.00  0.00    +0.001 C 
ATOM      6  C   UNL     1      -0.754   0.052  -1.096  0.00  0.00    +0.001 C 
ENDROOT
BRANCH   1   7
ATOM      7  N   UNL     1      -3.814  -1.791  -0.112  0.00  0.00    -0.306 N 
ATOM      8  C   UNL     1      -4.224  -2.822   0.843  0.00  0.00    +0.112 C 
BRANCH   7   9
ATOM      9  C   UNL     1      -4.811  -1.228  -0.990  0.00  0.00    +0.091 C 
BRANCH   9  10
ATOM     10  C   UNL     1      -5.363   0.081  -0.430  0.00  0.00    +0.022 C 
BRANCH  10  11
ATOM     11  C   UNL     1      -6.466   0.685  -1.308  0.00  0.00    +0.013 C 
BRANCH  11  12
ATOM     12  C   UNL     1      -7.007   1.996  -0.742  0.00  0.00    +0.109 C 
BRANCH  12  14
ATOM     13  O   UNL     1      -8.430   1.058   0.971  0.00  0.00    -0.250 OA
ATOM     14  C   UNL     1      -7.541   1.841   0.660  0.00  0.00    +0.314 C 
BRANCH  14  15
ATOM     15  O   UNL     1      -6.924   2.661   1.547  0.00  0.00    -0.480 OA
ATOM     16  H   UNL     1      -6.249   3.242   1.257  0.00  0.00    +0.295 HD
ENDBRANCH  14  15
ENDBRANCH  12  14
ENDBRANCH  11  12
ENDBRANCH  10  11
ENDBRANCH   9  10
ENDBRANCH   7   9
ENDBRANCH   1   7
BRANCH   4  17
ATOM     17  C   UNL     1       1.566  -0.057  -0.263  0.00  0.00    +0.000 C 
ATOM     18  C   UNL     1       2.623  -0.746   0.227  0.00  0.00    +0.000 C 
BRANCH  18  19
ATOM     19  C   UNL     1       4.027  -0.303   0.170  0.00  0.00    +0.000 C 
ATOM     20  C   UNL     1       4.307   1.040  -0.025  0.00  0.00    +0.002 C 
ATOM     21  C   UNL     1       5.039  -1.237   0.316  0.00  0.00    +0.002 C 
ATOM     22  C   UNL     1       6.667   0.531   0.068  0.00  0.00    +0.143 C 
ATOM     23  C   UNL     1       5.637   1.460  -0.077  0.00  0.00    +0.024 C 
ATOM     24  C   UNL     1       6.369  -0.817   0.265  0.00  0.00    +0.024 C 
BRANCH  22  27
ATOM     25  O   UNL     1       8.268   2.175  -0.163  0.00  0.00    -0.126 OA
ATOM     26  O   UNL     1       8.932   0.105   0.149  0.00  0.00    -0.126 OA
ATOM     27  N   UNL     1       8.021   0.957   0.015  0.00  0.00    +0.058 N 
ENDBRANCH  22  27
ENDBRANCH  18  19
ENDBRANCH   4  17
TORSDOF 10
