REMARK  Name = 46937145
REMARK  8 active torsions:
REMARK  status: ('A' for Active; 'I' for Inactive)
REMARK    1  A    between atoms: C_1  and  N_9
REMARK    2  A    between atoms: C_2  and  N_14
REMARK    3  A    between atoms: N_14  and  C_16
REMARK    4  A    between atoms: C_16  and  O_17
REMARK    5  A    between atoms: C_16  and  C_19
REMARK    6  A    between atoms: C_19  and  C_20
REMARK    7  A    between atoms: C_20  and  C_22
REMARK    8  A    between atoms: C_22  and  O_23
REMARK                            x       y       z     vdW  Elec       q    Type
REMARK                         _______ _______ _______ _____ _____    ______ ____
ROOT
ATOM      1  C   UNL     1       1.856  -0.206   0.015  0.00  0.00    +0.061 C 
ATOM      2  C   UNL     1      -0.844  -0.910  -0.016  0.00  0.00    +0.046 C 
ATOM      3  C   UNL     1       1.321  -0.967   1.055  0.00  0.00    +0.017 C 
ATOM      4  C   UNL     1       1.040   0.203  -1.040  0.00  0.00    +0.017 C 
ATOM      5  C   UNL     1      -0.028  -1.319   1.040  0.00  0.00    +0.016 C 
ATOM      6  C   UNL     1      -0.309  -0.149  -1.056  0.00  0.00    +0.016 C 
ENDROOT
BRANCH   1   9
ATOM      7  O   UNL     1       4.184  -1.732   1.108  0.00  0.00    -0.274 OA
ATOM      8  O   UNL     1       3.165   2.270  -1.034  0.00  0.00    -0.274 OA
ATOM      9  N   UNL     1       3.242   0.156   0.031  0.00  0.00    -0.208 N 
ATOM     10  C   UNL     1       5.517   0.175   0.568  0.00  0.00    +0.096 C 
ATOM     11  C   UNL     1       5.247   1.254  -0.455  0.00  0.00    +0.096 C 
ATOM     12  C   UNL     1       4.240  -0.612   0.618  0.00  0.00    +0.236 C 
ATOM     13  C   UNL     1       3.750   1.317  -0.537  0.00  0.00    +0.236 C 
ENDBRANCH   1   9
BRANCH   2  14
ATOM     14  N   UNL     1      -2.184  -1.261  -0.031  0.00  0.00    -0.312 N 
ATOM     15  H   UNL     1      -2.491  -1.912   0.641  0.00  0.00    +0.149 HD
BRANCH  14  16
ATOM     16  C   UNL     1      -3.172  -0.744  -0.959  0.00  0.00    +0.186 C 
BRANCH  16  17
ATOM     17  O   UNL     1      -3.092  -1.431  -2.206  0.00  0.00    -0.367 OA
ATOM     18  H   UNL     1      -2.205  -1.318  -2.581  0.00  0.00    +0.212 HD
ENDBRANCH  16  17
BRANCH  16  19
ATOM     19  C   UNL     1      -4.593  -0.956  -0.412  0.00  0.00    +0.062 C 
BRANCH  19  20
ATOM     20  C   UNL     1      -4.873  -0.208   0.894  0.00  0.00    +0.114 C 
BRANCH  20  22
ATOM     21  O   UNL     1      -5.138   1.922  -0.255  0.00  0.00    -0.250 OA
ATOM     22  C   UNL     1      -4.844   1.298   0.754  0.00  0.00    +0.314 C 
BRANCH  22  23
ATOM     23  O   UNL     1      -4.484   1.901   1.917  0.00  0.00    -0.480 OA
ATOM     24  H   UNL     1      -4.266   1.381   2.666  0.00  0.00    +0.295 HD
ENDBRANCH  22  23
ENDBRANCH  20  22
ENDBRANCH  19  20
ENDBRANCH  16  19
ENDBRANCH  14  16
ENDBRANCH   2  14
TORSDOF 8
