REMARK  Name = 25181315
REMARK  12 active torsions:
REMARK  status: ('A' for Active; 'I' for Inactive)
REMARK    1  A    between atoms: C_2  and  C_24
REMARK    2  A    between atoms: C_3  and  O_20
REMARK    3  A    between atoms: C_4  and  O_22
REMARK    4  A    between atoms: C_5  and  N_6
REMARK    5  A    between atoms: C_11  and  C_18
REMARK    6  A    between atoms: C_24  and  N_25
REMARK    7  A    between atoms: N_25  and  C_28
REMARK    8  A    between atoms: C_28  and  C_29
REMARK    9  A    between atoms: C_29  and  C_30
REMARK   10  A    between atoms: C_30  and  C_31
REMARK   11  A    between atoms: C_31  and  O_32
REMARK   12  A    between atoms: O_32  and  N_33
REMARK                            x       y       z     vdW  Elec       q    Type
REMARK                         _______ _______ _______ _____ _____    ______ ____
ROOT
ATOM      1  O   UNL     1      -0.895  -1.976   1.141  0.00  0.00    -0.337 OA
ATOM      2  C   UNL     1       0.425  -2.525   0.932  0.00  0.00    +0.126 C 
ATOM      3  C   UNL     1       0.555  -2.770  -0.565  0.00  0.00    +0.166 C 
ATOM      4  C   UNL     1      -0.346  -1.698  -1.145  0.00  0.00    +0.187 C 
ATOM      5  C   UNL     1      -1.491  -1.669  -0.137  0.00  0.00    +0.229 C 
ENDROOT
BRANCH   5   6
ATOM      6  N   UNL     1      -2.215  -0.344  -0.106  0.00  0.00    -0.221 N 
ATOM      7  N   UNL     1      -3.706   1.251  -0.556  0.00  0.00    -0.381 NA
ATOM      8  N   UNL     1      -0.828   0.827   1.509  0.00  0.00    -0.227 NA
ATOM      9  N   UNL     1      -1.641   3.095   1.897  0.00  0.00    -0.227 NA
ATOM     10  C   UNL     1      -1.860   0.732   0.657  0.00  0.00    +0.169 C 
ATOM     11  C   UNL     1      -3.328   0.017  -0.818  0.00  0.00    +0.190 C 
ATOM     12  C   UNL     1      -2.797   1.710   0.364  0.00  0.00    +0.195 C 
ATOM     13  C   UNL     1      -2.662   2.929   1.021  0.00  0.00    +0.155 C 
ATOM     14  C   UNL     1      -0.800   2.049   2.083  0.00  0.00    +0.253 C 
ATOM     15  N   UNL     1      -3.568   3.977   0.785  0.00  0.00    -0.341 N 
ATOM     16  H   UNL     1      -3.462   4.835   1.256  0.00  0.00    +0.144 HD
ATOM     17  H   UNL     1      -4.308   3.853   0.148  0.00  0.00    +0.144 HD
BRANCH  11  18
ATOM     18  C   UNL     1      -3.902  -0.924  -1.694  0.00  0.00    +0.048 C 
ATOM     19  C   UNL     1      -5.012  -0.768  -2.494  0.00  0.00    +0.004 C 
ENDBRANCH  11  18
ENDBRANCH   5   6
BRANCH   3  20
ATOM     20  O   UNL     1       0.030  -4.067  -0.846  0.00  0.00    -0.380 OA
ATOM     21  H   UNL     1       0.617  -4.742  -0.470  0.00  0.00    +0.211 HD
ENDBRANCH   3  20
BRANCH   4  22
ATOM     22  O   UNL     1      -0.776  -1.989  -2.460  0.00  0.00    -0.378 OA
ATOM     23  H   UNL     1      -0.011  -1.995  -3.056  0.00  0.00    +0.211 HD
ENDBRANCH   4  22
BRANCH   2  24
ATOM     24  C   UNL     1       1.445  -1.528   1.465  0.00  0.00    -0.045 C 
BRANCH  24  25
ATOM     25  N   UNL     1       2.804  -1.985   1.212  0.00  0.00    +0.387 N 
ATOM     26  C   UNL     1       3.208  -2.984   2.204  0.00  0.00    -0.101 C 
ATOM     27  H   UNL     1       2.826  -2.418   0.288  0.00  0.00    -0.080 HD
BRANCH  25  28
ATOM     28  C   UNL     1       3.739  -0.857   1.220  0.00  0.00    -0.077 C 
BRANCH  28  29
ATOM     29  C   UNL     1       3.659  -0.092  -0.100  0.00  0.00    -0.020 C 
BRANCH  29  30
ATOM     30  C   UNL     1       4.634   1.084  -0.117  0.00  0.00    +0.032 C 
BRANCH  30  31
ATOM     31  C   UNL     1       4.533   1.880  -1.411  0.00  0.00    +0.166 C 
BRANCH  31  32
ATOM     32  O   UNL     1       5.467   2.951  -1.393  0.00  0.00    -0.289 OA
BRANCH  32  33
ATOM     33  N   UNL     1       5.328   3.673  -2.648  0.00  0.00    -0.214 NA
ATOM     34  H   UNL     1       5.987   4.451  -2.667  0.00  0.00    +0.150 HD
ATOM     35  H   UNL     1       4.376   4.031  -2.730  0.00  0.00    +0.150 HD
ENDBRANCH  32  33
ENDBRANCH  31  32
ENDBRANCH  30  31
ENDBRANCH  29  30
ENDBRANCH  28  29
ENDBRANCH  25  28
ENDBRANCH  24  25
ENDBRANCH   2  24
TORSDOF 12
