REMARK  Name = 23656870
REMARK  4 active torsions:
REMARK  status: ('A' for Active; 'I' for Inactive)
REMARK    1  A    between atoms: N_2  and  C_25
REMARK    2  A    between atoms: N_3  and  C_14
REMARK    3  A    between atoms: C_10  and  C_32
REMARK    4  A    between atoms: C_16  and  N_21
REMARK                            x       y       z     vdW  Elec       q    Type
REMARK                         _______ _______ _______ _____ _____    ______ ____
ROOT
ATOM      1  N   UNL     1      -2.628  -0.861   0.079  0.00  0.00    -0.123 N 
ATOM      2  N   UNL     1      -0.818  -2.354  -0.179  0.00  0.00    -0.274 N 
ATOM      3  N   UNL     1      -0.435   2.268  -1.114  0.00  0.00    -0.238 N 
ATOM      4  N   UNL     1      -0.620  -0.040  -0.650  0.00  0.00    -0.295 NA
ATOM      5  N   UNL     1      -2.474   1.442  -0.378  0.00  0.00    -0.314 NA
ATOM      6  N   UNL     1      -3.457  -1.837   0.493  0.00  0.00    -0.170 NA
ATOM      7  C   UNL     1      -1.304  -1.078  -0.266  0.00  0.00    +0.279 C 
ATOM      8  C   UNL     1      -3.203   0.376   0.023  0.00  0.00    +0.219 C 
ATOM      9  C   UNL     1      -1.219   1.217  -0.701  0.00  0.00    +0.207 C 
ATOM     10  C   UNL     1      -4.505   0.195   0.431  0.00  0.00    +0.203 C 
ATOM     11  C   UNL     1      -4.603  -1.184   0.707  0.00  0.00    +0.116 C 
ATOM     12  H   UNL     1      -1.456  -3.038   0.128  0.00  0.00    +0.156 HD
ATOM     13  H   UNL     1      -0.903   3.000  -1.576  0.00  0.00    +0.166 HD
ENDROOT
BRANCH   3  14
ATOM     14  C   UNL     1       0.941   2.425  -0.960  0.00  0.00    +0.060 C 
ATOM     15  C   UNL     1       1.590   1.856   0.136  0.00  0.00    +0.030 C 
ATOM     16  C   UNL     1       2.967   2.012   0.289  0.00  0.00    +0.052 C 
ATOM     17  C   UNL     1       1.670   3.150  -1.903  0.00  0.00    +0.015 C 
ATOM     18  C   UNL     1       3.696   2.737  -0.653  0.00  0.00    +0.015 C 
ATOM     19  C   UNL     1       3.048   3.306  -1.750  0.00  0.00    +0.003 C 
BRANCH  16  21
ATOM     20  O   UNL     1       1.881   0.378   2.573  0.00  0.00    -0.275 OA
ATOM     21  N   UNL     1       3.616   1.445   1.386  0.00  0.00    -0.284 N 
ATOM     22  C   UNL     1       3.058   0.690   2.427  0.00  0.00    +0.227 C 
ATOM     23  C   UNL     1       4.102   0.257   3.426  0.00  0.00    +0.095 C 
ATOM     24  H   UNL     1       4.589   1.593   1.436  0.00  0.00    +0.155 HD
ENDBRANCH  16  21
ENDBRANCH   3  14
BRANCH   2  25
ATOM     25  C   UNL     1       0.470  -2.811  -0.472  0.00  0.00    +0.051 C 
ATOM     26  C   UNL     1       0.993  -3.909   0.210  0.00  0.00    +0.015 C 
ATOM     27  C   UNL     1       1.233  -2.169  -1.448  0.00  0.00    +0.015 C 
ATOM     28  C   UNL     1       2.278  -4.366  -0.082  0.00  0.00    +0.001 C 
ATOM     29  C   UNL     1       2.518  -2.626  -1.741  0.00  0.00    +0.001 C 
ATOM     30  C   UNL     1       3.041  -3.724  -1.058  0.00  0.00    +0.000 C 
ENDBRANCH   2  25
BRANCH  10  32
ATOM     31  N   UNL     1      -6.328   2.011   0.632  0.00  0.00    -0.195 NA
ATOM     32  C   UNL     1      -5.508   1.194   0.542  0.00  0.00    +0.087 C 
ENDBRANCH  10  32
TORSDOF 4
