REMARK  Name = 5082818
REMARK  8 active torsions:
REMARK  status: ('A' for Active; 'I' for Inactive)
REMARK    1  A    between atoms: N_2  and  C_15
REMARK    2  A    between atoms: N_3  and  C_8
REMARK    3  A    between atoms: C_15  and  C_16
REMARK    4  A    between atoms: C_16  and  S_17
REMARK    5  A    between atoms: S_17  and  C_18
REMARK    6  A    between atoms: C_18  and  C_21
REMARK    7  A    between atoms: C_20  and  C_24
REMARK    8  A    between atoms: C_24  and  N_25
REMARK                            x       y       z     vdW  Elec       q    Type
REMARK                         _______ _______ _______ _____ _____    ______ ____
ROOT
ATOM      1  O   UNL     1      -0.225  -1.409   1.714  0.00  0.00    -0.252 OA
ATOM      2  N   UNL     1       0.976  -2.862   0.376  0.00  0.00    -0.288 N 
ATOM      3  N   UNL     1      -1.013  -2.016  -0.412  0.00  0.00    -0.268 N 
ATOM      4  C   UNL     1      -0.115  -2.027   0.658  0.00  0.00    +0.304 C 
ATOM      5  H   UNL     1       0.996  -3.327  -0.492  0.00  0.00    +0.151 HD
ATOM      6  H   UNL     1      -0.770  -2.572  -1.187  0.00  0.00    +0.156 HD
ENDROOT
BRANCH   3   8
ATOM      7 CL   UNL     1      -4.342   1.221   1.746  0.00  0.00    -0.083 Cl
ATOM      8  C   UNL     1      -2.230  -1.302  -0.516  0.00  0.00    +0.052 C 
ATOM      9  C   UNL     1      -4.628   0.109  -0.725  0.00  0.00    -0.011 C 
ATOM     10  C   UNL     1      -2.653  -0.486   0.533  0.00  0.00    +0.026 C 
ATOM     11  C   UNL     1      -3.006  -1.412  -1.670  0.00  0.00    +0.014 C 
ATOM     12  C   UNL     1      -3.851   0.220   0.429  0.00  0.00    +0.055 C 
ATOM     13  C   UNL     1      -4.205  -0.707  -1.774  0.00  0.00    -0.002 C 
ATOM     14  C   UNL     1      -5.919   0.846  -0.875  0.00  0.00    +0.032 C 
ENDBRANCH   3   8
BRANCH   2  15
ATOM     15  C   UNL     1       2.065  -3.075   1.290  0.00  0.00    +0.103 C 
BRANCH  15  16
ATOM     16  C   UNL     1       3.201  -2.079   1.104  0.00  0.00    +0.079 C 
BRANCH  16  17
ATOM     17  S   UNL     1       3.941  -2.185  -0.540  0.00  0.00    -0.130 S 
BRANCH  17  18
ATOM     18  C   UNL     1       4.802  -0.572  -0.535  0.00  0.00    +0.122 C 
BRANCH  18  21
ATOM     19  O   UNL     1       3.276   1.125   0.218  0.00  0.00    -0.463 OA
ATOM     20  C   UNL     1       2.494   2.116  -0.285  0.00  0.00    +0.102 C 
ATOM     21  C   UNL     1       3.894   0.542  -0.843  0.00  0.00    +0.133 C 
ATOM     22  C   UNL     1       2.606   2.172  -1.655  0.00  0.00    +0.034 C 
ATOM     23  C   UNL     1       3.515   1.150  -2.017  0.00  0.00    +0.037 C 
BRANCH  20  24
ATOM     24  C   UNL     1       1.703   2.912   0.717  0.00  0.00    -0.011 C 
BRANCH  24  25
ATOM     25  N   UNL     1       0.390   2.312   0.947  0.00  0.00    +0.389 N 
ATOM     26  C   UNL     1      -0.144   2.731   2.243  0.00  0.00    -0.100 C 
ATOM     27  C   UNL     1      -0.533   2.675  -0.127  0.00  0.00    -0.100 C 
ATOM     28  H   UNL     1       0.495   1.298   0.954  0.00  0.00    -0.079 HD
ENDBRANCH  24  25
ENDBRANCH  20  24
ENDBRANCH  18  21
ENDBRANCH  17  18
ENDBRANCH  16  17
ENDBRANCH  15  16
ENDBRANCH   2  15
TORSDOF 8
