REMARK  Name = 17758816
REMARK  9 active torsions:
REMARK  status: ('A' for Active; 'I' for Inactive)
REMARK    1  A    between atoms: C_3  and  C_8
REMARK    2  A    between atoms: C_4  and  C_20
REMARK    3  A    between atoms: C_11  and  O_14
REMARK    4  A    between atoms: O_14  and  C_15
REMARK    5  A    between atoms: C_15  and  C_17
REMARK    6  A    between atoms: C_17  and  O_18
REMARK    7  A    between atoms: C_20  and  N_23
REMARK    8  A    between atoms: C_28  and  S_32
REMARK    9  A    between atoms: S_32  and  C_34
REMARK                            x       y       z     vdW  Elec       q    Type
REMARK                         _______ _______ _______ _____ _____    ______ ____
ROOT
ATOM      1  N   UNL     1       2.054  -2.836  -0.349  0.00  0.00    -0.317 N 
ATOM      2  N   UNL     1       2.096  -4.311   1.310  0.00  0.00    -0.316 N 
ATOM      3  C   UNL     1       3.071  -2.443   0.475  0.00  0.00    +0.060 C 
ATOM      4  C   UNL     1       1.498  -3.961   0.192  0.00  0.00    +0.164 C 
ATOM      5  C   UNL     1       3.076  -3.369   1.492  0.00  0.00    +0.074 C 
ATOM      6  H   UNL     1       1.774  -2.390  -1.181  0.00  0.00    +0.148 HD
ATOM      7  H   UNL     1       1.886  -5.080   1.888  0.00  0.00    +0.148 HD
ENDROOT
BRANCH   3   8
ATOM      8  C   UNL     1       3.893  -1.284   0.227  0.00  0.00    +0.015 C 
ATOM      9  C   UNL     1       5.215  -1.260   0.670  0.00  0.00    +0.004 C 
ATOM     10  C   UNL     1       3.366  -0.189  -0.456  0.00  0.00    +0.004 C 
ATOM     11  C   UNL     1       5.484   0.956  -0.255  0.00  0.00    +0.139 C 
ATOM     12  C   UNL     1       6.011  -0.139   0.429  0.00  0.00    +0.037 C 
ATOM     13  C   UNL     1       4.161   0.932  -0.697  0.00  0.00    +0.037 C 
BRANCH  11  14
ATOM     14  O   UNL     1       6.260   2.049  -0.489  0.00  0.00    -0.464 OA
BRANCH  14  15
ATOM     15  C   UNL     1       5.598   3.312  -0.563  0.00  0.00    +0.314 C 
BRANCH  15  17
ATOM     16  O   UNL     1       7.676   4.245   0.283  0.00  0.00    -0.246 OA
ATOM     17  C   UNL     1       6.531   4.402  -0.113  0.00  0.00    +0.359 C 
BRANCH  17  18
ATOM     18  O   UNL     1       5.920   5.610  -0.209  0.00  0.00    -0.478 OA
ATOM     19  H   UNL     1       5.039   5.666  -0.522  0.00  0.00    +0.295 HD
ENDBRANCH  17  18
ENDBRANCH  15  17
ENDBRANCH  14  15
ENDBRANCH  11  14
ENDBRANCH   3   8
BRANCH   4  20
ATOM     20  C   UNL     1       0.366  -4.647  -0.457  0.00  0.00    +0.131 C 
BRANCH  20  23
ATOM     21  S   UNL     1      -5.040  -1.665   0.780  0.00  0.00    -0.045 S 
ATOM     22  O   UNL     1      -1.154  -2.534  -1.636  0.00  0.00    -0.252 OA
ATOM     23  N   UNL     1      -0.890  -4.116   0.025  0.00  0.00    -0.285 N 
ATOM     24  N   UNL     1      -2.748  -2.778   0.077  0.00  0.00    -0.248 N 
ATOM     25  N   UNL     1      -3.648  -0.974  -1.286  0.00  0.00    -0.222 NA
ATOM     26  C   UNL     1      -1.571  -3.075  -0.615  0.00  0.00    +0.306 C 
ATOM     27  C   UNL     1      -3.684  -1.799  -0.264  0.00  0.00    +0.167 C 
ATOM     28  C   UNL     1      -5.641  -0.397  -0.205  0.00  0.00    +0.082 C 
ATOM     29  C   UNL     1      -4.771  -0.171  -1.251  0.00  0.00    +0.114 C 
ATOM     30  H   UNL     1      -1.283  -4.504   0.840  0.00  0.00    +0.151 HD
ATOM     31  H   UNL     1      -2.936  -3.311   0.883  0.00  0.00    +0.158 HD
BRANCH  28  32
ATOM     32  S   UNL     1      -7.140   0.439   0.122  0.00  0.00    -0.060 S 
BRANCH  32  34
ATOM     33  N   UNL     1      -5.584   2.284   1.293  0.00  0.00    -0.237 NA
ATOM     34  C   UNL     1      -6.491   2.098   0.308  0.00  0.00    +0.111 C 
ATOM     35  C   UNL     1      -6.933   3.100  -0.539  0.00  0.00    +0.026 C 
ATOM     36  C   UNL     1      -6.410   4.377  -0.366  0.00  0.00    +0.004 C 
ATOM     37  C   UNL     1      -5.474   4.608   0.636  0.00  0.00    +0.021 C 
ATOM     38  C   UNL     1      -5.097   3.538   1.431  0.00  0.00    +0.099 C 
ENDBRANCH  32  34
ENDBRANCH  28  32
ENDBRANCH  20  23
ENDBRANCH   4  20
TORSDOF 9
