REMARK  Name = 46937128
REMARK  1 active torsions:
REMARK  status: ('A' for Active; 'I' for Inactive)
REMARK    1  A    between atoms: C_6  and  C_14
REMARK                            x       y       z     vdW  Elec       q    Type
REMARK                         _______ _______ _______ _____ _____    ______ ____
ROOT
ATOM      1  N   UNL     1      -1.236  -1.253  -0.002  0.00  0.00    -0.323 NA
ATOM      2  N   UNL     1      -3.526  -0.911  -0.002  0.00  0.00    -0.272 NA
ATOM      3  N   UNL     1      -4.468   1.306   0.001  0.00  0.00    -0.169 NA
ATOM      4  N   UNL     1      -5.851  -0.583  -0.002  0.00  0.00    -0.292 N 
ATOM      5  C   UNL     1       0.018  -0.740  -0.001  0.00  0.00    +0.203 C 
ATOM      6  C   UNL     1       0.302   0.609   0.001  0.00  0.00    +0.046 C 
ATOM      7  C   UNL     1      -0.773   1.480   0.001  0.00  0.00    +0.018 C 
ATOM      8  C   UNL     1      -2.079   0.969   0.001  0.00  0.00    +0.106 C 
ATOM      9  C   UNL     1      -2.283  -0.416  -0.001  0.00  0.00    +0.152 C 
ATOM     10  C   UNL     1      -3.211   1.780   0.002  0.00  0.00    +0.124 C 
ATOM     11  C   UNL     1      -4.551  -0.032  -0.001  0.00  0.00    +0.152 C 
ATOM     12  H   UNL     1      -5.971  -1.560  -0.003  0.00  0.00    +0.155 HD
ATOM     13  H   UNL     1      -6.637   0.010  -0.002  0.00  0.00    +0.155 HD
ATOM     14  N   UNL     1       1.095  -1.662  -0.001  0.00  0.00    -0.238 N 
ATOM     15  C   UNL     1       1.669  -2.154   1.212  0.00  0.00    +0.072 C 
ATOM     16  C   UNL     1       1.685  -2.136  -1.214  0.00  0.00    +0.072 C 
ATOM     17  C   UNL     1       2.749  -3.031  -0.668  0.00  0.00    +0.018 C 
ATOM     18  C   UNL     1       2.740  -3.041   0.667  0.00  0.00    +0.018 C 
ENDROOT
BRANCH   6  19
ATOM     19  C   UNL     1       1.652   1.132   0.001  0.00  0.00    +0.004 C 
ATOM     20  C   UNL     1       2.303   1.383   1.209  0.00  0.00    +0.000 C 
ATOM     21  C   UNL     1       2.303   1.385  -1.207  0.00  0.00    +0.000 C 
ATOM     22  C   UNL     1       3.603   1.887   1.209  0.00  0.00    +0.000 C 
ATOM     23  C   UNL     1       3.603   1.888  -1.207  0.00  0.00    +0.000 C 
ATOM     24  C   UNL     1       4.254   2.139   0.002  0.00  0.00    +0.000 C 
ENDBRANCH   6  19
TORSDOF 1
