REMARK  Name = 46937134
REMARK  9 active torsions:
REMARK  status: ('A' for Active; 'I' for Inactive)
REMARK    1  A    between atoms: N_2  and  C_15
REMARK    2  A    between atoms: N_6  and  C_29
REMARK    3  A    between atoms: C_16  and  O_19
REMARK    4  A    between atoms: C_18  and  C_21
REMARK    5  A    between atoms: C_21  and  O_22
REMARK    6  A    between atoms: O_22  and  P_23
REMARK    7  A    between atoms: P_23  and  O_25
REMARK    8  A    between atoms: P_23  and  O_27
REMARK    9  A    between atoms: C_29  and  C_30
REMARK                            x       y       z     vdW  Elec       q    Type
REMARK                         _______ _______ _______ _____ _____    ______ ____
ROOT
ATOM      1  O   UNL     1      -1.853  -4.740   1.211  0.00  0.00    -0.208 OA
ATOM      2  N   UNL     1      -3.651  -0.986  -0.550  0.00  0.00    -0.209 NA
ATOM      3  N   UNL     1      -1.257  -0.952  -0.121  0.00  0.00    -0.279 N 
ATOM      4  N   UNL     1      -4.051  -3.073   0.171  0.00  0.00    -0.241 NA
ATOM      5  N   UNL     1      -0.391  -2.986   0.815  0.00  0.00    -0.301 NA
ATOM      6  N   UNL     1       0.971  -1.144   0.364  0.00  0.00    -0.292 N 
ATOM      7  C   UNL     1      -2.473  -1.505  -0.135  0.00  0.00    +0.191 C 
ATOM      8  C   UNL     1      -4.583  -1.978  -0.344  0.00  0.00    +0.205 C 
ATOM      9  C   UNL     1      -2.724  -2.773   0.301  0.00  0.00    +0.183 C 
ATOM     10  C   UNL     1      -0.230  -1.752   0.374  0.00  0.00    +0.248 C 
ATOM     11  C   UNL     1      -1.650  -3.599   0.815  0.00  0.00    +0.224 C 
ATOM     12  H   UNL     1      -1.097  -0.034  -0.441  0.00  0.00    +0.152 HD
ATOM     13  H   UNL     1       1.028  -0.222   0.024  0.00  0.00    +0.151 HD
ENDROOT
BRANCH   2  15
ATOM     14  O   UNL     1      -2.708   1.161  -1.244  0.00  0.00    -0.338 OA
ATOM     15  C   UNL     1      -3.915   0.385  -1.120  0.00  0.00    +0.182 C 
ATOM     16  C   UNL     1      -4.482   2.625  -0.639  0.00  0.00    +0.144 C 
ATOM     17  C   UNL     1      -4.872   1.213  -0.268  0.00  0.00    +0.079 C 
ATOM     18  C   UNL     1      -2.976   2.521  -0.847  0.00  0.00    +0.174 C 
BRANCH  16  19
ATOM     19  O   UNL     1      -5.113   2.959  -1.873  0.00  0.00    -0.382 OA
ATOM     20  H   UNL     1      -6.072   3.025  -1.738  0.00  0.00    +0.210 HD
ENDBRANCH  16  19
BRANCH  18  21
ATOM     21  C   UNL     1      -2.186   2.803   0.424  0.00  0.00    +0.186 C 
BRANCH  21  22
ATOM     22  O   UNL     1      -0.804   2.673   0.137  0.00  0.00    -0.271 OA
BRANCH  22  23
ATOM     23  P   UNL     1       0.260   2.925   1.331  0.00  0.00    +0.473 P 
ATOM     24  O   UNL     1       1.700   2.766   0.940  0.00  0.00    -0.227 OA
BRANCH  23  25
ATOM     25  O   UNL     1      -0.143   4.395   1.870  0.00  0.00    -0.303 OA
ATOM     26  H   UNL     1      -1.086   4.408   2.099  0.00  0.00    +0.222 HD
ENDBRANCH  23  25
BRANCH  23  27
ATOM     27  O   UNL     1      -0.249   1.943   2.511  0.00  0.00    -0.303 OA
ATOM     28  H   UNL     1      -1.185   2.117   2.695  0.00  0.00    +0.222 HD
ENDBRANCH  23  27
ENDBRANCH  22  23
ENDBRANCH  21  22
ENDBRANCH  18  21
ENDBRANCH   2  15
BRANCH   6  29
ATOM     29  C   UNL     1       2.180  -1.783   0.831  0.00  0.00    +0.117 C 
BRANCH  29  30
ATOM     30  C   UNL     1       3.345  -0.847   0.738  0.00  0.00    -0.003 C 
ATOM     31  C   UNL     1       3.971  -0.556  -0.485  0.00  0.00    -0.002 C 
ATOM     32  C   UNL     1       5.069   0.337  -0.506  0.00  0.00    -0.000 C 
ATOM     33  C   UNL     1       3.794  -0.264   1.923  0.00  0.00    -0.003 C 
ATOM     34  C   UNL     1       3.533  -1.133  -1.688  0.00  0.00    -0.000 C 
ATOM     35  C   UNL     1       5.508   0.913   0.697  0.00  0.00    -0.000 C 
ATOM     36  C   UNL     1       4.873   0.614   1.903  0.00  0.00    -0.000 C 
ATOM     37  C   UNL     1       5.696   0.627  -1.729  0.00  0.00    -0.000 C 
ATOM     38  C   UNL     1       4.167  -0.834  -2.894  0.00  0.00    -0.000 C 
ATOM     39  C   UNL     1       5.246   0.045  -2.914  0.00  0.00    -0.000 C 
ENDBRANCH  29  30
ENDBRANCH   6  29
TORSDOF 9
