REMARK  Name = 5288998
REMARK  7 active torsions:
REMARK  status: ('A' for Active; 'I' for Inactive)
REMARK    1  A    between atoms: CA_1  and  N_3
REMARK    2  A    between atoms: CA_1  and  C_11
REMARK    3  A    between atoms: CA_1  and  CB_14
REMARK    4  A    between atoms: C_4  and  C_7
REMARK    5  A    between atoms: C_7  and  O_8
REMARK    6  A    between atoms: C_11  and  O_12
REMARK    7  A    between atoms: CB_14  and  CG_15
REMARK                            x       y       z     vdW  Elec       q    Type
REMARK                         _______ _______ _______ _____ _____    ______ ____
ROOT
ATOM      1  CA  PHE A   1       0.530   1.265   0.096  0.00  0.00    +0.176 C 
ENDROOT
BRANCH   1   3
ATOM      2  O   UNK A   0       1.283  -1.070   1.694  0.00  0.00    -0.263 OA
ATOM      3  N   PHE A   1       1.323   0.131  -0.310  0.00  0.00    -0.288 N 
ATOM      4  C   UNK A   0       1.620  -0.923   0.529  0.00  0.00    +0.322 C 
ATOM      5  H   PHE A   1       1.669   0.108  -1.231  0.00  0.00    +0.150 HD
BRANCH   4   7
ATOM      6  O   UNK A   0       2.842  -1.905  -1.293  0.00  0.00    -0.240 OA
ATOM      7  C   UNK A   0       2.468  -1.983  -0.140  0.00  0.00    +0.392 C 
BRANCH   7   8
ATOM      8  O   UNK A   0       2.726  -2.978   0.722  0.00  0.00    -0.474 OA
ATOM      9  H   UNK A   0       2.388  -2.942   1.595  0.00  0.00    +0.296 HD
ENDBRANCH   7   8
ENDBRANCH   4   7
ENDBRANCH   1   3
BRANCH   1  11
ATOM     10  OXT PHE A   1       0.921   3.625   0.456  0.00  0.00    -0.248 OA
ATOM     11  C   PHE A   1       1.354   2.544   0.070  0.00  0.00    +0.332 C 
BRANCH  11  12
ATOM     12  O   PHE A   1       2.613   2.400  -0.408  0.00  0.00    -0.479 OA
ATOM     13  H   PHE A   1       2.912   1.559  -0.695  0.00  0.00    +0.295 HD
ENDBRANCH  11  12
ENDBRANCH   1  11
BRANCH   1  14
ATOM     14  CB  PHE A   1      -0.713   1.425  -0.789  0.00  0.00    +0.057 C 
BRANCH  14  15
ATOM     15  CG  PHE A   1      -1.818   0.460  -0.431  0.00  0.00    -0.020 C 
ATOM     16  CD1 PHE A   1      -1.864  -0.780  -1.050  0.00  0.00    -0.004 C 
ATOM     17  CD2 PHE A   1      -2.766   0.832   0.508  0.00  0.00    -0.004 C 
ATOM     18  CE1 PHE A   1      -2.885  -1.671  -0.719  0.00  0.00    -0.000 C 
ATOM     19  CE2 PHE A   1      -3.787  -0.060   0.839  0.00  0.00    -0.000 C 
ATOM     20  CZ  PHE A   1      -3.847  -1.311   0.225  0.00  0.00    -0.000 C 
ENDBRANCH  14  15
ENDBRANCH   1  14
TORSDOF 7
