REMARK  Name = 446980
REMARK  9 active torsions:
REMARK  status: ('A' for Active; 'I' for Inactive)
REMARK    1  A    between atoms: O_1  and  C_3
REMARK    2  A    between atoms: O_1  and  P_12
REMARK    3  A    between atoms: C_2  and  C_9
REMARK    4  A    between atoms: P_12  and  O_14
REMARK    5  A    between atoms: P_12  and  C_16
REMARK    6  A    between atoms: C_16  and  C_17
REMARK    7  A    between atoms: C_17  and  C_18
REMARK    8  A    between atoms: C_18  and  C_19
REMARK    9  A    between atoms: C_19  and  C_20
REMARK                            x       y       z     vdW  Elec       q    Type
REMARK                         _______ _______ _______ _____ _____    ______ ____
ROOT
ATOM      1  O   UNL     1      -0.367  -0.025  -0.610  0.00  0.00    -0.297 OA
ENDROOT
BRANCH   1   3
ATOM      2  C   UNL     1      -2.236  -1.101   0.485  0.00  0.00    +0.028 C 
ATOM      3  C   UNL     1      -1.749   0.130  -0.298  0.00  0.00    +0.124 C 
ATOM      4  C   UNL     1      -3.683  -0.910   0.956  0.00  0.00    +0.002 C 
ATOM      5  C   UNL     1      -3.378   1.603   0.974  0.00  0.00    +0.002 C 
ATOM      6  C   UNL     1      -1.930   1.418   0.509  0.00  0.00    +0.030 C 
ATOM      7  C   UNL     1      -3.854   0.377   1.761  0.00  0.00    +0.000 C 
ATOM      8  C   UNL     1      -3.518   2.871   1.814  0.00  0.00    +0.000 C 
BRANCH   2   9
ATOM      9  C   UNL     1      -2.114  -2.377  -0.351  0.00  0.00    +0.002 C 
ATOM     10  C   UNL     1      -2.486  -3.599   0.483  0.00  0.00    +0.000 C 
ATOM     11  C   UNL     1      -2.991  -2.286  -1.596  0.00  0.00    +0.000 C 
ENDBRANCH   2   9
ENDBRANCH   1   3
BRANCH   1  12
ATOM     12  P   UNL     1       0.413   1.090  -1.474  0.00  0.00    +0.340 P 
ATOM     13  O   UNL     1       0.308   2.479  -0.916  0.00  0.00    -0.258 OA
BRANCH  12  14
ATOM     14  O   UNL     1      -0.184   0.933  -2.969  0.00  0.00    -0.323 OA
ATOM     15  H   UNL     1      -1.106   1.234  -2.982  0.00  0.00    +0.220 HD
ENDBRANCH  12  14
BRANCH  12  16
ATOM     16  C   UNL     1       2.088   0.503  -1.625  0.00  0.00    +0.116 C 
BRANCH  16  17
ATOM     17  C   UNL     1       2.840   0.452  -0.302  0.00  0.00    +0.013 C 
BRANCH  17  18
ATOM     18  C   UNL     1       4.253  -0.111  -0.461  0.00  0.00    +0.001 C 
BRANCH  18  19
ATOM     19  C   UNL     1       4.996  -0.131   0.876  0.00  0.00    +0.000 C 
BRANCH  19  20
ATOM     20  C   UNL     1       6.420  -0.664   0.713  0.00  0.00    +0.000 C 
ATOM     21  C   UNL     1       7.173  -0.653   2.034  0.00  0.00    +0.000 C 
ENDBRANCH  19  20
ENDBRANCH  18  19
ENDBRANCH  17  18
ENDBRANCH  16  17
ENDBRANCH  12  16
ENDBRANCH   1  12
TORSDOF 9
