REMARK  Name = 44668
REMARK  3 active torsions:
REMARK  status: ('A' for Active; 'I' for Inactive)
REMARK    1  A    between atoms: C_1  and  C_3
REMARK    2  A    between atoms: C_1  and  C_12
REMARK    3  A    between atoms: C_12  and  C_14
REMARK                            x       y       z     vdW  Elec       q    Type
REMARK                         _______ _______ _______ _____ _____    ______ ____
ROOT
ATOM      1  C   UNL     1       0.300   0.726   0.844  0.00  0.00    +0.028 C 
ENDROOT
BRANCH   1   3
ATOM      2  N   UNL     1      -3.060   1.889   0.011  0.00  0.00    -0.312 N 
ATOM      3  C   UNL     1      -1.140   0.923   0.474  0.00  0.00    -0.006 C 
ATOM      4  C   UNL     1      -2.066  -0.100   0.189  0.00  0.00    +0.011 C 
ATOM      5  C   UNL     1      -1.759   2.132   0.362  0.00  0.00    +0.058 C 
ATOM      6  C   UNL     1      -3.276   0.534  -0.102  0.00  0.00    +0.048 C 
ATOM      7  C   UNL     1      -2.011  -1.508   0.145  0.00  0.00    +0.001 C 
ATOM      8  C   UNL     1      -4.438  -0.171  -0.435  0.00  0.00    +0.015 C 
ATOM      9  C   UNL     1      -3.165  -2.226  -0.188  0.00  0.00    +0.000 C 
ATOM     10  C   UNL     1      -4.359  -1.566  -0.473  0.00  0.00    +0.001 C 
ATOM     11  H   UNL     1      -3.742   2.583  -0.138  0.00  0.00    +0.152 HD
ENDBRANCH   1   3
BRANCH   1  12
ATOM     12  C   UNL     1       1.211   0.707  -0.384  0.00  0.00    +0.005 C 
BRANCH  12  14
ATOM     13  N   UNL     1       5.191  -0.970  -0.179  0.00  0.00    +0.384 N 
ATOM     14  C   UNL     1       2.673   0.528   0.015  0.00  0.00    -0.004 C 
ATOM     15  C   UNL     1       2.890  -0.811   0.731  0.00  0.00    -0.023 C 
ATOM     16  C   UNL     1       3.593   0.622  -1.210  0.00  0.00    -0.023 C 
ATOM     17  C   UNL     1       4.370  -1.042   1.032  0.00  0.00    -0.082 C 
ATOM     18  C   UNL     1       5.046   0.333  -0.832  0.00  0.00    -0.082 C 
ATOM     19  H   UNL     1       4.896  -1.702  -0.826  0.00  0.00    -0.085 HD
ATOM     20  H   UNL     1       6.168  -1.097   0.082  0.00  0.00    -0.085 HD
ENDBRANCH  12  14
ENDBRANCH   1  12
TORSDOF 3
