REMARK  Name = 25021186
REMARK  8 active torsions:
REMARK  status: ('A' for Active; 'I' for Inactive)
REMARK    1  A    between atoms: C_2  and  C_24
REMARK    2  A    between atoms: C_3  and  N_8
REMARK    3  A    between atoms: N_8  and  C_11
REMARK    4  A    between atoms: C_11  and  C_12
REMARK    5  A    between atoms: C_12  and  N_13
REMARK    6  A    between atoms: N_13  and  C_16
REMARK    7  A    between atoms: C_16  and  C_18
REMARK    8  A    between atoms: C_24  and  C_26
REMARK                            x       y       z     vdW  Elec       q    Type
REMARK                         _______ _______ _______ _____ _____    ______ ____
ROOT
ATOM      1  N   UNL     1      -2.302   3.276  -0.281  0.00  0.00    +0.382 N 
ATOM      2  C   UNL     1      -2.566   0.888  -0.264  0.00  0.00    -0.036 C 
ATOM      3  C   UNL     1      -1.112   1.282  -0.014  0.00  0.00    -0.085 C 
ATOM      4  C   UNL     1      -3.309   2.219  -0.122  0.00  0.00    -0.083 C 
ATOM      5  C   UNL     1      -1.048   2.641  -0.692  0.00  0.00    -0.104 C 
ATOM      6  H   UNL     1      -2.170   3.766   0.604  0.00  0.00    -0.085 HD
ATOM      7  H   UNL     1      -2.605   3.954  -0.981  0.00  0.00    -0.085 HD
ENDROOT
BRANCH   3   8
ATOM      8  N   UNL     1      -0.154   0.336  -0.562  0.00  0.00    +0.382 N 
ATOM      9  H   UNL     1      -0.127   0.439  -1.576  0.00  0.00    -0.085 HD
ATOM     10  H   UNL     1      -0.447  -0.607  -0.306  0.00  0.00    -0.085 HD
BRANCH   8  11
ATOM     11  C   UNL     1       1.180   0.571  -0.024  0.00  0.00    -0.106 C 
BRANCH  11  12
ATOM     12  C   UNL     1       2.162  -0.450  -0.591  0.00  0.00    -0.105 C 
BRANCH  12  13
ATOM     13  N   UNL     1       3.501  -0.204  -0.066  0.00  0.00    +0.385 N 
ATOM     14  H   UNL     1       3.486  -0.306   0.949  0.00  0.00    -0.084 HD
ATOM     15  H   UNL     1       3.785   0.741  -0.324  0.00  0.00    -0.084 HD
BRANCH  13  16
ATOM     16  C   UNL     1       4.459  -1.147  -0.625  0.00  0.00    -0.054 C 
BRANCH  16  18
ATOM     17 CL   UNL     1       8.817   1.703  -0.694  0.00  0.00    -0.082 Cl
ATOM     18  C   UNL     1       5.848  -0.912  -0.106  0.00  0.00    -0.043 C 
ATOM     19  C   UNL     1       6.598   0.162  -0.584  0.00  0.00    +0.005 C 
ATOM     20  C   UNL     1       6.388  -1.769   0.852  0.00  0.00    -0.006 C 
ATOM     21  C   UNL     1       7.890   0.379  -0.104  0.00  0.00    +0.057 C 
ATOM     22  C   UNL     1       7.680  -1.553   1.333  0.00  0.00    +0.000 C 
ATOM     23  C   UNL     1       8.431  -0.478   0.854  0.00  0.00    +0.011 C 
ENDBRANCH  16  18
ENDBRANCH  13  16
ENDBRANCH  12  13
ENDBRANCH  11  12
ENDBRANCH   8  11
ENDBRANCH   3   8
BRANCH   2  24
ATOM     24  C   UNL     1      -3.086  -0.198   0.665  0.00  0.00    +0.055 C 
BRANCH  24  26
ATOM     25  N   UNL     1      -5.442   0.213   1.112  0.00  0.00    -0.396 NA
ATOM     26  C   UNL     1      -4.538  -0.506   0.409  0.00  0.00    +0.109 C 
ATOM     27  C   UNL     1      -4.873  -1.485  -0.512  0.00  0.00    +0.020 C 
ATOM     28  C   UNL     1      -6.223  -1.744  -0.725  0.00  0.00    -0.033 C 
ATOM     29  C   UNL     1      -6.744  -0.066   0.878  0.00  0.00    +0.157 C 
ATOM     30  C   UNL     1      -7.182  -1.025  -0.021  0.00  0.00    +0.096 C 
ATOM     31  C   UNL     1      -6.638  -2.788  -1.705  0.00  0.00    +0.027 C 
ATOM     32  N   UNL     1      -7.734   0.658   1.588  0.00  0.00    -0.336 N 
ATOM     33  H   UNL     1      -7.468   1.349   2.237  0.00  0.00    +0.144 HD
ATOM     34  H   UNL     1      -8.688   0.470   1.433  0.00  0.00    +0.144 HD
ENDBRANCH  24  26
ENDBRANCH   2  24
TORSDOF 8
