REMARK  Name = 45270264
REMARK  5 active torsions:
REMARK  status: ('A' for Active; 'I' for Inactive)
REMARK    1  A    between atoms: N_2  and  C_20
REMARK    2  A    between atoms: N_3  and  C_7
REMARK    3  A    between atoms: N_3  and  O_18
REMARK    4  A    between atoms: C_8  and  C_12
REMARK    5  A    between atoms: C_20  and  C_24
REMARK                            x       y       z     vdW  Elec       q    Type
REMARK                         _______ _______ _______ _____ _____    ______ ____
ROOT
ATOM      1  O   UNL     1       0.306  -2.862   1.522  0.00  0.00    -0.273 OA
ATOM      2  N   UNL     1      -0.362  -0.599   1.239  0.00  0.00    -0.253 N 
ATOM      3  C   UNL     1       0.308   0.550   0.776  0.00  0.00    +0.052 C 
ATOM      4  C   UNL     1       1.623   0.241   0.427  0.00  0.00    +0.018 C 
ATOM      5  C   UNL     1       0.475  -1.702   1.215  0.00  0.00    +0.252 C 
ATOM      6  C   UNL     1       1.788  -1.177   0.684  0.00  0.00    +0.202 C 
ATOM      7  C   UNL     1       2.511   1.177  -0.059  0.00  0.00    -0.001 C 
ATOM      8  C   UNL     1      -0.168   1.842   0.644  0.00  0.00    +0.015 C 
ATOM      9  C   UNL     1       2.038   2.483  -0.195  0.00  0.00    -0.000 C 
ATOM     10  C   UNL     1       0.713   2.813   0.153  0.00  0.00    +0.001 C 
ENDROOT
BRANCH   7  11
ATOM     11  C   UNL     1       3.872   0.856  -0.420  0.00  0.00    -0.000 C 
ATOM     12  C   UNL     1       4.887   0.948   0.532  0.00  0.00    -0.000 C 
ATOM     13  C   UNL     1       4.172   0.454  -1.722  0.00  0.00    -0.000 C 
ATOM     14  C   UNL     1       6.201   0.637   0.183  0.00  0.00    -0.000 C 
ATOM     15  C   UNL     1       5.487   0.144  -2.071  0.00  0.00    -0.000 C 
ATOM     16  C   UNL     1       6.501   0.236  -1.118  0.00  0.00    -0.000 C 
ENDBRANCH   7  11
BRANCH   6  17
ATOM     17  N   UNL     1       2.830  -1.909   0.514  0.00  0.00    -0.075 NA
BRANCH  17  18
ATOM     18  O   UNL     1       2.521  -3.218   0.898  0.00  0.00    -0.294 OA
ATOM     19  H   UNL     1       3.172  -3.889   0.838  0.00  0.00    +0.238 HD
ENDBRANCH  17  18
ENDBRANCH   6  17
BRANCH   2  20
ATOM     20  C   UNL     1      -1.738  -0.595   1.673  0.00  0.00    +0.128 C 
BRANCH  20  24
ATOM     21  F   UNL     1      -3.445  -2.966  -2.214  0.00  0.00    -0.204 F 
ATOM     22  O   UNL     1      -3.655   1.373   1.154  0.00  0.00    -0.448 OA
ATOM     23  O   UNL     1      -5.122   2.497  -0.378  0.00  0.00    -0.311 OA
ATOM     24  C   UNL     1      -2.692  -0.685   0.518  0.00  0.00    +0.034 C 
ATOM     25  C   UNL     1      -3.641   0.311   0.286  0.00  0.00    +0.138 C 
ATOM     26  C   UNL     1      -4.513   0.220  -0.806  0.00  0.00    +0.043 C 
ATOM     27  C   UNL     1      -2.627  -1.792  -0.328  0.00  0.00    +0.030 C 
ATOM     28  C   UNL     1      -5.524   1.300  -1.042  0.00  0.00    +0.176 C 
ATOM     29  C   UNL     1      -4.449  -0.899  -1.643  0.00  0.00    +0.031 C 
ATOM     30  C   UNL     1      -3.506  -1.900  -1.405  0.00  0.00    +0.140 C 
ATOM     31  C   UNL     1      -4.795   2.223   0.982  0.00  0.00    +0.361 C 
ENDBRANCH  20  24
ENDBRANCH   2  20
TORSDOF 5
