REMARK  Name = 5282452
REMARK  11 active torsions:
REMARK  status: ('A' for Active; 'I' for Inactive)
REMARK    1  A    between atoms: C_2  and  C_18
REMARK    2  A    between atoms: C_3  and  C_21
REMARK    3  A    between atoms: C_4  and  C_12
REMARK    4  A    between atoms: C_22  and  C_23
REMARK    5  A    between atoms: C_23  and  O_24
REMARK    6  A    between atoms: C_23  and  C_26
REMARK    7  A    between atoms: C_26  and  C_27
REMARK    8  A    between atoms: C_27  and  O_28
REMARK    9  A    between atoms: C_27  and  C_30
REMARK   10  A    between atoms: C_30  and  C_32
REMARK   11  A    between atoms: C_32  and  O_33
REMARK                            x       y       z     vdW  Elec       q    Type
REMARK                         _______ _______ _______ _____ _____    ______ ____
ROOT
ATOM      1  N   UNL     1       3.645  -1.585  -0.304  0.00  0.00    -0.410 NA
ATOM      2  C   UNL     1       2.322  -1.815  -0.466  0.00  0.00    +0.108 C 
ATOM      3  C   UNL     1       1.364  -0.833  -0.390  0.00  0.00    +0.025 C 
ATOM      4  C   UNL     1       1.768   0.462  -0.134  0.00  0.00    +0.004 C 
ATOM      5  C   UNL     1       4.047  -0.325  -0.054  0.00  0.00    +0.113 C 
ATOM      6  C   UNL     1       3.130   0.744   0.040  0.00  0.00    +0.026 C 
ATOM      7  C   UNL     1       5.399  -0.044   0.119  0.00  0.00    +0.085 C 
ATOM      8  C   UNL     1       3.584   2.047   0.302  0.00  0.00    +0.002 C 
ATOM      9  C   UNL     1       5.851   1.252   0.379  0.00  0.00    -0.019 C 
ATOM     10  C   UNL     1       4.943   2.299   0.471  0.00  0.00    -0.004 C 
ENDROOT
BRANCH   4  12
ATOM     11  F   UNL     1      -2.060   4.503   0.186  0.00  0.00    -0.204 F 
ATOM     12  C   UNL     1       0.767   1.519  -0.050  0.00  0.00    +0.000 C 
ATOM     13  C   UNL     1       0.407   2.215  -1.197  0.00  0.00    +0.002 C 
ATOM     14  C   UNL     1       0.186   1.817   1.175  0.00  0.00    +0.002 C 
ATOM     15  C   UNL     1      -0.550   3.226  -1.117  0.00  0.00    +0.030 C 
ATOM     16  C   UNL     1      -0.772   2.829   1.255  0.00  0.00    +0.030 C 
ATOM     17  C   UNL     1      -1.140   3.533   0.109  0.00  0.00    +0.140 C 
ENDBRANCH   4  12
BRANCH   2  18
ATOM     18  C   UNL     1       1.946  -3.238  -0.739  0.00  0.00    +0.052 C 
ATOM     19  C   UNL     1       1.536  -4.111   0.400  0.00  0.00    +0.007 C 
ATOM     20  C   UNL     1       2.857  -4.328  -0.277  0.00  0.00    +0.007 C 
ENDBRANCH   2  18
BRANCH   3  21
ATOM     21  C   UNL     1      -0.057  -1.175  -0.577  0.00  0.00    +0.000 C 
ATOM     22  C   UNL     1      -0.889  -1.562   0.403  0.00  0.00    +0.003 C 
BRANCH  22  23
ATOM     23  C   UNL     1      -2.347  -1.924   0.243  0.00  0.00    +0.135 C 
BRANCH  23  24
ATOM     24  O   UNL     1      -2.576  -3.284   0.600  0.00  0.00    -0.380 OA
ATOM     25  H   UNL     1      -2.020  -3.860   0.052  0.00  0.00    +0.211 HD
ENDBRANCH  23  24
BRANCH  23  26
ATOM     26  C   UNL     1      -3.225  -1.001   1.107  0.00  0.00    +0.064 C 
BRANCH  26  27
ATOM     27  C   UNL     1      -4.729  -1.285   0.976  0.00  0.00    +0.124 C 
BRANCH  27  28
ATOM     28  O   UNL     1      -5.448  -0.395   1.826  0.00  0.00    -0.384 OA
ATOM     29  H   UNL     1      -5.118  -0.478   2.734  0.00  0.00    +0.210 HD
ENDBRANCH  27  28
BRANCH  27  30
ATOM     30  C   UNL     1      -5.243  -1.161  -0.460  0.00  0.00    +0.139 C 
BRANCH  30  32
ATOM     31  O   UNL     1      -5.533   1.233  -0.639  0.00  0.00    -0.250 OA
ATOM     32  C   UNL     1      -5.010   0.208  -1.058  0.00  0.00    +0.316 C 
BRANCH  32  33
ATOM     33  O   UNL     1      -4.177   0.181  -2.127  0.00  0.00    -0.480 OA
ATOM     34  H   UNL     1      -3.802  -0.630  -2.409  0.00  0.00    +0.295 HD
ENDBRANCH  32  33
ENDBRANCH  30  32
ENDBRANCH  27  30
ENDBRANCH  26  27
ENDBRANCH  23  26
ENDBRANCH  22  23
ENDBRANCH   3  21
TORSDOF 11
