REMARK  Name = 7608
REMARK  3 active torsions:
REMARK  status: ('A' for Active; 'I' for Inactive)
REMARK    1  A    between atoms: C_1  and  C_2
REMARK    2  A    between atoms: C_1  and  C_7
REMARK    3  A    between atoms: C_7  and  N_9
REMARK                            x       y       z     vdW  Elec       q    Type
REMARK                         _______ _______ _______ _____ _____    ______ ____
ROOT
ATOM      1  C   UNL     1      -0.381  -1.066   0.011  0.00  0.00    -0.021 C 
ENDROOT
BRANCH   1   2
ATOM      2  C   UNL     1       0.826  -0.189   0.298  0.00  0.00    -0.002 C 
ATOM      3  C   UNL     1       2.084  -0.986   0.628  0.00  0.00    -0.000 C 
ATOM      4  C   UNL     1       1.270   0.635  -0.906  0.00  0.00    -0.000 C 
ATOM      5  C   UNL     1       3.220   0.011   0.423  0.00  0.00    -0.000 C 
ATOM      6  C   UNL     1       2.692   1.062  -0.556  0.00  0.00    -0.000 C 
ENDBRANCH   1   2
BRANCH   1   7
ATOM      7  C   UNL     1      -1.651  -0.275  -0.350  0.00  0.00    -0.062 C 
ATOM      8  C   UNL     1      -2.810  -1.226  -0.643  0.00  0.00    -0.023 C 
BRANCH   7   9
ATOM      9  N   UNL     1      -2.042   0.625   0.735  0.00  0.00    +0.384 N 
ATOM     10  C   UNL     1      -3.208   1.409   0.358  0.00  0.00    -0.106 C 
ATOM     11  H   UNL     1      -1.268   1.255   0.943  0.00  0.00    -0.085 HD
ATOM     12  H   UNL     1      -2.274   0.066   1.556  0.00  0.00    -0.085 HD
ENDBRANCH   7   9
ENDBRANCH   1   7
TORSDOF 3
