REMARK  Name = 15947913
REMARK  14 active torsions:
REMARK  status: ('A' for Active; 'I' for Inactive)
REMARK    1  A    between atoms: C_1  and  N_3
REMARK    2  A    between atoms: C_1  and  C_13
REMARK    3  A    between atoms: C_1  and  C_30
REMARK    4  A    between atoms: C_4  and  C_6
REMARK    5  A    between atoms: C_6  and  C_7
REMARK    6  A    between atoms: C_7  and  C_10
REMARK    7  A    between atoms: C_13  and  O_14
REMARK    8  A    between atoms: C_13  and  C_16
REMARK    9  A    between atoms: C_16  and  N_17
REMARK   10  A    between atoms: N_17  and  S_18
REMARK   11  A    between atoms: N_17  and  C_26
REMARK   12  A    between atoms: S_18  and  C_22
REMARK   13  A    between atoms: C_26  and  C_27
REMARK   14  A    between atoms: C_30  and  C_31
REMARK                            x       y       z     vdW  Elec       q    Type
REMARK                         _______ _______ _______ _____ _____    ______ ____
ROOT
ATOM      1  C   UNL     1       0.594   0.707   1.018  0.00  0.00    +0.104 C 
ENDROOT
BRANCH   1   3
ATOM      2  O   UNL     1       3.282  -0.104   1.690  0.00  0.00    -0.275 OA
ATOM      3  N   UNL     1       1.488  -0.096   0.215  0.00  0.00    -0.303 N 
ATOM      4  C   UNL     1       2.769  -0.436   0.625  0.00  0.00    +0.223 C 
ATOM      5  H   UNL     1       1.174  -0.416  -0.661  0.00  0.00    +0.149 HD
BRANCH   4   6
ATOM      6  C   UNL     1       3.481  -1.283  -0.417  0.00  0.00    +0.095 C 
BRANCH   6   7
ATOM      7  C   UNL     1       4.896  -1.679  -0.005  0.00  0.00    +0.095 C 
BRANCH   7  10
ATOM      8  O   UNL     1       5.078  -2.896  -2.093  0.00  0.00    -0.275 OA
ATOM      9  N   UNL     1       6.879  -2.890  -0.626  0.00  0.00    -0.303 N 
ATOM     10  C   UNL     1       5.598  -2.550  -1.035  0.00  0.00    +0.223 C 
ATOM     11  C   UNL     1       7.765  -3.708  -1.422  0.00  0.00    +0.111 C 
ATOM     12  H   UNL     1       7.199  -2.559   0.244  0.00  0.00    +0.149 HD
ENDBRANCH   7  10
ENDBRANCH   6   7
ENDBRANCH   4   6
ENDBRANCH   1   3
BRANCH   1  13
ATOM     13  C   UNL     1      -0.666  -0.099   1.405  0.00  0.00    +0.146 C 
BRANCH  13  14
ATOM     14  O   UNL     1      -0.275  -1.245   2.161  0.00  0.00    -0.381 OA
ATOM     15  H   UNL     1      -1.062  -1.755   2.407  0.00  0.00    +0.210 HD
ENDBRANCH  13  14
BRANCH  13  16
ATOM     16  C   UNL     1      -1.469  -0.548   0.181  0.00  0.00    +0.127 C 
BRANCH  16  17
ATOM     17  N   UNL     1      -2.852  -0.891   0.588  0.00  0.00    -0.150 NA
BRANCH  17  18
ATOM     18  S   UNL     1      -4.015   0.385   0.598  0.00  0.00    +0.096 S 
ATOM     19  O   UNL     1      -3.377   1.621   1.011  0.00  0.00    -0.150 OA
ATOM     20  O   UNL     1      -5.227  -0.063   1.257  0.00  0.00    -0.150 OA
BRANCH  18  22
ATOM     21  O   UNL     1      -5.537  -0.034  -1.639  0.00  0.00    -0.432 OA
ATOM     22  C   UNL     1      -4.490   0.656  -1.116  0.00  0.00    +0.267 C 
ATOM     23  C   UNL     1      -3.947   1.498  -2.059  0.00  0.00    +0.062 C 
ATOM     24  C   UNL     1      -4.709   1.312  -3.237  0.00  0.00    +0.045 C 
ATOM     25  C   UNL     1      -5.664   0.371  -2.930  0.00  0.00    +0.181 C 
ENDBRANCH  18  22
ENDBRANCH  17  18
BRANCH  17  26
ATOM     26  C   UNL     1      -3.289  -2.201   0.037  0.00  0.00    +0.096 C 
BRANCH  26  27
ATOM     27  C   UNL     1      -3.148  -3.279   1.059  0.00  0.00    +0.018 C 
ATOM     28  C   UNL     1      -3.922  -4.553   0.892  0.00  0.00    +0.001 C 
ATOM     29  C   UNL     1      -4.302  -3.581   1.970  0.00  0.00    +0.001 C 
ENDBRANCH  26  27
ENDBRANCH  17  26
ENDBRANCH  16  17
ENDBRANCH  13  16
ENDBRANCH   1  13
BRANCH   1  30
ATOM     30  C   UNL     1       0.282   2.011   0.259  0.00  0.00    +0.048 C 
BRANCH  30  31
ATOM     31  C   UNL     1       1.415   3.008   0.264  0.00  0.00    -0.020 C 
ATOM     32  C   UNL     1       1.505   3.956   1.283  0.00  0.00    -0.004 C 
ATOM     33  C   UNL     1       2.372   2.981  -0.750  0.00  0.00    -0.004 C 
ATOM     34  C   UNL     1       2.553   4.877   1.288  0.00  0.00    -0.000 C 
ATOM     35  C   UNL     1       3.420   3.902  -0.746  0.00  0.00    -0.000 C 
ATOM     36  C   UNL     1       3.510   4.850   0.273  0.00  0.00    -0.000 C 
ENDBRANCH  30  31
ENDBRANCH   1  30
TORSDOF 14
