REMARK  Name = 25203945
REMARK  2 active torsions:
REMARK  status: ('A' for Active; 'I' for Inactive)
REMARK    1  A    between atoms: C_7  and  C_13
REMARK    2  A    between atoms: C_10  and  O_19
REMARK                            x       y       z     vdW  Elec       q    Type
REMARK                         _______ _______ _______ _____ _____    ______ ____
ROOT
ATOM      1 CL   UNL     1       2.288   2.787   1.391  0.00  0.00    -0.079 Cl
ATOM      2  N   UNL     1      -0.900  -2.543  -0.041  0.00  0.00    -0.270 NA
ATOM      3  C   UNL     1       1.663  -1.333  -0.356  0.00  0.00    -0.016 C 
ATOM      4  C   UNL     1       1.411  -2.702  -0.915  0.00  0.00    +0.053 C 
ATOM      5  C   UNL     1       0.580  -0.607   0.157  0.00  0.00    +0.014 C 
ATOM      6  C   UNL     1       0.310  -3.369  -0.102  0.00  0.00    +0.130 C 
ATOM      7  C   UNL     1      -0.755  -1.264   0.098  0.00  0.00    +0.076 C 
ATOM      8  C   UNL     1       2.938  -0.762  -0.366  0.00  0.00    +0.034 C 
ATOM      9  C   UNL     1       0.782   0.662   0.707  0.00  0.00    +0.016 C 
ATOM     10  C   UNL     1       3.136   0.512   0.166  0.00  0.00    +0.149 C 
ATOM     11  C   UNL     1       2.062   1.219   0.707  0.00  0.00    +0.092 C 
ENDROOT
BRANCH   7  13
ATOM     12 BR   UNL     1      -3.736   2.627  -2.022  0.00  0.00    -0.049 Br
ATOM     13  C   UNL     1      -1.990  -0.448   0.171  0.00  0.00    +0.018 C 
ATOM     14  C   UNL     1      -2.238   0.532  -0.790  0.00  0.00    +0.008 C 
ATOM     15  C   UNL     1      -2.905  -0.659   1.203  0.00  0.00    +0.002 C 
ATOM     16  C   UNL     1      -3.400   1.300  -0.720  0.00  0.00    +0.035 C 
ATOM     17  C   UNL     1      -4.067   0.108   1.273  0.00  0.00    +0.001 C 
ATOM     18  C   UNL     1      -4.315   1.088   0.312  0.00  0.00    +0.007 C 
ENDBRANCH   7  13
BRANCH  10  19
ATOM     19  O   UNL     1       4.390   1.045   0.140  0.00  0.00    -0.471 OA
ATOM     20  C   UNL     1       4.746   1.806  -1.013  0.00  0.00    +0.253 C 
ENDBRANCH  10  19
TORSDOF 2
