REMARK  Name = 9883933
REMARK  10 active torsions:
REMARK  status: ('A' for Active; 'I' for Inactive)
REMARK    1  A    between atoms: N_2  and  C_14
REMARK    2  A    between atoms: C_3  and  O_5
REMARK    3  A    between atoms: O_5  and  C_6
REMARK    4  A    between atoms: C_6  and  O_8
REMARK    5  A    between atoms: O_8  and  C_10
REMARK    6  A    between atoms: C_10  and  C_11
REMARK    7  A    between atoms: C_14  and  C_15
REMARK    8  A    between atoms: C_15  and  C_21
REMARK    9  A    between atoms: C_21  and  C_23
REMARK   10  A    between atoms: C_23  and  O_24
REMARK                            x       y       z     vdW  Elec       q    Type
REMARK                         _______ _______ _______ _____ _____    ______ ____
ROOT
ATOM      1  O   UNL     1       0.877  -0.021   1.310  0.00  0.00    -0.226 OA
ATOM      2  N   UNL     1      -0.910   1.095   0.341  0.00  0.00    -0.271 N 
ATOM      3  C   UNL     1       0.425   0.881   0.613  0.00  0.00    +0.404 C 
ATOM      4  H   UNL     1      -1.154   1.857  -0.233  0.00  0.00    +0.153 HD
ENDROOT
BRANCH   3   5
ATOM      5  O   UNL     1       1.180   1.833  -0.013  0.00  0.00    -0.399 OA
BRANCH   5   6
ATOM      6  C   UNL     1       2.610   1.753   0.174  0.00  0.00    +0.346 C 
ATOM      7  C   UNL     1       3.225   2.921  -0.582  0.00  0.00    +0.100 C 
BRANCH   6   8
ATOM      8  O   UNL     1       3.130   0.521  -0.363  0.00  0.00    -0.414 OA
BRANCH   8  10
ATOM      9  O   UNL     1       5.062   0.701   0.885  0.00  0.00    -0.250 OA
ATOM     10  C   UNL     1       4.358   0.114   0.074  0.00  0.00    +0.319 C 
BRANCH  10  11
ATOM     11  C   UNL     1       4.718  -1.200  -0.595  0.00  0.00    +0.099 C 
ATOM     12  C   UNL     1       4.198  -2.362   0.243  0.00  0.00    +0.012 C 
ATOM     13  C   UNL     1       6.227  -1.308  -0.801  0.00  0.00    +0.012 C 
ENDBRANCH  10  11
ENDBRANCH   8  10
ENDBRANCH   6   8
ENDBRANCH   5   6
ENDBRANCH   3   5
BRANCH   2  14
ATOM     14  C   UNL     1      -1.968   0.259   0.856  0.00  0.00    +0.093 C 
BRANCH  14  15
ATOM     15  C   UNL     1      -2.780  -0.390  -0.282  0.00  0.00    +0.029 C 
ATOM     16  C   UNL     1      -3.933  -1.245   0.292  0.00  0.00    +0.002 C 
ATOM     17  C   UNL     1      -1.866  -1.267  -1.169  0.00  0.00    +0.002 C 
ATOM     18  C   UNL     1      -3.456  -2.523   0.982  0.00  0.00    +0.000 C 
ATOM     19  C   UNL     1      -1.393  -2.545  -0.476  0.00  0.00    +0.000 C 
ATOM     20  C   UNL     1      -2.563  -3.356   0.070  0.00  0.00    +0.000 C 
BRANCH  15  21
ATOM     21  C   UNL     1      -3.376   0.741  -1.142  0.00  0.00    +0.111 C 
BRANCH  21  23
ATOM     22  O   UNL     1      -3.950   2.624   0.296  0.00  0.00    -0.250 OA
ATOM     23  C   UNL     1      -4.273   1.625  -0.329  0.00  0.00    +0.314 C 
BRANCH  23  24
ATOM     24  O   UNL     1      -5.543   1.147  -0.385  0.00  0.00    -0.480 OA
ATOM     25  H   UNL     1      -5.732   0.375  -0.881  0.00  0.00    +0.295 HD
ENDBRANCH  23  24
ENDBRANCH  21  23
ENDBRANCH  15  21
ENDBRANCH  14  15
ENDBRANCH   2  14
TORSDOF 10
