REMARK  Name = 9924495
REMARK  4 active torsions:
REMARK  status: ('A' for Active; 'I' for Inactive)
REMARK    1  A    between atoms: N_2  and  C_22
REMARK    2  A    between atoms: C_3  and  C_14
REMARK    3  A    between atoms: C_4  and  C_9
REMARK    4  A    between atoms: C_15  and  C_21
REMARK                            x       y       z     vdW  Elec       q    Type
REMARK                         _______ _______ _______ _____ _____    ______ ____
ROOT
ATOM      1  O   UNL     1       1.008   2.277  -0.534  0.00  0.00    -0.269 OA
ATOM      2  N   UNL     1      -0.997   1.103  -0.139  0.00  0.00    -0.233 N 
ATOM      3  C   UNL     1       1.191  -0.060  -0.357  0.00  0.00    +0.055 C 
ATOM      4  C   UNL     1      -0.894  -1.305  -0.151  0.00  0.00    +0.033 C 
ATOM      5  C   UNL     1       0.401   1.224  -0.333  0.00  0.00    +0.257 C 
ATOM      6  C   UNL     1       0.543  -1.232  -0.278  0.00  0.00    +0.007 C 
ATOM      7  C   UNL     1      -1.589  -0.158  -0.074  0.00  0.00    +0.074 C 
ENDROOT
BRANCH   4   9
ATOM      8  N   UNL     1      -2.879  -2.588  -0.552  0.00  0.00    -0.244 NA
ATOM      9  C   UNL     1      -1.623  -2.585  -0.054  0.00  0.00    +0.083 C 
ATOM     10  C   UNL     1      -1.013  -3.685   0.524  0.00  0.00    +0.019 C 
ATOM     11  C   UNL     1      -1.740  -4.869   0.594  0.00  0.00    +0.003 C 
ATOM     12  C   UNL     1      -3.555  -3.756  -0.466  0.00  0.00    +0.099 C 
ATOM     13  C   UNL     1      -3.035  -4.913   0.092  0.00  0.00    +0.021 C 
ENDBRANCH   4   9
BRANCH   3  14
ATOM     14  C   UNL     1       2.661  -0.044  -0.463  0.00  0.00    +0.014 C 
ATOM     15  C   UNL     1       3.482  -0.004   0.663  0.00  0.00    +0.069 C 
ATOM     16  C   UNL     1       3.227  -0.070  -1.738  0.00  0.00    +0.001 C 
ATOM     17  C   UNL     1       4.869   0.011   0.516  0.00  0.00    +0.010 C 
ATOM     18  C   UNL     1       4.614  -0.056  -1.886  0.00  0.00    +0.000 C 
ATOM     19  C   UNL     1       5.435  -0.016  -0.759  0.00  0.00    +0.001 C 
BRANCH  15  21
ATOM     20  N   UNL     1       2.497   0.045   3.059  0.00  0.00    -0.191 NA
ATOM     21  C   UNL     1       2.937   0.024   1.988  0.00  0.00    +0.100 C 
ENDBRANCH  15  21
ENDBRANCH   3  14
BRANCH   2  22
ATOM     22  C   UNL     1      -1.812   2.299  -0.039  0.00  0.00    +0.058 C 
ATOM     23  C   UNL     1      -3.125   2.277  -0.493  0.00  0.00    +0.015 C 
ATOM     24  C   UNL     1      -1.271   3.455   0.512  0.00  0.00    +0.015 C 
ATOM     25  C   UNL     1      -3.908   3.427  -0.396  0.00  0.00    +0.001 C 
ATOM     26  C   UNL     1      -2.054   4.605   0.609  0.00  0.00    +0.001 C 
ATOM     27  C   UNL     1      -3.373   4.591   0.155  0.00  0.00    +0.000 C 
ENDBRANCH   2  22
TORSDOF 4
