REMARK  Name = 24864077
REMARK  3 active torsions:
REMARK  status: ('A' for Active; 'I' for Inactive)
REMARK    1  A    between atoms: C_3  and  C_14
REMARK    2  A    between atoms: C_4  and  N_8
REMARK    3  A    between atoms: N_13  and  C_17
REMARK                            x       y       z     vdW  Elec       q    Type
REMARK                         _______ _______ _______ _____ _____    ______ ____
ROOT
ATOM      1  N   UNL     1       1.433   2.205   0.005  0.00  0.00    -0.230 N 
ATOM      2  N   UNL     1       2.684   2.697   0.017  0.00  0.00    -0.178 NA
ATOM      3  C   UNL     1       1.377   0.842  -0.006  0.00  0.00    +0.134 C 
ATOM      4  C   UNL     1       2.682   0.413   0.000  0.00  0.00    +0.091 C 
ATOM      5  C   UNL     1       3.442   1.597   0.014  0.00  0.00    +0.134 C 
ATOM      6  H   UNL     1       0.631   2.776   0.003  0.00  0.00    +0.175 HD
ENDROOT
BRANCH   4   8
ATOM      7  O   UNL     1       5.482  -0.695   0.016  0.00  0.00    -0.275 OA
ATOM      8  N   UNL     1       3.127  -0.887  -0.006  0.00  0.00    -0.282 N 
ATOM      9  C   UNL     1       4.457  -1.369   0.001  0.00  0.00    +0.227 C 
ATOM     10  C   UNL     1       4.523  -2.876  -0.009  0.00  0.00    +0.095 C 
ATOM     11  H   UNL     1       2.425  -1.577  -0.016  0.00  0.00    +0.155 HD
ENDBRANCH   4   8
BRANCH   3  14
ATOM     12  O   UNL     1       0.203  -1.166  -0.007  0.00  0.00    -0.268 OA
ATOM     13  N   UNL     1      -1.063   0.815  -0.023  0.00  0.00    -0.279 N 
ATOM     14  C   UNL     1       0.115   0.057  -0.020  0.00  0.00    +0.266 C 
ATOM     15  H   UNL     1      -0.948   1.793  -0.034  0.00  0.00    +0.155 HD
BRANCH  13  17
ATOM     16  F   UNL     1      -6.279  -1.006   0.022  0.00  0.00    -0.204 F 
ATOM     17  C   UNL     1      -2.381   0.355  -0.012  0.00  0.00    +0.051 C 
ATOM     18  C   UNL     1      -2.641  -1.015   0.004  0.00  0.00    +0.017 C 
ATOM     19  C   UNL     1      -3.437   1.266  -0.017  0.00  0.00    +0.017 C 
ATOM     20  C   UNL     1      -3.958  -1.475   0.015  0.00  0.00    +0.031 C 
ATOM     21  C   UNL     1      -4.754   0.806  -0.005  0.00  0.00    +0.031 C 
ATOM     22  C   UNL     1      -5.014  -0.564   0.010  0.00  0.00    +0.140 C 
ENDBRANCH  13  17
ENDBRANCH   3  14
TORSDOF 3
