REMARK  Name = 3256859
REMARK  10 active torsions:
REMARK  status: ('A' for Active; 'I' for Inactive)
REMARK    1  A    between atoms: C_1  and  C_2
REMARK    2  A    between atoms: C_1  and  C_15
REMARK    3  A    between atoms: C_5  and  N_10
REMARK    4  A    between atoms: C_7  and  O_11
REMARK    5  A    between atoms: N_14  and  C_17
REMARK    6  A    between atoms: C_17  and  C_18
REMARK    7  A    between atoms: C_18  and  C_19
REMARK    8  A    between atoms: C_19  and  C_20
REMARK    9  A    between atoms: C_20  and  C_21
REMARK   10  A    between atoms: C_21  and  C_24
REMARK                            x       y       z     vdW  Elec       q    Type
REMARK                         _______ _______ _______ _____ _____    ______ ____
ROOT
ATOM      1  C   UNL     1       1.933   2.259  -1.020  0.00  0.00    +0.111 C 
ENDROOT
BRANCH   1   2
ATOM      2  C   UNL     1       2.497   0.989  -0.441  0.00  0.00    -0.011 C 
ATOM      3  C   UNL     1       1.899  -0.237  -0.733  0.00  0.00    +0.023 C 
ATOM      4  C   UNL     1       3.616   1.039   0.389  0.00  0.00    -0.001 C 
ATOM      5  C   UNL     1       2.422  -1.413  -0.195  0.00  0.00    +0.176 C 
ATOM      6  C   UNL     1       4.139  -0.137   0.927  0.00  0.00    +0.038 C 
ATOM      7  C   UNL     1       3.542  -1.363   0.635  0.00  0.00    +0.156 C 
BRANCH   5  10
ATOM      8  O   UNL     1       2.190  -3.293  -1.510  0.00  0.00    -0.126 OA
ATOM      9  O   UNL     1       0.883  -3.075   0.240  0.00  0.00    -0.126 OA
ATOM     10  N   UNL     1       1.801  -2.655  -0.503  0.00  0.00    +0.061 N 
ENDBRANCH   5  10
BRANCH   7  11
ATOM     11  O   UNL     1       4.072  -2.499   1.172  0.00  0.00    -0.504 OA
ATOM     12  H   UNL     1       3.682  -3.331   0.986  0.00  0.00    +0.292 HD
ENDBRANCH   7  11
ENDBRANCH   1   2
BRANCH   1  15
ATOM     13  O   UNL     1       1.095   3.285   1.008  0.00  0.00    -0.275 OA
ATOM     14  N   UNL     1      -0.346   3.005  -0.791  0.00  0.00    -0.304 N 
ATOM     15  C   UNL     1       0.879   2.905  -0.140  0.00  0.00    +0.227 C 
ATOM     16  H   UNL     1      -0.418   2.670  -1.714  0.00  0.00    +0.149 HD
BRANCH  14  17
ATOM     17  C   UNL     1      -1.512   3.576  -0.175  0.00  0.00    +0.089 C 
BRANCH  17  18
ATOM     18  C   UNL     1      -2.348   2.536   0.564  0.00  0.00    +0.021 C 
BRANCH  18  19
ATOM     19  C   UNL     1      -2.875   1.437  -0.364  0.00  0.00    +0.002 C 
BRANCH  19  20
ATOM     20  C   UNL     1      -3.697   0.405   0.413  0.00  0.00    +0.012 C 
BRANCH  20  21
ATOM     21  C   UNL     1      -4.215  -0.717  -0.482  0.00  0.00    +0.114 C 
BRANCH  21  24
ATOM     22  O   UNL     1      -5.586  -2.627  -0.612  0.00  0.00    -0.246 OA
ATOM     23  O   UNL     1      -5.278  -1.651   1.430  0.00  0.00    -0.246 OA
ATOM     24  C   UNL     1      -5.109  -1.768   0.185  0.00  0.00    +0.365 C 
ENDBRANCH  21  24
ENDBRANCH  20  21
ENDBRANCH  19  20
ENDBRANCH  18  19
ENDBRANCH  17  18
ENDBRANCH  14  17
ENDBRANCH   1  15
TORSDOF 10
