REMARK  Name = 35375
REMARK  11 active torsions:
REMARK  status: ('A' for Active; 'I' for Inactive)
REMARK    1  A    between atoms: C_1  and  N_17
REMARK    2  A    between atoms: C_2  and  C_8
REMARK    3  A    between atoms: C_8  and  O_9
REMARK    4  A    between atoms: O_9  and  C_10
REMARK    5  A    between atoms: C_10  and  C_11
REMARK    6  A    between atoms: C_11  and  O_12
REMARK    7  A    between atoms: O_12  and  C_13
REMARK    8  A    between atoms: C_13  and  C_14
REMARK    9  A    between atoms: C_14  and  O_15
REMARK   10  A    between atoms: N_17  and  C_19
REMARK   11  A    between atoms: C_21  and  C_28
REMARK                            x       y       z     vdW  Elec       q    Type
REMARK                         _______ _______ _______ _____ _____    ______ ____
ROOT
ATOM      1  C   UNL     1      -2.067  -1.319   0.095  0.00  0.00    +0.055 C 
ATOM      2  C   UNL     1      -3.212  -0.570   0.367  0.00  0.00    +0.089 C 
ATOM      3  C   UNL     1      -2.181  -2.574  -0.504  0.00  0.00    +0.015 C 
ATOM      4  C   UNL     1      -4.470  -1.075   0.040  0.00  0.00    +0.008 C 
ATOM      5  C   UNL     1      -3.440  -3.079  -0.832  0.00  0.00    +0.001 C 
ATOM      6  C   UNL     1      -4.584  -2.329  -0.560  0.00  0.00    +0.000 C 
ENDROOT
BRANCH   2   8
ATOM      7  O   UNL     1      -3.651   1.037   2.073  0.00  0.00    -0.245 OA
ATOM      8  C   UNL     1      -3.127   0.744   0.992  0.00  0.00    +0.342 C 
BRANCH   8   9
ATOM      9  O   UNL     1      -2.392   1.612   0.234  0.00  0.00    -0.443 OA
BRANCH   9  10
ATOM     10  C   UNL     1      -2.235   2.940   0.745  0.00  0.00    +0.241 C 
BRANCH  10  11
ATOM     11  C   UNL     1      -1.397   3.748  -0.227  0.00  0.00    +0.190 C 
BRANCH  11  12
ATOM     12  O   UNL     1      -0.117   3.142  -0.353  0.00  0.00    -0.347 OA
BRANCH  12  13
ATOM     13  C   UNL     1       0.714   3.860  -1.255  0.00  0.00    +0.174 C 
BRANCH  13  14
ATOM     14  C   UNL     1       2.060   3.167  -1.346  0.00  0.00    +0.169 C 
BRANCH  14  15
ATOM     15  O   UNL     1       2.666   3.158  -0.060  0.00  0.00    -0.379 OA
ATOM     16  H   UNL     1       3.528   2.716  -0.111  0.00  0.00    +0.211 HD
ENDBRANCH  14  15
ENDBRANCH  13  14
ENDBRANCH  12  13
ENDBRANCH  11  12
ENDBRANCH  10  11
ENDBRANCH   9  10
ENDBRANCH   8   9
ENDBRANCH   2   8
BRANCH   1  17
ATOM     17  N   UNL     1      -0.783  -0.826   0.418  0.00  0.00    -0.312 N 
ATOM     18  H   UNL     1      -0.774  -0.228   1.200  0.00  0.00    +0.152 HD
BRANCH  17  19
ATOM     19  C   UNL     1       0.484  -1.022  -0.160  0.00  0.00    +0.048 C 
ATOM     20  C   UNL     1       1.630  -0.964   0.635  0.00  0.00    +0.018 C 
ATOM     21  C   UNL     1       2.886  -1.160   0.062  0.00  0.00    +0.073 C 
ATOM     22  C   UNL     1       0.596  -1.275  -1.527  0.00  0.00    +0.015 C 
ATOM     23  C   UNL     1       2.998  -1.412  -1.306  0.00  0.00    +0.004 C 
ATOM     24  C   UNL     1       1.853  -1.470  -2.100  0.00  0.00    +0.001 C 
BRANCH  21  28
ATOM     25  F   UNL     1       5.269  -1.308   0.217  0.00  0.00    -0.166 F 
ATOM     26  F   UNL     1       4.284   0.104   1.536  0.00  0.00    -0.166 F 
ATOM     27  F   UNL     1       4.107  -2.032   1.906  0.00  0.00    -0.166 F 
ATOM     28  C   UNL     1       4.111  -1.098   0.910  0.00  0.00    +0.419 C 
ENDBRANCH  21  28
ENDBRANCH  17  19
ENDBRANCH   1  17
TORSDOF 11
