REMARK  Name = 16220131
REMARK  12 active torsions:
REMARK  status: ('A' for Active; 'I' for Inactive)
REMARK    1  A    between atoms: C_1  and  C_4
REMARK    2  A    between atoms: C_1  and  N_15
REMARK    3  A    between atoms: C_1  and  C_26
REMARK    4  A    between atoms: N_3  and  C_6
REMARK    5  A    between atoms: C_6  and  C_9
REMARK    6  A    between atoms: C_9  and  C_10
REMARK    7  A    between atoms: C_10  and  C_11
REMARK    8  A    between atoms: C_11  and  O_12
REMARK    9  A    between atoms: C_16  and  O_18
REMARK   10  A    between atoms: O_18  and  C_19
REMARK   11  A    between atoms: C_19  and  C_20
REMARK   12  A    between atoms: C_26  and  C_27
REMARK                            x       y       z     vdW  Elec       q    Type
REMARK                         _______ _______ _______ _____ _____    ______ ____
ROOT
ATOM      1  C   UNL     1      -1.147   1.097  -0.430  0.00  0.00    +0.155 C 
ENDROOT
BRANCH   1   4
ATOM      2  O   UNL     1      -1.717  -0.744  -1.901  0.00  0.00    -0.273 OA
ATOM      3  N   UNL     1      -3.234  -0.121  -0.255  0.00  0.00    -0.298 N 
ATOM      4  C   UNL     1      -2.044  -0.012  -0.969  0.00  0.00    +0.241 C 
ATOM      5  H   UNL     1      -3.399   0.519   0.475  0.00  0.00    +0.150 HD
BRANCH   3   6
ATOM      6  C   UNL     1      -4.235  -1.117  -0.526  0.00  0.00    +0.130 C 
ATOM      7  C   UNL     1      -5.626  -0.635  -0.157  0.00  0.00    +0.029 C 
BRANCH   6   9
ATOM      8  O   UNL     1      -3.375  -2.284   1.399  0.00  0.00    -0.294 OA
ATOM      9  C   UNL     1      -3.868  -2.359   0.274  0.00  0.00    +0.171 C 
BRANCH   9  10
ATOM     10  C   UNL     1      -4.194  -3.694  -0.383  0.00  0.00    +0.098 C 
BRANCH  10  11
ATOM     11  C   UNL     1      -3.811  -4.892   0.473  0.00  0.00    +0.145 C 
BRANCH  11  12
ATOM     12  O   UNL     1      -2.421  -4.862   0.773  0.00  0.00    -0.382 OA
ATOM     13  H   UNL     1      -2.191  -5.630   1.319  0.00  0.00    +0.210 HD
ENDBRANCH  11  12
ENDBRANCH  10  11
ENDBRANCH   9  10
ENDBRANCH   6   9
ENDBRANCH   3   6
ENDBRANCH   1   4
BRANCH   1  15
ATOM     14  O   UNL     1       0.333  -0.489   1.501  0.00  0.00    -0.226 OA
ATOM     15  N   UNL     1       0.213   0.630  -0.528  0.00  0.00    -0.264 N 
ATOM     16  C   UNL     1       0.839  -0.123   0.445  0.00  0.00    +0.402 C 
ATOM     17  H   UNL     1       0.725   0.863  -1.336  0.00  0.00    +0.153 HD
BRANCH  16  18
ATOM     18  O   UNL     1       2.119  -0.407   0.059  0.00  0.00    -0.430 OA
BRANCH  18  19
ATOM     19  C   UNL     1       2.890  -1.188   0.979  0.00  0.00    +0.237 C 
BRANCH  19  20
ATOM     20  C   UNL     1       4.260  -1.407   0.407  0.00  0.00    +0.021 C 
ATOM     21  C   UNL     1       4.511  -2.520  -0.395  0.00  0.00    -0.001 C 
ATOM     22  C   UNL     1       5.282  -0.497   0.676  0.00  0.00    -0.001 C 
ATOM     23  C   UNL     1       5.784  -2.724  -0.927  0.00  0.00    -0.000 C 
ATOM     24  C   UNL     1       6.556  -0.701   0.144  0.00  0.00    -0.000 C 
ATOM     25  C   UNL     1       6.806  -1.814  -0.658  0.00  0.00    -0.000 C 
ENDBRANCH  19  20
ENDBRANCH  18  19
ENDBRANCH  16  18
ENDBRANCH   1  15
BRANCH   1  26
ATOM     26  C   UNL     1      -1.372   2.394  -1.216  0.00  0.00    +0.055 C 
BRANCH  26  27
ATOM     27  C   UNL     1      -0.880   3.615  -0.479  0.00  0.00    -0.020 C 
ATOM     28  C   UNL     1       0.432   4.055  -0.655  0.00  0.00    -0.004 C 
ATOM     29  C   UNL     1      -1.736   4.305   0.380  0.00  0.00    -0.004 C 
ATOM     30  C   UNL     1       0.887   5.184   0.026  0.00  0.00    -0.000 C 
ATOM     31  C   UNL     1      -1.281   5.434   1.061  0.00  0.00    -0.000 C 
ATOM     32  C   UNL     1       0.030   5.873   0.884  0.00  0.00    -0.000 C 
ENDBRANCH  26  27
ENDBRANCH   1  26
TORSDOF 12
