REMARK  Name = 5327153
REMARK  6 active torsions:
REMARK  status: ('A' for Active; 'I' for Inactive)
REMARK    1  A    between atoms: C_3  and  C_15
REMARK    2  A    between atoms: C_10  and  O_24
REMARK    3  A    between atoms: C_11  and  N_18
REMARK    4  A    between atoms: N_18  and  S_20
REMARK    5  A    between atoms: O_24  and  C_25
REMARK    6  A    between atoms: C_25  and  C_26
REMARK                            x       y       z     vdW  Elec       q    Type
REMARK                         _______ _______ _______ _____ _____    ______ ____
ROOT
ATOM      1  O   UNL     1       2.627   2.435  -1.374  0.00  0.00    -0.226 OA
ATOM      2  N   UNL     1       0.637   1.523  -0.572  0.00  0.00    -0.235 N 
ATOM      3  C   UNL     1      -0.117   2.767  -0.727  0.00  0.00    +0.159 C 
ATOM      4  C   UNL     1      -1.504   2.541  -1.321  0.00  0.00    +0.055 C 
ATOM      5  C   UNL     1      -0.032   0.377   0.062  0.00  0.00    +0.124 C 
ATOM      6  C   UNL     1      -2.239   1.391  -0.685  0.00  0.00    -0.022 C 
ATOM      7  C   UNL     1      -1.534   0.360  -0.047  0.00  0.00    -0.005 C 
ATOM      8  C   UNL     1      -2.244  -0.711   0.515  0.00  0.00    +0.013 C 
ATOM      9  C   UNL     1      -3.637   1.324  -0.775  0.00  0.00    -0.003 C 
ATOM     10  C   UNL     1       2.014   1.509  -0.847  0.00  0.00    +0.406 C 
ATOM     11  C   UNL     1      -3.635  -0.764   0.432  0.00  0.00    +0.065 C 
ATOM     12  C   UNL     1      -4.331   0.253  -0.215  0.00  0.00    +0.016 C 
ENDROOT
BRANCH   3  15
ATOM     13  O   UNL     1      -0.203   2.761   1.662  0.00  0.00    -0.273 OA
ATOM     14  N   UNL     1      -0.182   4.801   0.540  0.00  0.00    -0.301 N 
ATOM     15  C   UNL     1      -0.165   3.419   0.626  0.00  0.00    +0.241 C 
ATOM     16  C   UNL     1      -0.250   5.663   1.698  0.00  0.00    +0.111 C 
ATOM     17  H   UNL     1      -0.147   5.216  -0.352  0.00  0.00    +0.150 HD
ENDBRANCH   3  15
BRANCH  11  18
ATOM     18  N   UNL     1      -4.343  -1.862   1.008  0.00  0.00    -0.213 N 
ATOM     19  H   UNL     1      -4.850  -1.767   1.847  0.00  0.00    +0.174 HD
BRANCH  18  20
ATOM     20  S   UNL     1      -4.266  -3.369   0.157  0.00  0.00    +0.091 S 
ATOM     21  O   UNL     1      -5.263  -3.168  -1.118  0.00  0.00    -0.050 OA
ATOM     22  O   UNL     1      -2.920  -3.547  -0.358  0.00  0.00    -0.050 OA
ATOM     23  O   UNL     1      -4.856  -4.389   1.005  0.00  0.00    -0.050 OA
ENDBRANCH  18  20
ENDBRANCH  11  18
BRANCH  10  24
ATOM     24  O   UNL     1       2.615   0.341  -0.454  0.00  0.00    -0.430 OA
BRANCH  24  25
ATOM     25  C   UNL     1       4.024   0.247  -0.691  0.00  0.00    +0.237 C 
BRANCH  25  26
ATOM     26  C   UNL     1       4.514  -1.085  -0.204  0.00  0.00    +0.021 C 
ATOM     27  C   UNL     1       4.954  -1.219   1.108  0.00  0.00    -0.001 C 
ATOM     28  C   UNL     1       4.524  -2.174  -1.069  0.00  0.00    -0.001 C 
ATOM     29  C   UNL     1       5.409  -2.457   1.561  0.00  0.00    -0.000 C 
ATOM     30  C   UNL     1       4.979  -3.412  -0.616  0.00  0.00    -0.000 C 
ATOM     31  C   UNL     1       5.422  -3.554   0.699  0.00  0.00    -0.000 C 
ENDBRANCH  25  26
ENDBRANCH  24  25
ENDBRANCH  10  24
TORSDOF 6
