REMARK  Name = 5289566
REMARK  8 active torsions:
REMARK  status: ('A' for Active; 'I' for Inactive)
REMARK    1  A    between atoms: O_1  and  C_3
REMARK    2  A    between atoms: O_1  and  C_14
REMARK    3  A    between atoms: C_2  and  C_12
REMARK    4  A    between atoms: C_14  and  C_15
REMARK    5  A    between atoms: C_15  and  C_16
REMARK    6  A    between atoms: C_16  and  C_17
REMARK    7  A    between atoms: C_17  and  C_18
REMARK    8  A    between atoms: C_18  and  C_21
REMARK                            x       y       z     vdW  Elec       q    Type
REMARK                         _______ _______ _______ _____ _____    ______ ____
ROOT
ATOM      1  O   UNL     1      -0.505   1.404  -0.594  0.00  0.00    -0.475 OA
ENDROOT
BRANCH   1   3
ATOM      2  C   UNL     1      -4.474   0.320  -0.044  0.00  0.00    +0.053 C 
ATOM      3  C   UNL     1      -1.816   1.045  -0.412  0.00  0.00    +0.139 C 
ATOM      4  C   UNL     1      -3.671  -0.400  -0.928  0.00  0.00    +0.008 C 
ATOM      5  C   UNL     1      -3.943   1.403   0.657  0.00  0.00    +0.008 C 
ATOM      6  C   UNL     1      -2.337  -0.036  -1.113  0.00  0.00    +0.037 C 
ATOM      7  C   UNL     1      -2.610   1.767   0.472  0.00  0.00    +0.037 C 
BRANCH   2  12
ATOM      8  O   UNL     1      -6.557   0.700   1.041  0.00  0.00    -0.458 OA
ATOM      9  N   UNL     1      -6.492  -1.044  -0.437  0.00  0.00    -0.236 NA
ATOM     10  C   UNL     1      -7.876  -0.916   0.047  0.00  0.00    +0.150 C 
ATOM     11  C   UNL     1      -7.777   0.004   1.247  0.00  0.00    +0.231 C 
ATOM     12  C   UNL     1      -5.880  -0.064   0.150  0.00  0.00    +0.220 C 
ATOM     13  C   UNL     1      -8.446  -2.281   0.383  0.00  0.00    +0.030 C 
ENDBRANCH   2  12
ENDBRANCH   1   3
BRANCH   1  14
ATOM     14  C   UNL     1       0.403   0.364  -0.930  0.00  0.00    +0.205 C 
BRANCH  14  15
ATOM     15  C   UNL     1       1.784   0.728  -0.402  0.00  0.00    +0.047 C 
BRANCH  15  16
ATOM     16  C   UNL     1       2.811  -0.357  -0.715  0.00  0.00    +0.004 C 
BRANCH  16  17
ATOM     17  C   UNL     1       4.204   0.035  -0.219  0.00  0.00    +0.008 C 
BRANCH  17  18
ATOM     18  C   UNL     1       5.227  -1.068  -0.504  0.00  0.00    +0.067 C 
BRANCH  18  21
ATOM     19  O   UNL     1       7.348  -0.038  -0.970  0.00  0.00    -0.358 OA
ATOM     20  N   UNL     1       8.580   0.253  -0.397  0.00  0.00    -0.082 NA
ATOM     21  C   UNL     1       6.609  -0.672  -0.049  0.00  0.00    +0.154 C 
ATOM     22  C   UNL     1       7.262  -0.828   1.113  0.00  0.00    +0.054 C 
ATOM     23  C   UNL     1       8.505  -0.228   0.847  0.00  0.00    +0.101 C 
ATOM     24  C   UNL     1       9.654  -0.091   1.757  0.00  0.00    +0.056 C 
ENDBRANCH  18  21
ENDBRANCH  17  18
ENDBRANCH  16  17
ENDBRANCH  15  16
ENDBRANCH  14  15
ENDBRANCH   1  14
TORSDOF 8
