REMARK  Name = 1530
REMARK  1 active torsions:
REMARK  status: ('A' for Active; 'I' for Inactive)
REMARK    1  A    between atoms: C_7  and  C_14
REMARK                            x       y       z     vdW  Elec       q    Type
REMARK                         _______ _______ _______ _____ _____    ______ ____
ROOT
ATOM      1  N   UNL     1      -2.707   0.988   0.000  0.00  0.00    -0.240 N 
ATOM      2  N   UNL     1      -3.267  -1.168   0.000  0.00  0.00    -0.319 NA
ATOM      3  N   UNL     1      -1.008  -2.059   0.000  0.00  0.00    -0.181 NA
ATOM      4  N   UNL     1      -5.006   0.492   0.000  0.00  0.00    -0.320 N 
ATOM      5  C   UNL     1      -1.524   0.301   0.000  0.00  0.00    +0.130 C 
ATOM      6  C   UNL     1      -1.901  -1.037   0.000  0.00  0.00    +0.105 C 
ATOM      7  C   UNL     1       0.739  -0.348   0.001  0.00  0.00    +0.022 C 
ATOM      8  C   UNL     1      -0.189   0.690   0.000  0.00  0.00    +0.028 C 
ATOM      9  C   UNL     1      -3.720   0.067   0.000  0.00  0.00    +0.250 C 
ATOM     10  C   UNL     1      -2.845   2.428   0.001  0.00  0.00    +0.122 C 
ATOM     11  C   UNL     1       0.286  -1.663   0.001  0.00  0.00    +0.111 C 
ATOM     12  H   UNL     1      -5.206   1.456   0.000  0.00  0.00    +0.146 HD
ATOM     13  H   UNL     1      -5.741  -0.163   0.000  0.00  0.00    +0.146 HD
ENDROOT
BRANCH   7  14
ATOM     14  C   UNL     1       2.156  -0.060   0.000  0.00  0.00    +0.002 C 
ATOM     15  C   UNL     1       2.840   0.079  -1.208  0.00  0.00    +0.000 C 
ATOM     16  C   UNL     1       2.841   0.079   1.208  0.00  0.00    +0.000 C 
ATOM     17  C   UNL     1       4.207   0.357  -1.208  0.00  0.00    +0.000 C 
ATOM     18  C   UNL     1       4.208   0.357   1.208  0.00  0.00    +0.000 C 
ATOM     19  C   UNL     1       4.891   0.496  -0.001  0.00  0.00    +0.000 C 
ENDBRANCH   7  14
TORSDOF 1
