REMARK  Name = 478379
REMARK  7 active torsions:
REMARK  status: ('A' for Active; 'I' for Inactive)
REMARK    1  A    between atoms: C_4  and  N_23
REMARK    2  A    between atoms: C_24  and  C_26
REMARK    3  A    between atoms: C_26  and  C_27
REMARK    4  A    between atoms: C_26  and  C_31
REMARK    5  A    between atoms: C_27  and  C_28
REMARK    6  A    between atoms: C_31  and  C_34
REMARK    7  A    between atoms: N_33  and  O_36
REMARK                            x       y       z     vdW  Elec       q    Type
REMARK                         _______ _______ _______ _____ _____    ______ ____
ROOT
ATOM      1  O   UNL     1       0.299   0.653  -2.039  0.00  0.00    -0.273 OA
ATOM      2  N   UNL     1       3.970  -0.143   1.124  0.00  0.00    -0.286 N 
ATOM      3  N   UNL     1       0.959   2.270  -0.503  0.00  0.00    -0.303 N 
ATOM      4  C   UNL     1      -0.284   0.356   0.290  0.00  0.00    +0.153 C 
ATOM      5  C   UNL     1       0.423  -0.981   0.557  0.00  0.00    +0.057 C 
ATOM      6  C   UNL     1       1.916  -0.879   0.643  0.00  0.00    -0.004 C 
ATOM      7  C   UNL     1       5.034   0.685   1.671  0.00  0.00    +0.096 C 
ATOM      8  C   UNL     1       2.870  -1.657  -0.093  0.00  0.00    +0.011 C 
ATOM      9  C   UNL     1       4.145  -1.191   0.243  0.00  0.00    +0.051 C 
ATOM     10  C   UNL     1       5.689   1.621   0.644  0.00  0.00    +0.022 C 
ATOM     11  C   UNL     1       2.643  -0.010   1.435  0.00  0.00    +0.061 C 
ATOM     12  C   UNL     1       5.172   3.065   0.652  0.00  0.00    +0.002 C 
ATOM     13  C   UNL     1       3.693   3.268   0.325  0.00  0.00    +0.002 C 
ATOM     14  C   UNL     1       3.292   2.801  -1.080  0.00  0.00    +0.021 C 
ATOM     15  C   UNL     1       0.337   1.093  -0.892  0.00  0.00    +0.241 C 
ATOM     16  C   UNL     1       1.811   3.061  -1.374  0.00  0.00    +0.089 C 
ATOM     17  C   UNL     1       2.761  -2.713  -1.024  0.00  0.00    +0.001 C 
ATOM     18  C   UNL     1       5.311  -1.753  -0.303  0.00  0.00    +0.015 C 
ATOM     19  C   UNL     1       3.918  -3.276  -1.573  0.00  0.00    +0.000 C 
ATOM     20  C   UNL     1       5.175  -2.802  -1.214  0.00  0.00    +0.001 C 
ATOM     21  H   UNL     1       0.814   2.588   0.417  0.00  0.00    +0.149 HD
ENDROOT
BRANCH   4  23
ATOM     22  O   UNL     1      -2.489   0.257   2.124  0.00  0.00    -0.275 OA
ATOM     23  N   UNL     1      -1.670   0.146  -0.042  0.00  0.00    -0.298 N 
ATOM     24  C   UNL     1      -2.671   0.114   0.916  0.00  0.00    +0.223 C 
ATOM     25  H   UNL     1      -1.916   0.021  -0.987  0.00  0.00    +0.150 HD
BRANCH  24  26
ATOM     26  C   UNL     1      -4.073  -0.118   0.352  0.00  0.00    +0.086 C 
BRANCH  26  27
ATOM     27  C   UNL     1      -4.198  -1.474  -0.370  0.00  0.00    +0.010 C 
BRANCH  27  28
ATOM     28  C   UNL     1      -3.857  -2.708   0.493  0.00  0.00    +0.000 C 
ATOM     29  C   UNL     1      -3.946  -4.016  -0.293  0.00  0.00    +0.000 C 
ATOM     30  C   UNL     1      -4.798  -2.768   1.700  0.00  0.00    +0.000 C 
ENDBRANCH  27  28
ENDBRANCH  26  27
BRANCH  26  31
ATOM     31  C   UNL     1      -4.466   1.044  -0.578  0.00  0.00    +0.096 C 
BRANCH  31  34
ATOM     32  O   UNL     1      -6.614   0.608  -1.560  0.00  0.00    -0.273 OA
ATOM     33  N   UNL     1      -6.497   2.032   0.258  0.00  0.00    -0.197 N 
ATOM     34  C   UNL     1      -5.971   1.190  -0.688  0.00  0.00    +0.245 C 
ATOM     35  H   UNL     1      -5.935   2.474   0.935  0.00  0.00    +0.182 HD
BRANCH  33  36
ATOM     36  O   UNL     1      -7.883   2.225   0.201  0.00  0.00    -0.295 OA
ATOM     37  H   UNL     1      -8.155   2.833   0.906  0.00  0.00    +0.241 HD
ENDBRANCH  33  36
ENDBRANCH  31  34
ENDBRANCH  26  31
ENDBRANCH  24  26
ENDBRANCH   4  23
TORSDOF 7
