REMARK  Name = 11167602
REMARK  6 active torsions:
REMARK  status: ('A' for Active; 'I' for Inactive)
REMARK    1  A    between atoms: C_2  and  N_10
REMARK    2  A    between atoms: C_3  and  O_25
REMARK    3  A    between atoms: N_9  and  C_15
REMARK    4  A    between atoms: C_16  and  C_24
REMARK    5  A    between atoms: O_25  and  C_27
REMARK    6  A    between atoms: C_29  and  C_34
REMARK                            x       y       z     vdW  Elec       q    Type
REMARK                         _______ _______ _______ _____ _____    ______ ____
ROOT
ATOM      1  F   UNL     1      -1.217   0.017  -2.443  0.00  0.00    -0.203 F 
ATOM      2  C   UNL     1      -0.545   1.021  -0.399  0.00  0.00    +0.079 C 
ATOM      3  C   UNL     1      -3.147   1.877   0.012  0.00  0.00    +0.148 C 
ATOM      4  C   UNL     1      -1.515   0.717  -1.340  0.00  0.00    +0.157 C 
ATOM      5  C   UNL     1      -0.849   1.743   0.744  0.00  0.00    +0.020 C 
ATOM      6  C   UNL     1      -2.825   1.148  -1.133  0.00  0.00    +0.068 C 
ATOM      7  C   UNL     1      -2.159   2.175   0.950  0.00  0.00    +0.039 C 
ENDROOT
BRANCH   2  10
ATOM      8  O   UNL     1       1.891   1.394   1.289  0.00  0.00    -0.252 OA
ATOM      9  N   UNL     1       3.046   0.185  -0.352  0.00  0.00    -0.268 N 
ATOM     10  N   UNL     1       0.785   0.584  -0.605  0.00  0.00    -0.266 N 
ATOM     11  C   UNL     1       1.900   0.787   0.223  0.00  0.00    +0.308 C 
ATOM     12  H   UNL     1       2.902  -0.270  -1.213  0.00  0.00    +0.156 HD
ATOM     13  H   UNL     1       0.948   0.075  -1.432  0.00  0.00    +0.156 HD
BRANCH   9  15
ATOM     14 CL   UNL     1       8.564   0.066   1.764  0.00  0.00    -0.082 Cl
ATOM     15  C   UNL     1       4.351   0.151   0.140  0.00  0.00    +0.052 C 
ATOM     16  C   UNL     1       6.657  -0.532  -0.089  0.00  0.00    +0.083 C 
ATOM     17  C   UNL     1       5.352  -0.499  -0.582  0.00  0.00    +0.019 C 
ATOM     18  C   UNL     1       4.654   0.767   1.354  0.00  0.00    +0.016 C 
ATOM     19  C   UNL     1       6.960   0.085   1.124  0.00  0.00    +0.062 C 
ATOM     20  C   UNL     1       5.959   0.734   1.846  0.00  0.00    +0.013 C 
BRANCH  16  24
ATOM     21  F   UNL     1       7.223  -1.778  -2.051  0.00  0.00    -0.166 F 
ATOM     22  F   UNL     1       8.732  -0.427  -1.275  0.00  0.00    -0.166 F 
ATOM     23  F   UNL     1       8.275  -2.269  -0.213  0.00  0.00    -0.166 F 
ATOM     24  C   UNL     1       7.701  -1.236  -0.894  0.00  0.00    +0.419 C 
ENDBRANCH  16  24
ENDBRANCH   9  15
ENDBRANCH   2  10
BRANCH   3  25
ATOM     25  O   UNL     1      -4.426   2.298   0.214  0.00  0.00    -0.453 OA
BRANCH  25  27
ATOM     26  N   UNL     1      -7.490  -0.422  -0.481  0.00  0.00    -0.239 NA
ATOM     27  C   UNL     1      -5.446   1.391  -0.018  0.00  0.00    +0.149 C 
ATOM     28  C   UNL     1      -5.327   0.105   0.462  0.00  0.00    +0.061 C 
ATOM     29  C   UNL     1      -6.376  -0.764   0.205  0.00  0.00    +0.137 C 
ATOM     30  C   UNL     1      -6.559   1.796  -0.724  0.00  0.00    +0.058 C 
ATOM     31  C   UNL     1      -7.552   0.852  -0.929  0.00  0.00    +0.102 C 
BRANCH  29  34
ATOM     32  O   UNL     1      -5.348  -2.541   1.337  0.00  0.00    -0.268 OA
ATOM     33  N   UNL     1      -7.420  -2.955   0.381  0.00  0.00    -0.298 N 
ATOM     34  C   UNL     1      -6.324  -2.136   0.679  0.00  0.00    +0.264 C 
ATOM     35  C   UNL     1      -7.527  -4.333   0.802  0.00  0.00    +0.111 C 
ATOM     36  H   UNL     1      -8.158  -2.571  -0.145  0.00  0.00    +0.150 HD
ENDBRANCH  29  34
ENDBRANCH  25  27
ENDBRANCH   3  25
TORSDOF 6
