5502
  -OEChem-10051721283D

 54 56  0     1  0  0  0  0  0999 V2000
   -4.3007   -2.4554    0.7750 O   0  0  0  0  0  0  0  0  0  0  0  0
   -2.0590   -3.5478   -0.4471 O   0  0  0  0  0  0  0  0  0  0  0  0
    4.9224    0.5192   -1.1465 O   0  0  0  0  0  0  0  0  0  0  0  0
    5.1364   -1.1956    1.0299 O   0  0  0  0  0  0  0  0  0  0  0  0
   -1.0528    2.6077   -1.4991 N   0  0  0  0  0  0  0  0  0  0  0  0
    0.0976    2.0206   -0.9970 N   0  0  0  0  0  0  0  0  0  0  0  0
   -2.3344    2.0306    0.5822 C   0  0  1  0  0  0  0  0  0  0  0  0
   -2.2208    0.5405    0.3722 C   0  0  0  0  0  0  0  0  0  0  0  0
   -1.4721    2.5995    1.7040 C   0  0  0  0  0  0  0  0  0  0  0  0
   -1.0862   -0.0262   -0.2271 C   0  0  0  0  0  0  0  0  0  0  0  0
   -2.1148    2.7044   -0.7618 C   0  0  0  0  0  0  0  0  0  0  0  0
   -3.2944   -0.2984    0.7080 C   0  0  0  0  0  0  0  0  0  0  0  0
    0.1031    0.8219   -0.4953 C   0  0  0  0  0  0  0  0  0  0  0  0
   -1.0389   -1.3984   -0.5074 C   0  0  0  0  0  0  0  0  0  0  0  0
   -1.6787    4.0947    1.8592 C   0  0  0  0  0  0  0  0  0  0  0  0
   -3.2410   -1.6670    0.4406 C   0  0  0  0  0  0  0  0  0  0  0  0
   -2.1179   -2.2146   -0.1735 C   0  0  0  0  0  0  0  0  0  0  0  0
   -3.2803    3.4786   -1.3342 C   0  0  0  0  0  0  0  0  0  0  0  0
    1.4402    0.2894   -0.0927 C   0  0  0  0  0  0  0  0  0  0  0  0
    2.5684    0.6568   -0.8136 C   0  0  0  0  0  0  0  0  0  0  0  0
    1.5359   -0.5670    0.9958 C   0  0  0  0  0  0  0  0  0  0  0  0
    3.8161    0.1584   -0.4385 C   0  0  0  0  0  0  0  0  0  0  0  0
    2.7834   -1.0654    1.3707 C   0  0  0  0  0  0  0  0  0  0  0  0
    3.9235   -0.7026    0.6537 C   0  0  0  0  0  0  0  0  0  0  0  0
   -5.3236   -2.6163   -0.2057 C   0  0  0  0  0  0  0  0  0  0  0  0
   -0.8733   -4.0284   -1.0775 C   0  0  0  0  0  0  0  0  0  0  0  0
    5.2818   -0.3060   -2.2529 C   0  0  0  0  0  0  0  0  0  0  0  0
    5.8801   -0.4332    1.9785 C   0  0  0  0  0  0  0  0  0  0  0  0
   -3.3780    2.2433    0.8569 H   0  0  0  0  0  0  0  0  0  0  0  0
   -0.4051    2.4114    1.5554 H   0  0  0  0  0  0  0  0  0  0  0  0
   -1.7360    2.1047    2.6474 H   0  0  0  0  0  0  0  0  0  0  0  0
   -4.1867    0.1180    1.1708 H   0  0  0  0  0  0  0  0  0  0  0  0
   -0.1485   -1.7753   -0.9984 H   0  0  0  0  0  0  0  0  0  0  0  0
   -1.3248    4.6463    0.9828 H   0  0  0  0  0  0  0  0  0  0  0  0
   -2.7345    4.3361    2.0193 H   0  0  0  0  0  0  0  0  0  0  0  0
   -1.1181    4.4612    2.7255 H   0  0  0  0  0  0  0  0  0  0  0  0
   -3.6219    4.2193   -0.6065 H   0  0  0  0  0  0  0  0  0  0  0  0
   -4.0974    2.7863   -1.5550 H   0  0  0  0  0  0  0  0  0  0  0  0
   -2.9893    3.9932   -2.2541 H   0  0  0  0  0  0  0  0  0  0  0  0
    2.5000    1.3194   -1.6725 H   0  0  0  0  0  0  0  0  0  0  0  0
    0.6775   -0.8418    1.6013 H   0  0  0  0  0  0  0  0  0  0  0  0
    2.8611   -1.7299    2.2270 H   0  0  0  0  0  0  0  0  0  0  0  0
   -5.7828   -1.6513   -0.4426 H   0  0  0  0  0  0  0  0  0  0  0  0
   -6.0913   -3.2774    0.2053 H   0  0  0  0  0  0  0  0  0  0  0  0
   -4.9184   -3.0730   -1.1143 H   0  0  0  0  0  0  0  0  0  0  0  0
   -0.9988   -5.1071   -1.2184 H   0  0  0  0  0  0  0  0  0  0  0  0
    0.0071   -3.8927   -0.4399 H   0  0  0  0  0  0  0  0  0  0  0  0
   -0.7401   -3.5924   -2.0735 H   0  0  0  0  0  0  0  0  0  0  0  0
    6.1851    0.1075   -2.7096 H   0  0  0  0  0  0  0  0  0  0  0  0
    4.4829   -0.3132   -3.0012 H   0  0  0  0  0  0  0  0  0  0  0  0
    5.4939   -1.3268   -1.9196 H   0  0  0  0  0  0  0  0  0  0  0  0
    5.3286   -0.3498    2.9202 H   0  0  0  0  0  0  0  0  0  0  0  0
    6.1022    0.5632    1.5832 H   0  0  0  0  0  0  0  0  0  0  0  0
    6.8236   -0.9513    2.1703 H   0  0  0  0  0  0  0  0  0  0  0  0
  1 16  1  0  0  0  0
  1 25  1  0  0  0  0
  2 17  1  0  0  0  0
  2 26  1  0  0  0  0
  3 22  1  0  0  0  0
  3 27  1  0  0  0  0
  4 24  1  0  0  0  0
  4 28  1  0  0  0  0
  5  6  1  0  0  0  0
  5 11  2  0  0  0  0
  6 13  2  0  0  0  0
  7  8  1  0  0  0  0
  7  9  1  0  0  0  0
  7 11  1  0  0  0  0
  7 29  1  0  0  0  0
  8 10  1  0  0  0  0
  8 12  2  0  0  0  0
  9 15  1  0  0  0  0
  9 30  1  0  0  0  0
  9 31  1  0  0  0  0
 10 13  1  0  0  0  0
 10 14  2  0  0  0  0
 11 18  1  0  0  0  0
 12 16  1  0  0  0  0
 12 32  1  0  0  0  0
 13 19  1  0  0  0  0
 14 17  1  0  0  0  0
 14 33  1  0  0  0  0
 15 34  1  0  0  0  0
 15 35  1  0  0  0  0
 15 36  1  0  0  0  0
 16 17  2  0  0  0  0
 18 37  1  0  0  0  0
 18 38  1  0  0  0  0
 18 39  1  0  0  0  0
 19 20  2  0  0  0  0
 19 21  1  0  0  0  0
 20 22  1  0  0  0  0
 20 40  1  0  0  0  0
 21 23  2  0  0  0  0
 21 41  1  0  0  0  0
 22 24  2  0  0  0  0
 23 24  1  0  0  0  0
 23 42  1  0  0  0  0
 25 43  1  0  0  0  0
 25 44  1  0  0  0  0
 25 45  1  0  0  0  0
 26 46  1  0  0  0  0
 26 47  1  0  0  0  0
 26 48  1  0  0  0  0
 27 49  1  0  0  0  0
 27 50  1  0  0  0  0
 27 51  1  0  0  0  0
 28 52  1  0  0  0  0
 28 53  1  0  0  0  0
 28 54  1  0  0  0  0
M  END
> <DATABASE_ID>
DB08811

> <DATABASE_NAME>
drugbank

> <ORIGINAL_SOURCE>
PUBCHEM

> <ORIGINAL_SOURCE_URL>
https://pubchem.ncbi.nlm.nih.gov/rest/pug/compound/inchikey/RUJBDQSFYCKFAA-UHFFFAOYSA-N/SDF?record_type=3d

> <SMILES>
CCC1C2=CC(OC)=C(OC)C=C2C(=NN=C1C)C1=CC(OC)=C(OC)C=C1

> <INCHI_IDENTIFIER>
InChI=1S/C22H26N2O4/c1-7-15-13(2)23-24-22(14-8-9-18(25-3)19(10-14)26-4)17-12-21(28-6)20(27-5)11-16(15)17/h8-12,15H,7H2,1-6H3

> <INCHI_KEY>
RUJBDQSFYCKFAA-UHFFFAOYSA-N

> <FORMULA>
C22H26N2O4

> <MOLECULAR_WEIGHT>
382.4528

> <EXACT_MASS>
382.18925733

> <JCHEM_ACCEPTOR_COUNT>
6

> <JCHEM_AVERAGE_POLARIZABILITY>
42.14405698268847

> <JCHEM_BIOAVAILABILITY>
1

> <JCHEM_DONOR_COUNT>
0

> <JCHEM_FORMAL_CHARGE>
0

> <JCHEM_GHOSE_FILTER>
1

> <JCHEM_IUPAC>
1-(3,4-dimethoxyphenyl)-5-ethyl-7,8-dimethoxy-4-methyl-5H-2,3-benzodiazepine

> <ALOGPS_LOGP>
4.29

> <JCHEM_LOGP>
3.8256045320000003

> <ALOGPS_LOGS>
-5.21

> <JCHEM_MDDR_LIKE_RULE>
1

> <JCHEM_NUMBER_OF_RINGS>
3

> <JCHEM_PHYSIOLOGICAL_CHARGE>
0

> <JCHEM_PKA_STRONGEST_BASIC>
-2.2382082211651433

> <JCHEM_POLAR_SURFACE_AREA>
61.64

> <JCHEM_REFRACTIVITY>
109.03469999999999

> <JCHEM_ROTATABLE_BOND_COUNT>
6

> <JCHEM_RULE_OF_FIVE>
1

> <ALOGPS_SOLUBILITY>
2.39e-03 g/l

> <JCHEM_TRADITIONAL_IUPAC>
seriel

> <JCHEM_VEBER_RULE>
0

> <DRUGBANK_ID>
DB08811

> <DRUG_GROUPS>
experimental

> <GENERIC_NAME>
Tofisopam

> <SYNONYMS>
Tofisopam; Tofisopamum

> <INTERNATIONAL_BRANDS>
Emandaxin; Grandaxin

$$$$
