REMARK  Name = 24779678
REMARK  5 active torsions:
REMARK  status: ('A' for Active; 'I' for Inactive)
REMARK    1  A    between atoms: N_1  and  C_22
REMARK    2  A    between atoms: N_6  and  C_14
REMARK    3  A    between atoms: C_10  and  C_21
REMARK    4  A    between atoms: C_22  and  C_23
REMARK    5  A    between atoms: C_23  and  C_26
REMARK                            x       y       z     vdW  Elec       q    Type
REMARK                         _______ _______ _______ _____ _____    ______ ____
ROOT
ATOM      1  N   UNL     1       2.178   0.507  -0.675  0.00  0.00    -0.294 N 
ATOM      2  N   UNL     1       0.529  -1.133  -0.268  0.00  0.00    -0.123 N 
ATOM      3  N   UNL     1      -0.051   1.075  -0.104  0.00  0.00    -0.295 NA
ATOM      4  N   UNL     1      -1.694  -0.612   0.300  0.00  0.00    -0.314 NA
ATOM      5  N   UNL     1       1.387  -2.144  -0.493  0.00  0.00    -0.170 NA
ATOM      6  N   UNL     1      -2.275   1.629   0.466  0.00  0.00    -0.238 N 
ATOM      7  C   UNL     1       0.884   0.204  -0.348  0.00  0.00    +0.276 C 
ATOM      8  C   UNL     1      -0.737  -1.533   0.050  0.00  0.00    +0.219 C 
ATOM      9  C   UNL     1      -1.339   0.652   0.220  0.00  0.00    +0.207 C 
ATOM     10  C   UNL     1      -0.703  -2.909   0.030  0.00  0.00    +0.203 C 
ATOM     11  C   UNL     1       0.627  -3.228  -0.309  0.00  0.00    +0.116 C 
ATOM     12  H   UNL     1       2.810  -0.228  -0.841  0.00  0.00    +0.150 HD
ATOM     13  H   UNL     1      -1.942   2.475   0.842  0.00  0.00    +0.166 HD
ENDROOT
BRANCH   6  14
ATOM     14  C   UNL     1      -3.646   1.544   0.239  0.00  0.00    +0.058 C 
ATOM     15  C   UNL     1      -4.532   2.261   1.043  0.00  0.00    +0.015 C 
ATOM     16  C   UNL     1      -4.134   0.744  -0.794  0.00  0.00    +0.015 C 
ATOM     17  C   UNL     1      -5.905   2.177   0.815  0.00  0.00    +0.001 C 
ATOM     18  C   UNL     1      -5.507   0.660  -1.022  0.00  0.00    +0.001 C 
ATOM     19  C   UNL     1      -6.393   1.376  -0.217  0.00  0.00    +0.000 C 
ENDBRANCH   6  14
BRANCH  10  21
ATOM     20  N   UNL     1      -2.668  -4.511   0.515  0.00  0.00    -0.195 NA
ATOM     21  C   UNL     1      -1.785  -3.790   0.297  0.00  0.00    +0.087 C 
ENDBRANCH  10  21
BRANCH   1  22
ATOM     22  C   UNL     1       2.643   1.856  -0.785  0.00  0.00    +0.096 C 
BRANCH  22  23
ATOM     23  C   UNL     1       4.104   1.895  -1.232  0.00  0.00    +0.063 C 
BRANCH  23  26
ATOM     24  N   UNL     1       5.874   0.206  -0.610  0.00  0.00    -0.319 N 
ATOM     25  N   UNL     1       6.242   0.568   1.550  0.00  0.00    -0.315 N 
ATOM     26  C   UNL     1       5.041   1.229  -0.255  0.00  0.00    +0.039 C 
ATOM     27  C   UNL     1       5.285   1.434   1.083  0.00  0.00    +0.069 C 
ATOM     28  C   UNL     1       6.575  -0.158   0.506  0.00  0.00    +0.182 C 
ATOM     29  H   UNL     1       5.955  -0.196  -1.505  0.00  0.00    +0.148 HD
ATOM     30  H   UNL     1       6.599   0.504   2.465  0.00  0.00    +0.148 HD
ENDBRANCH  23  26
ENDBRANCH  22  23
ENDBRANCH   1  22
TORSDOF 5
