REMARK  Name = 6102761
REMARK  5 active torsions:
REMARK  status: ('A' for Active; 'I' for Inactive)
REMARK    1  A    between atoms: C_9  and  C_21
REMARK    2  A    between atoms: C_12  and  C_13
REMARK    3  A    between atoms: C_18  and  C_20
REMARK    4  A    between atoms: C_21  and  C_26
REMARK    5  A    between atoms: C_21  and  O_27
REMARK                            x       y       z     vdW  Elec       q    Type
REMARK                         _______ _______ _______ _____ _____    ______ ____
ROOT
ATOM      1  O   UNL     1      -3.146  -1.143   1.623  0.00  0.00    -0.272 OA
ATOM      2  O   UNL     1       2.269   2.697  -1.060  0.00  0.00    -0.270 OA
ATOM      3  N   UNL     1      -1.773   0.061   0.181  0.00  0.00    -0.276 N 
ATOM      4  N   UNL     1       0.847   1.174   0.009  0.00  0.00    -0.274 N 
ATOM      5  C   UNL     1      -0.607  -0.840   0.216  0.00  0.00    +0.095 C 
ATOM      6  C   UNL     1      -0.314   2.077  -0.021  0.00  0.00    +0.096 C 
ATOM      7  C   UNL     1      -1.571   1.345  -0.504  0.00  0.00    +0.113 C 
ATOM      8  C   UNL     1       0.645  -0.106   0.704  0.00  0.00    +0.113 C 
ATOM      9  C   UNL     1      -3.007  -0.404   0.645  0.00  0.00    +0.258 C 
ATOM     10  C   UNL     1      -0.383  -1.506  -1.144  0.00  0.00    +0.023 C 
ATOM     11  C   UNL     1      -0.531   2.745   1.339  0.00  0.00    +0.023 C 
ATOM     12  C   UNL     1       2.077   1.632  -0.476  0.00  0.00    +0.249 C 
ENDROOT
BRANCH  12  13
ATOM     13  C   UNL     1       3.254   0.778  -0.286  0.00  0.00    +0.054 C 
ATOM     14  C   UNL     1       3.592  -0.162  -1.257  0.00  0.00    +0.005 C 
ATOM     15  C   UNL     1       4.028   0.910   0.864  0.00  0.00    +0.005 C 
ATOM     16  C   UNL     1       4.711  -0.974  -1.076  0.00  0.00    +0.010 C 
ATOM     17  C   UNL     1       5.147   0.098   1.045  0.00  0.00    +0.010 C 
ATOM     18  C   UNL     1       5.489  -0.845   0.074  0.00  0.00    +0.068 C 
BRANCH  18  20
ATOM     19  N   UNL     1       7.569  -2.353   0.411  0.00  0.00    -0.191 NA
ATOM     20  C   UNL     1       6.636  -1.676   0.260  0.00  0.00    +0.100 C 
ENDBRANCH  18  20
ENDBRANCH  12  13
BRANCH   9  21
ATOM     21  C   UNL     1      -4.229   0.048  -0.115  0.00  0.00    +0.245 C 
ATOM     22  C   UNL     1      -4.736   1.343   0.497  0.00  0.00    +0.048 C 
BRANCH  21  26
ATOM     23  F   UNL     1      -5.665  -1.351   1.135  0.00  0.00    -0.167 F 
ATOM     24  F   UNL     1      -6.392  -0.652  -0.797  0.00  0.00    -0.167 F 
ATOM     25  F   UNL     1      -4.827  -2.169  -0.703  0.00  0.00    -0.167 F 
ATOM     26  C   UNL     1      -5.286  -1.037  -0.124  0.00  0.00    +0.427 C 
ENDBRANCH  21  26
BRANCH  21  27
ATOM     27  O   UNL     1      -3.797   0.308  -1.441  0.00  0.00    -0.372 OA
ATOM     28  H   UNL     1      -3.471  -0.513  -1.841  0.00  0.00    +0.211 HD
ENDBRANCH  21  27
ENDBRANCH   9  21
TORSDOF 5
