REMARK  Name = 6917779
REMARK  6 active torsions:
REMARK  status: ('A' for Active; 'I' for Inactive)
REMARK    1  A    between atoms: C_1  and  C_4
REMARK    2  A    between atoms: C_1  and  C_12
REMARK    3  A    between atoms: C_2  and  C_17
REMARK    4  A    between atoms: N_11  and  C_13
REMARK    5  A    between atoms: N_11  and  C_15
REMARK    6  A    between atoms: C_17  and  N_18
REMARK                            x       y       z     vdW  Elec       q    Type
REMARK                         _______ _______ _______ _____ _____    ______ ____
ROOT
ATOM      1  C   UNL     1      -0.113   0.600  -0.359  0.00  0.00    +0.086 C 
ATOM      2  C   UNL     1      -0.510   1.958  -0.840  0.00  0.00    -0.009 C 
ATOM      3  C   UNL     1      -0.595   0.777  -1.762  0.00  0.00    +0.011 C 
ENDROOT
BRANCH   1   4
ATOM      4  C   UNL     1       1.316   0.271  -0.134  0.00  0.00    -0.015 C 
ATOM      5  C   UNL     1       1.924   0.572   1.089  0.00  0.00    -0.004 C 
ATOM      6  C   UNL     1       2.066  -0.340  -1.144  0.00  0.00    -0.004 C 
ATOM      7  C   UNL     1       3.268   0.265   1.300  0.00  0.00    -0.000 C 
ATOM      8  C   UNL     1       3.410  -0.646  -0.933  0.00  0.00    -0.000 C 
ATOM      9  C   UNL     1       4.011  -0.344   0.289  0.00  0.00    -0.000 C 
ENDBRANCH   1   4
BRANCH   1  12
ATOM     10  O   UNL     1      -1.329   0.520   1.635  0.00  0.00    -0.275 OA
ATOM     11  N   UNL     1      -1.560  -1.319   0.223  0.00  0.00    -0.279 N 
ATOM     12  C   UNL     1      -1.055  -0.067   0.591  0.00  0.00    +0.228 C 
BRANCH  11  13
ATOM     13  C   UNL     1      -2.873  -1.782   0.649  0.00  0.00    +0.093 C 
ATOM     14  C   UNL     1      -3.931  -1.391  -0.330  0.00  0.00    +0.023 C 
ENDBRANCH  11  13
BRANCH  11  15
ATOM     15  C   UNL     1      -0.804  -2.247  -0.613  0.00  0.00    +0.093 C 
ATOM     16  C   UNL     1       0.045  -3.156   0.215  0.00  0.00    +0.023 C 
ENDBRANCH  11  15
ENDBRANCH   1  12
BRANCH   2  17
ATOM     17  C   UNL     1      -1.768   2.593  -0.371  0.00  0.00    -0.085 C 
BRANCH  17  18
ATOM     18  N   UNL     1      -1.503   3.738   0.495  0.00  0.00    +0.380 N 
ATOM     19  H   UNL     1      -2.387   4.148   0.797  0.00  0.00    -0.089 HD
ATOM     20  H   UNL     1      -0.963   4.435  -0.018  0.00  0.00    -0.089 HD
ATOM     21  H   UNL     1      -0.974   3.432   1.312  0.00  0.00    -0.089 HD
ENDBRANCH  17  18
ENDBRANCH   2  17
TORSDOF 6
