REMARK  Name = 4139
REMARK  2 active torsions:
REMARK  status: ('A' for Active; 'I' for Inactive)
REMARK    1  A    between atoms: N_2  and  C_8
REMARK    2  A    between atoms: C_9  and  N_18
REMARK                            x       y       z     vdW  Elec       q    Type
REMARK                         _______ _______ _______ _____ _____    ______ ____
ROOT
ATOM      1  S   UNL     1      -0.007  -1.525  -0.067  0.00  0.00    -0.082 S 
ATOM      2  N   UNL     1      -0.052   1.642   0.074  0.00  0.00    -0.409 NA
ATOM      3  C   UNL     1      -1.375  -0.480  -0.023  0.00  0.00    +0.056 C 
ATOM      4  C   UNL     1       1.355  -0.391  -0.015  0.00  0.00    +0.056 C 
ATOM      5  C   UNL     1      -1.174   0.995   0.043  0.00  0.00    +0.119 C 
ATOM      6  C   UNL     1       1.189   0.996   0.047  0.00  0.00    +0.119 C 
ATOM      7  C   UNL     1      -3.813  -0.156  -0.013  0.00  0.00    +0.045 C 
ATOM      8  C   UNL     1       3.773  -0.108   0.001  0.00  0.00    +0.045 C 
ATOM      9  C   UNL     1      -2.607  -1.007  -0.049  0.00  0.00    +0.023 C 
ATOM     10  C   UNL     1       2.650  -0.934  -0.037  0.00  0.00    +0.023 C 
ATOM     11  C   UNL     1      -2.410   1.826   0.079  0.00  0.00    +0.087 C 
ATOM     12  C   UNL     1       2.330   1.815   0.085  0.00  0.00    +0.087 C 
ATOM     13  C   UNL     1      -3.636   1.302   0.052  0.00  0.00    -0.004 C 
ATOM     14  C   UNL     1       3.613   1.270   0.062  0.00  0.00    -0.004 C 
ENDROOT
BRANCH   7  15
ATOM     15  N   UNL     1      -4.987  -0.675  -0.042  0.00  0.00    -0.304 N 
ATOM     16  C   UNL     1      -5.185  -2.146  -0.108  0.00  0.00    +0.112 C 
ATOM     17  C   UNL     1      -6.210   0.168  -0.009  0.00  0.00    +0.112 C 
ENDBRANCH   7  15
BRANCH   8  18
ATOM     18  N   UNL     1       5.066  -0.670  -0.023  0.00  0.00    -0.304 N 
ATOM     19  C   UNL     1       6.171   0.056  -0.616  0.00  0.00    +0.112 C 
ATOM     20  C   UNL     1       5.310  -1.976   0.557  0.00  0.00    +0.112 C 
ENDBRANCH   8  18
TORSDOF 2
