REMARK  Name = 30843
REMARK  4 active torsions:
REMARK  status: ('A' for Active; 'I' for Inactive)
REMARK    1  A    between atoms: C_4  and  C_11
REMARK    2  A    between atoms: C_4  and  C_24
REMARK    3  A    between atoms: N_10  and  C_17
REMARK    4  A    between atoms: C_17  and  C_18
REMARK                            x       y       z     vdW  Elec       q    Type
REMARK                         _______ _______ _______ _____ _____    ______ ____
ROOT
ATOM      1  O   UNL     1       1.708  -1.287   2.296  0.00  0.00    -0.274 OA
ATOM      2  O   UNL     1       3.839  -3.845  -0.871  0.00  0.00    -0.275 OA
ATOM      3  N   UNL     1       2.747  -2.531   0.673  0.00  0.00    -0.255 N 
ATOM      4  C   UNL     1       1.805  -0.309   0.071  0.00  0.00    +0.088 C 
ATOM      5  C   UNL     1       1.626  -1.003  -1.298  0.00  0.00    +0.022 C 
ATOM      6  C   UNL     1       2.052  -1.407   1.119  0.00  0.00    +0.231 C 
ATOM      7  C   UNL     1       2.854  -1.818  -1.672  0.00  0.00    +0.086 C 
ATOM      8  C   UNL     1       3.185  -2.836  -0.610  0.00  0.00    +0.228 C 
ATOM      9  H   UNL     1       2.957  -3.201   1.363  0.00  0.00    +0.158 HD
ENDROOT
BRANCH   4  11
ATOM     10  N   UNL     1      -2.272   1.085  -0.234  0.00  0.00    +0.390 N 
ATOM     11  C   UNL     1       0.493   0.378   0.439  0.00  0.00    +0.008 C 
ATOM     12  C   UNL     1      -0.656  -0.633   0.512  0.00  0.00    -0.022 C 
ATOM     13  C   UNL     1       0.147   1.481  -0.567  0.00  0.00    -0.022 C 
ATOM     14  C   UNL     1      -1.993   0.061   0.782  0.00  0.00    -0.077 C 
ATOM     15  C   UNL     1      -1.215   2.106  -0.261  0.00  0.00    -0.077 C 
ATOM     16  H   UNL     1      -2.291   0.628  -1.145  0.00  0.00    -0.079 HD
BRANCH  10  17
ATOM     17  C   UNL     1      -3.575   1.704   0.008  0.00  0.00    -0.050 C 
BRANCH  17  18
ATOM     18  C   UNL     1      -4.692   0.696  -0.040  0.00  0.00    -0.043 C 
ATOM     19  C   UNL     1      -5.326   0.435  -1.246  0.00  0.00    -0.006 C 
ATOM     20  C   UNL     1      -5.072   0.042   1.124  0.00  0.00    -0.006 C 
ATOM     21  C   UNL     1      -6.361  -0.499  -1.291  0.00  0.00    -0.000 C 
ATOM     22  C   UNL     1      -6.107  -0.892   1.080  0.00  0.00    -0.000 C 
ATOM     23  C   UNL     1      -6.751  -1.163  -0.128  0.00  0.00    -0.000 C 
ENDBRANCH  17  18
ENDBRANCH  10  17
ENDBRANCH   4  11
BRANCH   4  24
ATOM     24  C   UNL     1       2.921   0.750   0.044  0.00  0.00    -0.015 C 
ATOM     25  C   UNL     1       3.623   1.042   1.208  0.00  0.00    -0.004 C 
ATOM     26  C   UNL     1       3.219   1.407  -1.145  0.00  0.00    -0.004 C 
ATOM     27  C   UNL     1       4.634   2.002   1.183  0.00  0.00    -0.000 C 
ATOM     28  C   UNL     1       4.230   2.367  -1.170  0.00  0.00    -0.000 C 
ATOM     29  C   UNL     1       4.938   2.665  -0.006  0.00  0.00    -0.000 C 
ENDBRANCH   4  24
TORSDOF 4
