REMARK  Name = 295941
REMARK  8 active torsions:
REMARK  status: ('A' for Active; 'I' for Inactive)
REMARK    1  A    between atoms: C_1  and  C_2
REMARK    2  A    between atoms: C_1  and  C_10
REMARK    3  A    between atoms: C_2  and  N_4
REMARK    4  A    between atoms: C_5  and  O_7
REMARK    5  A    between atoms: O_7  and  C_8
REMARK    6  A    between atoms: C_10  and  N_12
REMARK    7  A    between atoms: C_13  and  O_15
REMARK    8  A    between atoms: O_15  and  C_16
REMARK                            x       y       z     vdW  Elec       q    Type
REMARK                         _______ _______ _______ _____ _____    ______ ____
ROOT
ATOM      1  C   UNL     1       0.000  -1.538  -0.001  0.00  0.00    +0.043 C 
ENDROOT
BRANCH   1   2
ATOM      2  C   UNL     1      -0.670  -0.701  -1.088  0.00  0.00    +0.094 C 
BRANCH   2   4
ATOM      3  O   UNL     1      -3.488  -1.350  -0.810  0.00  0.00    -0.226 OA
ATOM      4  N   UNL     1      -1.720   0.135  -0.572  0.00  0.00    -0.271 N 
ATOM      5  C   UNL     1      -3.043  -0.257  -0.475  0.00  0.00    +0.402 C 
ATOM      6  H   UNL     1      -1.483   1.041  -0.269  0.00  0.00    +0.153 HD
BRANCH   5   7
ATOM      7  O   UNL     1      -3.792   0.757   0.052  0.00  0.00    -0.435 OA
BRANCH   7   8
ATOM      8  C   UNL     1      -5.189   0.485   0.209  0.00  0.00    +0.210 C 
ATOM      9  C   UNL     1      -5.865   1.704   0.801  0.00  0.00    +0.051 C 
ENDBRANCH   7   8
ENDBRANCH   5   7
ENDBRANCH   2   4
ENDBRANCH   1   2
BRANCH   1  10
ATOM     10  C   UNL     1       0.673  -0.708   1.090  0.00  0.00    +0.094 C 
BRANCH  10  12
ATOM     11  O   UNL     1       3.490  -1.354   0.801  0.00  0.00    -0.226 OA
ATOM     12  N   UNL     1       1.721   0.132   0.577  0.00  0.00    -0.271 N 
ATOM     13  C   UNL     1       3.044  -0.260   0.474  0.00  0.00    +0.402 C 
ATOM     14  H   UNL     1       1.483   1.040   0.281  0.00  0.00    +0.153 HD
BRANCH  13  15
ATOM     15  O   UNL     1       3.791   0.758  -0.049  0.00  0.00    -0.435 OA
BRANCH  15  16
ATOM     16  C   UNL     1       5.188   0.487  -0.212  0.00  0.00    +0.210 C 
ATOM     17  C   UNL     1       5.862   1.709  -0.798  0.00  0.00    +0.051 C 
ENDBRANCH  15  16
ENDBRANCH  13  15
ENDBRANCH  10  12
ENDBRANCH   1  10
TORSDOF 8
