REMARK  Name = 11987888
REMARK  9 active torsions:
REMARK  status: ('A' for Active; 'I' for Inactive)
REMARK    1  A    between atoms: N_2  and  C_30
REMARK    2  A    between atoms: C_10  and  O_23
REMARK    3  A    between atoms: C_12  and  C_14
REMARK    4  A    between atoms: C_17  and  N_22
REMARK    5  A    between atoms: O_23  and  C_25
REMARK    6  A    between atoms: C_25  and  C_26
REMARK    7  A    between atoms: C_30  and  C_31
REMARK    8  A    between atoms: C_31  and  C_32
REMARK    9  A    between atoms: C_32  and  O_33
REMARK                            x       y       z     vdW  Elec       q    Type
REMARK                         _______ _______ _______ _____ _____    ______ ____
ROOT
ATOM      1  O   UNL     1       2.209  -1.795  -0.815  0.00  0.00    -0.270 OA
ATOM      2  N   UNL     1      -0.256   1.482   0.392  0.00  0.00    -0.248 N 
ATOM      3  N   UNL     1      -0.419  -0.567  -0.454  0.00  0.00    -0.371 NA
ATOM      4  N   UNL     1       1.783   0.358   0.042  0.00  0.00    -0.243 N 
ATOM      5  C   UNL     1      -1.580   1.166   0.191  0.00  0.00    +0.081 C 
ATOM      6  C   UNL     1      -1.708  -0.114  -0.339  0.00  0.00    +0.150 C 
ATOM      7  C   UNL     1       0.412   0.422  -0.005  0.00  0.00    +0.248 C 
ATOM      8  C   UNL     1      -2.737   1.925   0.439  0.00  0.00    -0.001 C 
ATOM      9  C   UNL     1      -2.939  -0.698  -0.644  0.00  0.00    +0.067 C 
ATOM     10  C   UNL     1      -4.080   0.071  -0.392  0.00  0.00    +0.133 C 
ATOM     11  C   UNL     1      -3.983   1.359   0.140  0.00  0.00    +0.092 C 
ATOM     12  C   UNL     1       2.584  -0.721  -0.356  0.00  0.00    +0.252 C 
ATOM     13  H   UNL     1       2.251   1.151   0.391  0.00  0.00    +0.159 HD
ENDROOT
BRANCH  12  14
ATOM     14  C   UNL     1       4.049  -0.505  -0.224  0.00  0.00    +0.055 C 
ATOM     15  C   UNL     1       4.901  -1.594  -0.034  0.00  0.00    +0.029 C 
ATOM     16  C   UNL     1       4.572   0.786  -0.289  0.00  0.00    +0.005 C 
ATOM     17  C   UNL     1       6.275  -1.391   0.090  0.00  0.00    +0.143 C 
ATOM     18  C   UNL     1       5.947   0.990  -0.164  0.00  0.00    +0.002 C 
ATOM     19  C   UNL     1       6.798  -0.099   0.025  0.00  0.00    +0.024 C 
BRANCH  17  22
ATOM     20  O   UNL     1       8.376  -2.292   0.392  0.00  0.00    -0.126 OA
ATOM     21  O   UNL     1       6.653  -3.652   0.339  0.00  0.00    -0.126 OA
ATOM     22  N   UNL     1       7.143  -2.498   0.282  0.00  0.00    +0.058 N 
ENDBRANCH  17  22
ENDBRANCH  12  14
BRANCH  10  23
ATOM     23  O   UNL     1      -5.339  -0.461  -0.678  0.00  0.00    -0.428 OA
BRANCH  23  25
ATOM     24  O   UNL     1      -5.381  -1.308   1.495  0.00  0.00    -0.250 OA
ATOM     25  C   UNL     1      -5.899  -1.154   0.395  0.00  0.00    +0.320 C 
BRANCH  25  26
ATOM     26  C   UNL     1      -7.274  -1.701  -0.006  0.00  0.00    +0.090 C 
ATOM     27  C   UNL     1      -7.119  -2.652  -1.200  0.00  0.00    +0.011 C 
ATOM     28  C   UNL     1      -7.901  -2.436   1.187  0.00  0.00    +0.011 C 
ATOM     29  C   UNL     1      -8.190  -0.535  -0.410  0.00  0.00    +0.011 C 
ENDBRANCH  25  26
ENDBRANCH  23  25
ENDBRANCH  10  23
BRANCH   2  30
ATOM     30  C   UNL     1       0.255   2.723   0.927  0.00  0.00    +0.102 C 
BRANCH  30  31
ATOM     31  C   UNL     1       0.543   3.780  -0.138  0.00  0.00    +0.054 C 
BRANCH  31  32
ATOM     32  C   UNL     1       1.024   5.105   0.442  0.00  0.00    +0.139 C 
BRANCH  32  33
ATOM     33  O   UNL     1       1.281   6.005  -0.629  0.00  0.00    -0.382 OA
ATOM     34  H   UNL     1       1.588   6.853  -0.272  0.00  0.00    +0.210 HD
ENDBRANCH  32  33
ENDBRANCH  31  32
ENDBRANCH  30  31
ENDBRANCH   2  30
TORSDOF 9
