257630
  -OEChem-10051721593D

 56 59  0     1  0  0  0  0  0999 V2000
    5.2134   -0.2964    0.5467 O   0  0  0  0  0  0  0  0  0  0  0  0
   -5.8545    0.6360   -1.7183 O   0  0  0  0  0  0  0  0  0  0  0  0
    6.0998    2.0581   -0.3964 O   0  0  0  0  0  0  0  0  0  0  0  0
   -0.3351   -1.0516    0.3679 C   0  0  1  0  0  0  0  0  0  0  0  0
    1.0156   -1.0917   -0.3569 C   0  0  1  0  0  0  0  0  0  0  0  0
   -0.9961    0.3350    0.1141 C   0  0  1  0  0  0  0  0  0  0  0  0
    1.9898    0.0071    0.1190 C   0  0  2  0  0  0  0  0  0  0  0  0
   -2.4214    0.4707    0.7726 C   0  0  2  0  0  0  0  0  0  0  0  0
   -0.0334    1.5074    0.4535 C   0  0  0  0  0  0  0  0  0  0  0  0
   -3.3199   -0.7712    0.4344 C   0  0  2  0  0  0  0  0  0  0  0  0
    1.3532    1.3671   -0.1995 C   0  0  0  0  0  0  0  0  0  0  0  0
    3.2163   -0.3530   -0.7482 C   0  0  2  0  0  0  0  0  0  0  0  0
   -1.2569   -2.1757   -0.1135 C   0  0  0  0  0  0  0  0  0  0  0  0
    1.8570   -2.3619   -0.2910 C   0  0  0  0  0  0  0  0  0  0  0  0
   -2.6017   -2.1175    0.5933 C   0  0  0  0  0  0  0  0  0  0  0  0
    3.2588   -1.8954   -0.7240 C   0  0  0  0  0  0  0  0  0  0  0  0
   -3.0955    1.7794    0.2376 C   0  0  0  0  0  0  0  0  0  0  0  0
    2.3346   -0.0713    1.6294 C   0  0  0  0  0  0  0  0  0  0  0  0
   -2.3216    0.5746    2.3143 C   0  0  0  0  0  0  0  0  0  0  0  0
   -3.9673   -0.6311   -0.9510 C   0  0  0  0  0  0  0  0  0  0  0  0
   -4.6039    1.6608    0.0533 C   0  0  0  0  0  0  0  0  0  0  0  0
    4.5016    0.2613   -0.2872 C   0  0  0  0  0  0  0  0  0  0  0  0
   -4.8988    0.5640   -0.9470 C   0  0  0  0  0  0  0  0  0  0  0  0
    4.8659    1.5954   -0.9032 C   0  0  0  0  0  0  0  0  0  0  0  0
   -0.1736   -1.1928    1.4420 H   0  0  0  0  0  0  0  0  0  0  0  0
    0.8025   -0.9253   -1.4266 H   0  0  0  0  0  0  0  0  0  0  0  0
   -1.1520    0.3956   -0.9745 H   0  0  0  0  0  0  0  0  0  0  0  0
    0.0959    1.5937    1.5365 H   0  0  0  0  0  0  0  0  0  0  0  0
   -0.4674    2.4572    0.1216 H   0  0  0  0  0  0  0  0  0  0  0  0
   -4.1514   -0.7977    1.1555 H   0  0  0  0  0  0  0  0  0  0  0  0
    1.2458    1.4917   -1.2846 H   0  0  0  0  0  0  0  0  0  0  0  0
    1.9912    2.1868    0.1481 H   0  0  0  0  0  0  0  0  0  0  0  0
    3.0505   -0.0453   -1.7900 H   0  0  0  0  0  0  0  0  0  0  0  0
   -0.7989   -3.1509    0.0882 H   0  0  0  0  0  0  0  0  0  0  0  0
   -1.4017   -2.1140   -1.1989 H   0  0  0  0  0  0  0  0  0  0  0  0
    1.4771   -3.1441   -0.9560 H   0  0  0  0  0  0  0  0  0  0  0  0
    1.8843   -2.7734    0.7240 H   0  0  0  0  0  0  0  0  0  0  0  0
   -3.2405   -2.9304    0.2270 H   0  0  0  0  0  0  0  0  0  0  0  0
   -2.4467   -2.3167    1.6613 H   0  0  0  0  0  0  0  0  0  0  0  0
    4.0131   -2.3131   -0.0492 H   0  0  0  0  0  0  0  0  0  0  0  0
    3.4914   -2.2736   -1.7266 H   0  0  0  0  0  0  0  0  0  0  0  0
   -2.6710    2.0419   -0.7409 H   0  0  0  0  0  0  0  0  0  0  0  0
   -2.8755    2.6268    0.8982 H   0  0  0  0  0  0  0  0  0  0  0  0
    2.9867    0.7599    1.9219 H   0  0  0  0  0  0  0  0  0  0  0  0
    1.4503   -0.0114    2.2691 H   0  0  0  0  0  0  0  0  0  0  0  0
    2.8516   -0.9991    1.8944 H   0  0  0  0  0  0  0  0  0  0  0  0
   -1.7893    1.4766    2.6314 H   0  0  0  0  0  0  0  0  0  0  0  0
   -3.3183    0.6264    2.7678 H   0  0  0  0  0  0  0  0  0  0  0  0
   -1.8076   -0.2854    2.7531 H   0  0  0  0  0  0  0  0  0  0  0  0
   -4.5643   -1.5202   -1.1827 H   0  0  0  0  0  0  0  0  0  0  0  0
   -3.2239   -0.4927   -1.7416 H   0  0  0  0  0  0  0  0  0  0  0  0
   -5.0033    2.6039   -0.3345 H   0  0  0  0  0  0  0  0  0  0  0  0
   -5.1090    1.4318    0.9966 H   0  0  0  0  0  0  0  0  0  0  0  0
    4.0973    2.3395   -0.6881 H   0  0  0  0  0  0  0  0  0  0  0  0
    4.9656    1.4726   -1.9850 H   0  0  0  0  0  0  0  0  0  0  0  0
    5.9772    2.2390    0.5512 H   0  0  0  0  0  0  0  0  0  0  0  0
  1 22  2  0  0  0  0
  2 23  2  0  0  0  0
  3 24  1  0  0  0  0
  3 56  1  0  0  0  0
  4  5  1  0  0  0  0
  4  6  1  0  0  0  0
  4 13  1  0  0  0  0
  4 25  1  0  0  0  0
  5  7  1  0  0  0  0
  5 14  1  0  0  0  0
  5 26  1  0  0  0  0
  6  8  1  0  0  0  0
  6  9  1  0  0  0  0
  6 27  1  0  0  0  0
  7 11  1  0  0  0  0
  7 12  1  0  0  0  0
  7 18  1  0  0  0  0
  8 10  1  0  0  0  0
  8 17  1  0  0  0  0
  8 19  1  0  0  0  0
  9 11  1  0  0  0  0
  9 28  1  0  0  0  0
  9 29  1  0  0  0  0
 10 15  1  0  0  0  0
 10 20  1  0  0  0  0
 10 30  1  0  0  0  0
 11 31  1  0  0  0  0
 11 32  1  0  0  0  0
 12 16  1  0  0  0  0
 12 22  1  0  0  0  0
 12 33  1  0  0  0  0
 13 15  1  0  0  0  0
 13 34  1  0  0  0  0
 13 35  1  0  0  0  0
 14 16  1  0  0  0  0
 14 36  1  0  0  0  0
 14 37  1  0  0  0  0
 15 38  1  0  0  0  0
 15 39  1  0  0  0  0
 16 40  1  0  0  0  0
 16 41  1  0  0  0  0
 17 21  1  0  0  0  0
 17 42  1  0  0  0  0
 17 43  1  0  0  0  0
 18 44  1  0  0  0  0
 18 45  1  0  0  0  0
 18 46  1  0  0  0  0
 19 47  1  0  0  0  0
 19 48  1  0  0  0  0
 19 49  1  0  0  0  0
 20 23  1  0  0  0  0
 20 50  1  0  0  0  0
 20 51  1  0  0  0  0
 21 23  1  0  0  0  0
 21 52  1  0  0  0  0
 21 53  1  0  0  0  0
 22 24  1  0  0  0  0
 24 54  1  0  0  0  0
 24 55  1  0  0  0  0
M  END
> <DATABASE_ID>
DB08956

> <DATABASE_NAME>
drugbank

> <ORIGINAL_SOURCE>
PUBCHEM

> <ORIGINAL_SOURCE_URL>
https://pubchem.ncbi.nlm.nih.gov/rest/pug/compound/inchikey/USPYDUPOCUYHQL-VEVMSBRDSA-N/SDF?record_type=3d

> <SMILES>
[H][C@@]1(CC[C@@]2([H])[C@]3([H])CC[C@]4([H])CC(=O)CC[C@]4(C)[C@@]3([H])CC[C@]12C)C(=O)CO

> <INCHI_IDENTIFIER>
InChI=1S/C21H32O3/c1-20-9-7-14(23)11-13(20)3-4-15-16-5-6-18(19(24)12-22)21(16,2)10-8-17(15)20/h13,15-18,22H,3-12H2,1-2H3/t13-,15+,16+,17+,18-,20+,21+/m1/s1

> <INCHI_KEY>
USPYDUPOCUYHQL-VEVMSBRDSA-N

> <FORMULA>
C21H32O3

> <MOLECULAR_WEIGHT>
332.477

> <EXACT_MASS>
332.23514489

> <JCHEM_ACCEPTOR_COUNT>
3

> <JCHEM_AVERAGE_POLARIZABILITY>
38.60562526332246

> <JCHEM_BIOAVAILABILITY>
1

> <JCHEM_DONOR_COUNT>
1

> <JCHEM_FORMAL_CHARGE>
0

> <JCHEM_GHOSE_FILTER>
1

> <JCHEM_IUPAC>
(1S,2S,7R,10R,11S,14S,15S)-14-(2-hydroxyacetyl)-2,15-dimethyltetracyclo[8.7.0.0²,⁷.0¹¹,¹⁵]heptadecan-5-one

> <ALOGPS_LOGP>
3.43

> <JCHEM_LOGP>
3.3771906896666675

> <ALOGPS_LOGS>
-4.33

> <JCHEM_MDDR_LIKE_RULE>
0

> <JCHEM_NUMBER_OF_RINGS>
4

> <JCHEM_PHYSIOLOGICAL_CHARGE>
0

> <JCHEM_PKA_STRONGEST_ACIDIC>
13.86472632401048

> <JCHEM_PKA_STRONGEST_BASIC>
-3.2953178742344527

> <JCHEM_POLAR_SURFACE_AREA>
54.37

> <JCHEM_REFRACTIVITY>
93.58079999999994

> <JCHEM_ROTATABLE_BOND_COUNT>
2

> <JCHEM_RULE_OF_FIVE>
1

> <ALOGPS_SOLUBILITY>
1.56e-02 g/l

> <JCHEM_TRADITIONAL_IUPAC>
hydroxydione

> <JCHEM_VEBER_RULE>
0

> <DRUGBANK_ID>
DB08956

> <DRUG_GROUPS>
investigational; withdrawn

> <GENERIC_NAME>
Hydroxydione

> <SYNONYMS>
21-hydroxy-5β-pregnane-3,20-dione; 5beta-dihydrodeoxycorticosterone; 5β-dihydrodeoxycorticosterone

> <INTERNATIONAL_BRANDS>
Viadril

> <SALTS>
Hydroxydione sodium

$$$$
