REMARK  Name = 24180585
REMARK  4 active torsions:
REMARK  status: ('A' for Active; 'I' for Inactive)
REMARK    1  A    between atoms: C_4  and  C_15
REMARK    2  A    between atoms: C_5  and  N_29
REMARK    3  A    between atoms: C_10  and  C_22
REMARK    4  A    between atoms: C_26  and  O_27
REMARK                            x       y       z     vdW  Elec       q    Type
REMARK                         _______ _______ _______ _____ _____    ______ ____
ROOT
ATOM      1  N   UNL     1       0.594   1.864   0.079  0.00  0.00    -0.298 N 
ATOM      2  N   UNL     1      -1.234   3.300   0.416  0.00  0.00    -0.234 NA
ATOM      3  N   UNL     1      -3.471   2.409   0.323  0.00  0.00    -0.248 NA
ATOM      4  C   UNL     1       2.686   0.927  -0.502  0.00  0.00    +0.026 C 
ATOM      5  C   UNL     1       2.911   2.172   0.373  0.00  0.00    -0.040 C 
ATOM      6  C   UNL     1       1.220   0.569  -0.189  0.00  0.00    +0.094 C 
ATOM      7  C   UNL     1       1.585   2.929   0.225  0.00  0.00    +0.070 C 
ATOM      8  C   UNL     1      -0.769   2.059   0.163  0.00  0.00    +0.111 C 
ATOM      9  C   UNL     1      -1.581   0.958  -0.018  0.00  0.00    +0.106 C 
ATOM     10  C   UNL     1      -2.937   1.195   0.073  0.00  0.00    +0.065 C 
ATOM     11  C   UNL     1      -2.575   3.401   0.482  0.00  0.00    +0.251 C 
ENDROOT
BRANCH   4  15
ATOM     12  F   UNL     1       4.304  -0.166  -2.559  0.00  0.00    -0.204 F 
ATOM     13  F   UNL     1       4.789  -2.366   2.425  0.00  0.00    -0.202 F 
ATOM     14  F   UNL     1       6.291  -3.324   0.351  0.00  0.00    -0.202 F 
ATOM     15  C   UNL     1       3.652  -0.211  -0.276  0.00  0.00    +0.007 C 
ATOM     16  C   UNL     1       4.418  -0.700  -1.334  0.00  0.00    +0.138 C 
ATOM     17  C   UNL     1       3.778  -0.774   0.994  0.00  0.00    +0.030 C 
ATOM     18  C   UNL     1       4.669  -1.825   1.206  0.00  0.00    +0.167 C 
ATOM     19  C   UNL     1       5.310  -1.751  -1.123  0.00  0.00    +0.061 C 
ATOM     20  C   UNL     1       5.435  -2.314   0.148  0.00  0.00    +0.170 C 
ENDBRANCH   4  15
BRANCH  10  22
ATOM     21  N   UNL     1      -5.700  -1.192   0.820  0.00  0.00    -0.210 NA
ATOM     22  C   UNL     1      -3.895   0.128  -0.098  0.00  0.00    +0.033 C 
ATOM     23  C   UNL     1      -3.960  -0.594  -1.284  0.00  0.00    +0.008 C 
ATOM     24  C   UNL     1      -4.779  -0.207   0.915  0.00  0.00    +0.103 C 
ATOM     25  C   UNL     1      -4.894  -1.615  -1.420  0.00  0.00    +0.058 C 
ATOM     26  C   UNL     1      -5.734  -1.872  -0.348  0.00  0.00    +0.225 C 
BRANCH  26  27
ATOM     27  O   UNL     1      -6.663  -2.874  -0.457  0.00  0.00    -0.456 OA
ATOM     28  C   UNL     1      -7.500  -3.097   0.671  0.00  0.00    +0.254 C 
ENDBRANCH  26  27
ENDBRANCH  10  22
BRANCH   5  29
ATOM     29  N   UNL     1       4.047   2.973  -0.055  0.00  0.00    +0.383 N 
ATOM     30  H   UNL     1       4.906   2.435   0.059  0.00  0.00    -0.089 HD
ATOM     31  H   UNL     1       4.099   3.820   0.511  0.00  0.00    -0.089 HD
ATOM     32  H   UNL     1       3.934   3.228  -1.037  0.00  0.00    -0.089 HD
ENDBRANCH   5  29
TORSDOF 4
