REMARK  Name = 5288878
REMARK  9 active torsions:
REMARK  status: ('A' for Active; 'I' for Inactive)
REMARK    1  A    between atoms: C_2  and  C_7
REMARK    2  A    between atoms: C_3  and  C_19
REMARK    3  A    between atoms: C_10  and  C_14
REMARK    4  A    between atoms: C_14  and  O_15
REMARK    5  A    between atoms: N_18  and  CA_21
REMARK    6  A    between atoms: CA_21  and  C_23
REMARK    7  A    between atoms: CA_21  and  CB_24
REMARK    8  A    between atoms: CB_24  and  CG_26
REMARK    9  A    between atoms: CG_26  and  OD1_27
REMARK                            x       y       z     vdW  Elec       q    Type
REMARK                         _______ _______ _______ _____ _____    ______ ____
ROOT
ATOM      1  N   UNL     1       0.354   2.585   0.496  0.00  0.00    -0.242 NA
ATOM      2  C   UNL     1      -1.279   0.843   0.113  0.00  0.00    +0.019 C 
ATOM      3  C   UNL     1       1.043   0.365  -0.057  0.00  0.00    +0.072 C 
ATOM      4  C   UNL     1      -0.258  -0.069  -0.131  0.00  0.00    +0.008 C 
ATOM      5  C   UNL     1      -0.923   2.147   0.419  0.00  0.00    +0.099 C 
ATOM      6  C   UNL     1       1.318   1.670   0.252  0.00  0.00    +0.103 C 
ENDROOT
BRANCH   2   7
ATOM      7  C   UNL     1      -2.665   0.445   0.049  0.00  0.00    +0.002 C 
ATOM      8  C   UNL     1      -3.060  -0.581  -0.811  0.00  0.00    +0.000 C 
ATOM      9  C   UNL     1      -3.615   1.086   0.847  0.00  0.00    +0.000 C 
ATOM     10  C   UNL     1      -5.347  -0.324  -0.076  0.00  0.00    +0.075 C 
ATOM     11  C   UNL     1      -4.400  -0.965  -0.874  0.00  0.00    +0.006 C 
ATOM     12  C   UNL     1      -4.955   0.702   0.785  0.00  0.00    +0.006 C 
BRANCH  10  14
ATOM     13  O   UNL     1      -7.200  -1.616  -0.864  0.00  0.00    -0.245 OA
ATOM     14  C   UNL     1      -6.744  -0.724  -0.141  0.00  0.00    +0.338 C 
BRANCH  14  15
ATOM     15  O   UNL     1      -7.532  -0.001   0.700  0.00  0.00    -0.477 OA
ATOM     16  H   UNL     1      -7.155   0.669   1.236  0.00  0.00    +0.295 HD
ENDBRANCH  14  15
ENDBRANCH  10  14
ENDBRANCH   2   7
BRANCH   3  19
ATOM     17  O   UNL     1       1.969  -1.542  -1.058  0.00  0.00    -0.270 OA
ATOM     18  N   UNL     1       3.361  -0.293   0.313  0.00  0.00    -0.295 N 
ATOM     19  C   ACE A   0       2.156  -0.585  -0.312  0.00  0.00    +0.248 C 
ATOM     20  H   UNL     1       3.413   0.499   0.895  0.00  0.00    +0.150 HD
BRANCH  18  21
ATOM     21  CA  UNL     1       4.539  -1.105   0.145  0.00  0.00    +0.148 C 
BRANCH  21  23
ATOM     22  O   UNL     1       5.223  -3.183   1.176  0.00  0.00    -0.286 OA
ATOM     23  C   UNL     1       4.433  -2.243   1.137  0.00  0.00    +0.227 C 
ENDBRANCH  21  23
BRANCH  21  24
ATOM     24  CB  UNL     1       5.817  -0.299   0.332  0.00  0.00    +0.137 C 
BRANCH  24  26
ATOM     25  OD2 UNL     1       5.413   0.858  -1.751  0.00  0.00    -0.250 OA
ATOM     26  CG  UNL     1       5.866   0.876  -0.614  0.00  0.00    +0.316 C 
BRANCH  26  27
ATOM     27  OD1 UNL     1       6.487   1.954  -0.074  0.00  0.00    -0.480 OA
ATOM     28  HD1 UNL     1       6.816   1.915   0.802  0.00  0.00    +0.295 HD
ENDBRANCH  26  27
ENDBRANCH  24  26
ENDBRANCH  21  24
ENDBRANCH  18  21
ENDBRANCH   3  19
TORSDOF 9
