REMARK  Name = 10617
REMARK  5 active torsions:
REMARK  status: ('A' for Active; 'I' for Inactive)
REMARK    1  A    between atoms: C_10  and  C_18
REMARK    2  A    between atoms: C_18  and  C_19
REMARK    3  A    between atoms: C_19  and  C_20
REMARK    4  A    between atoms: C_20  and  C_22
REMARK    5  A    between atoms: C_22  and  O_23
REMARK                            x       y       z     vdW  Elec       q    Type
REMARK                         _______ _______ _______ _____ _____    ______ ____
ROOT
ATOM      1  C   UNL     1       2.883   0.380   0.000  0.00  0.00    +0.000 C 
ATOM      2  C   UNL     1       0.631  -0.078   0.004  0.00  0.00    +0.000 C 
ATOM      3  C   UNL     1       1.631   0.981   0.004  0.00  0.00    +0.000 C 
ATOM      4  C   UNL     1       2.755  -1.002  -0.004  0.00  0.00    +0.000 C 
ATOM      5  C   UNL     1       1.333  -1.317  -0.001  0.00  0.00    +0.000 C 
ATOM      6  C   UNL     1       4.095   1.067  -0.001  0.00  0.00    +0.000 C 
ATOM      7  C   UNL     1      -0.750  -0.039   0.008  0.00  0.00    +0.003 C 
ATOM      8  C   UNL     1       0.658  -2.522  -0.003  0.00  0.00    +0.000 C 
ATOM      9  C   UNL     1       1.546   2.360   0.009  0.00  0.00    +0.000 C 
ATOM     10  C   UNL     1      -1.435  -1.258   0.006  0.00  0.00    +0.035 C 
ATOM     11  C   UNL     1       3.896  -1.783  -0.009  0.00  0.00    +0.000 C 
ATOM     12  C   UNL     1      -0.740  -2.483   0.000  0.00  0.00    +0.003 C 
ATOM     13  C   UNL     1       4.003   2.473   0.003  0.00  0.00    +0.000 C 
ATOM     14  C   UNL     1       5.254   0.267  -0.006  0.00  0.00    +0.000 C 
ATOM     15  C   UNL     1       2.740   3.104   0.008  0.00  0.00    +0.000 C 
ATOM     16  C   UNL     1       5.146  -1.140  -0.010  0.00  0.00    +0.000 C 
ENDROOT
BRANCH  10  18
ATOM     17  O   UNL     1      -3.524  -2.337   0.010  0.00  0.00    -0.291 OA
ATOM     18  C   UNL     1      -2.890  -1.263   0.009  0.00  0.00    +0.174 C 
BRANCH  18  19
ATOM     19  C   UNL     1      -3.662   0.069   0.015  0.00  0.00    +0.081 C 
BRANCH  19  20
ATOM     20  C   UNL     1      -5.176  -0.109  -0.014  0.00  0.00    +0.117 C 
BRANCH  20  22
ATOM     21  O   UNL     1      -5.295   2.302  -0.018  0.00  0.00    -0.250 OA
ATOM     22  C   UNL     1      -5.876   1.225  -0.014  0.00  0.00    +0.314 C 
BRANCH  22  23
ATOM     23  O   UNL     1      -7.226   1.104   0.004  0.00  0.00    -0.480 OA
ATOM     24  H   UNL     1      -7.621   0.254   0.007  0.00  0.00    +0.295 HD
ENDBRANCH  22  23
ENDBRANCH  20  22
ENDBRANCH  19  20
ENDBRANCH  18  19
ENDBRANCH  10  18
TORSDOF 5
