REMARK  Name = 5289374
REMARK  9 active torsions:
REMARK  status: ('A' for Active; 'I' for Inactive)
REMARK    1  A    between atoms: P_1  and  O_3
REMARK    2  A    between atoms: P_1  and  O_5
REMARK    3  A    between atoms: P_1  and  C_14
REMARK    4  A    between atoms: O_5  and  C_6
REMARK    5  A    between atoms: C_6  and  C_9
REMARK    6  A    between atoms: C_14  and  C_15
REMARK    7  A    between atoms: C_15  and  C_16
REMARK    8  A    between atoms: C_16  and  C_17
REMARK    9  A    between atoms: C_17  and  C_18
REMARK                            x       y       z     vdW  Elec       q    Type
REMARK                         _______ _______ _______ _____ _____    ______ ____
ROOT
ATOM      1  P   UNL     1      -0.169   2.898   0.168  0.00  0.00    +0.340 P 
ATOM      2  O   UNL     1       0.281   3.721   1.327  0.00  0.00    -0.258 OA
ENDROOT
BRANCH   1   3
ATOM      3  O   UNL     1      -0.825   3.734  -1.044  0.00  0.00    -0.323 OA
ATOM      4  H   UNL     1      -1.577   4.249  -0.712  0.00  0.00    +0.220 HD
ENDBRANCH   1   3
BRANCH   1   5
ATOM      5  O   UNL     1      -1.249   1.755   0.515  0.00  0.00    -0.292 OA
BRANCH   5   6
ATOM      6  C   UNL     1      -1.839   0.962  -0.499  0.00  0.00    +0.183 C 
BRANCH   6   9
ATOM      7  O   UNL     1      -2.084  -0.932   0.972  0.00  0.00    -0.332 OA
ATOM      8  O   UNL     1      -2.580  -1.978  -1.069  0.00  0.00    -0.332 OA
ATOM      9  C   UNL     1      -2.811  -0.021   0.141  0.00  0.00    +0.177 C 
ATOM     10  C   UNL     1      -1.928  -2.133   0.200  0.00  0.00    +0.187 C 
ATOM     11  C   UNL     1      -3.502  -0.908  -0.868  0.00  0.00    +0.177 C 
ATOM     12  C   UNL     1      -2.574  -3.286   0.964  0.00  0.00    +0.061 C 
ATOM     13  C   UNL     1      -0.447  -2.402  -0.032  0.00  0.00    +0.061 C 
ENDBRANCH   6   9
ENDBRANCH   5   6
ENDBRANCH   1   5
BRANCH   1  14
ATOM     14  C   UNL     1       1.188   2.021  -0.638  0.00  0.00    +0.116 C 
BRANCH  14  15
ATOM     15  C   UNL     1       1.924   1.056   0.282  0.00  0.00    +0.013 C 
BRANCH  15  16
ATOM     16  C   UNL     1       3.026   0.286  -0.448  0.00  0.00    +0.005 C 
BRANCH  16  17
ATOM     17  C   UNL     1       3.766  -0.657   0.503  0.00  0.00    +0.026 C 
BRANCH  17  18
ATOM     18  C   UNL     1       4.868  -1.391  -0.203  0.00  0.00    -0.026 C 
ATOM     19  C   UNL     1       4.955  -2.724  -0.271  0.00  0.00    -0.005 C 
ENDBRANCH  17  18
ENDBRANCH  16  17
ENDBRANCH  15  16
ENDBRANCH  14  15
ENDBRANCH   1  14
TORSDOF 9
