REMARK  Name = 637568
REMARK  4 active torsions:
REMARK  status: ('A' for Active; 'I' for Inactive)
REMARK    1  A    between atoms: C_1  and  C_4
REMARK    2  A    between atoms: C_2  and  C_8
REMARK    3  A    between atoms: C_4  and  O_5
REMARK    4  A    between atoms: C_8  and  O_9
REMARK                            x       y       z     vdW  Elec       q    Type
REMARK                         _______ _______ _______ _____ _____    ______ ____
ROOT
ATOM      1  C   UNL     1       0.548   0.384  -0.002  0.00  0.00    +0.089 C 
ATOM      2  C   UNL     1      -0.548  -0.384  -0.001  0.00  0.00    +0.089 C 
ENDROOT
BRANCH   1   4
ATOM      3  O   UNL     1       2.091  -1.458  -0.002  0.00  0.00    -0.245 OA
ATOM      4  C   UNL     1       1.882  -0.255  -0.001  0.00  0.00    +0.342 C 
BRANCH   4   5
ATOM      5  O   UNL     1       2.814   0.736   0.001  0.00  0.00    -0.441 OA
ATOM      6  C   UNL     1       4.177   0.299   0.003  0.00  0.00    +0.256 C 
ENDBRANCH   4   5
ENDBRANCH   1   4
BRANCH   2   8
ATOM      7  O   UNL     1      -2.090   1.458  -0.002  0.00  0.00    -0.245 OA
ATOM      8  C   UNL     1      -1.882   0.255  -0.001  0.00  0.00    +0.342 C 
BRANCH   8   9
ATOM      9  O   UNL     1      -2.814  -0.736   0.001  0.00  0.00    -0.441 OA
ATOM     10  C   UNL     1      -4.177  -0.298   0.003  0.00  0.00    +0.256 C 
ENDBRANCH   8   9
ENDBRANCH   2   8
TORSDOF 4
