REMARK  Name = 46937158
REMARK  3 active torsions:
REMARK  status: ('A' for Active; 'I' for Inactive)
REMARK    1  A    between atoms: N_2  and  C_19
REMARK    2  A    between atoms: C_7  and  C_13
REMARK    3  A    between atoms: C_19  and  C_21
REMARK                            x       y       z     vdW  Elec       q    Type
REMARK                         _______ _______ _______ _____ _____    ______ ____
ROOT
ATOM      1  N   UNL     1      -1.149   2.713  -0.501  0.00  0.00    -0.260 N 
ATOM      2  N   UNL     1       1.818   1.345   1.237  0.00  0.00    -0.302 N 
ATOM      3  N   UNL     1      -0.223   0.372   0.651  0.00  0.00    -0.387 NA
ATOM      4  N   UNL     1       0.735   3.803  -0.016  0.00  0.00    -0.224 NA
ATOM      5  C   UNL     1       0.097   2.659   0.067  0.00  0.00    +0.180 C 
ATOM      6  C   UNL     1       0.570   1.425   0.666  0.00  0.00    +0.212 C 
ATOM      7  C   UNL     1      -1.488   0.465   0.071  0.00  0.00    +0.133 C 
ATOM      8  C   UNL     1      -1.959   1.595  -0.503  0.00  0.00    +0.156 C 
ATOM      9  C   UNL     1      -1.319   3.980  -0.983  0.00  0.00    +0.088 C 
ATOM     10  C   UNL     1      -0.145   4.633  -0.671  0.00  0.00    +0.117 C 
ATOM     11  H   UNL     1       2.395   2.143   1.236  0.00  0.00    +0.150 HD
ENDROOT
BRANCH   7  13
ATOM     12  F   UNL     1      -0.672  -1.954  -1.144  0.00  0.00    -0.204 F 
ATOM     13  C   UNL     1      -2.325  -0.756   0.076  0.00  0.00    +0.055 C 
ATOM     14  C   UNL     1      -1.869  -1.921  -0.540  0.00  0.00    +0.142 C 
ATOM     15  C   UNL     1      -3.572  -0.739   0.700  0.00  0.00    +0.005 C 
ATOM     16  C   UNL     1      -2.661  -3.070  -0.532  0.00  0.00    +0.030 C 
ATOM     17  C   UNL     1      -4.364  -1.887   0.708  0.00  0.00    +0.000 C 
ATOM     18  C   UNL     1      -3.908  -3.053   0.092  0.00  0.00    +0.002 C 
ENDBRANCH   7  13
BRANCH   2  19
ATOM     19  C   UNL     1       2.304   0.142   1.832  0.00  0.00    +0.118 C 
BRANCH  19  21
ATOM     20  N   UNL     1       4.400  -1.182  -1.027  0.00  0.00    -0.243 NA
ATOM     21  C   UNL     1       2.841  -0.787   0.779  0.00  0.00    +0.017 C 
ATOM     22  C   UNL     1       2.318  -2.065   0.617  0.00  0.00    +0.001 C 
ATOM     23  C   UNL     1       3.872  -0.397  -0.060  0.00  0.00    +0.096 C 
ATOM     24  C   UNL     1       2.834  -2.902  -0.366  0.00  0.00    +0.020 C 
ATOM     25  C   UNL     1       3.865  -2.418  -1.155  0.00  0.00    +0.099 C 
ENDBRANCH  19  21
ENDBRANCH   2  19
TORSDOF 3
