REMARK  Name = 446129
REMARK  7 active torsions:
REMARK  status: ('A' for Active; 'I' for Inactive)
REMARK    1  A    between atoms: C_1  and  O_2
REMARK    2  A    between atoms: C_1  and  C_4
REMARK    3  A    between atoms: C_1  and  C_18
REMARK    4  A    between atoms: C_4  and  N_5
REMARK    5  A    between atoms: C_18  and  O_19
REMARK    6  A    between atoms: O_19  and  C_23
REMARK    7  A    between atoms: C_20  and  C_26
REMARK                            x       y       z     vdW  Elec       q    Type
REMARK                         _______ _______ _______ _____ _____    ______ ____
ROOT
ATOM      1  C   UNL     1      -0.879   3.812   0.721  0.00  0.00    +0.133 C 
ENDROOT
BRANCH   1   2
ATOM      2  O   UNL     1      -0.541   5.175   0.452  0.00  0.00    -0.383 OA
ATOM      3  H   UNL     1      -1.341   5.664   0.204  0.00  0.00    +0.210 HD
ENDBRANCH   1   2
BRANCH   1   4
ATOM      4  C   UNL     1      -1.566   3.237  -0.520  0.00  0.00    -0.043 C 
BRANCH   4   5
ATOM      5  N   UNL     1      -2.006   1.857  -0.316  0.00  0.00    +0.391 N 
ATOM      6  N   UNL     1      -3.895  -0.277  -0.127  0.00  0.00    -0.298 N 
ATOM      7  C   UNL     1      -2.670   1.344  -1.520  0.00  0.00    -0.055 C 
ATOM      8  C   UNL     1      -2.917   1.772   0.832  0.00  0.00    -0.055 C 
ATOM      9  C   UNL     1      -3.085  -0.118  -1.339  0.00  0.00    +0.069 C 
ATOM     10  C   UNL     1      -3.340   0.324   1.092  0.00  0.00    +0.069 C 
ATOM     11  H   UNL     1      -1.182   1.286  -0.125  0.00  0.00    -0.079 HD
ATOM     12  N   UNL     1      -4.546  -2.257   1.057  0.00  0.00    -0.229 NA
ATOM     13  C   UNL     1      -4.727  -1.394   0.011  0.00  0.00    +0.132 C 
ATOM     14  C   UNL     1      -5.735  -1.598  -0.942  0.00  0.00    +0.034 C 
ATOM     15  C   UNL     1      -6.569  -2.704  -0.819  0.00  0.00    +0.004 C 
ATOM     16  C   UNL     1      -5.376  -3.321   1.144  0.00  0.00    +0.100 C 
ATOM     17  C   UNL     1      -6.393  -3.586   0.241  0.00  0.00    +0.021 C 
ENDBRANCH   4   5
ENDBRANCH   1   4
BRANCH   1  18
ATOM     18  C   UNL     1       0.393   3.060   1.110  0.00  0.00    +0.232 C 
BRANCH  18  19
ATOM     19  O   UNL     1       1.304   3.100   0.016  0.00  0.00    -0.473 OA
BRANCH  19  23
ATOM     20  C   UNL     1       3.922  -0.100  -0.349  0.00  0.00    -0.022 C 
ATOM     21  C   UNL     1       3.468   0.289   0.911  0.00  0.00    -0.001 C 
ATOM     22  C   UNL     1       3.497   0.587  -1.486  0.00  0.00    -0.001 C 
ATOM     23  C   UNL     1       2.168   2.045  -0.104  0.00  0.00    +0.139 C 
ATOM     24  C   UNL     1       2.588   1.364   1.034  0.00  0.00    +0.037 C 
ATOM     25  C   UNL     1       2.618   1.663  -1.363  0.00  0.00    +0.037 C 
BRANCH  20  26
ATOM     26  C   UNL     1       4.880  -1.269  -0.482  0.00  0.00    +0.022 C 
ATOM     27  C   UNL     1       6.217  -1.000   0.231  0.00  0.00    +0.004 C 
ATOM     28  C   UNL     1       4.250  -2.584   0.008  0.00  0.00    +0.004 C 
ATOM     29  C   UNL     1       7.177  -2.179   0.083  0.00  0.00    +0.000 C 
ATOM     30  C   UNL     1       5.218  -3.757  -0.139  0.00  0.00    +0.000 C 
ATOM     31  C   UNL     1       6.545  -3.483   0.562  0.00  0.00    +0.000 C 
ENDBRANCH  20  26
ENDBRANCH  19  23
ENDBRANCH  18  19
ENDBRANCH   1  18
TORSDOF 7
