REMARK  Name = 5810
REMARK  3 active torsions:
REMARK  status: ('A' for Active; 'I' for Inactive)
REMARK    1  A    between atoms: CA_3  and  C_11
REMARK    2  A    between atoms: CG_4  and  OD_8
REMARK    3  A    between atoms: C_11  and  O_12
REMARK                            x       y       z     vdW  Elec       q    Type
REMARK                         _______ _______ _______ _____ _____    ______ ____
ROOT
ATOM      1  N   HYP A   1      -0.305   1.074   0.742  0.00  0.00    +0.394 N 
ATOM      2  CB  HYP A   1      -0.543  -1.156  -0.131  0.00  0.00    +0.017 C 
ATOM      3  CA  HYP A   1       0.363  -0.231   0.678  0.00  0.00    +0.042 C 
ATOM      4  CG  HYP A   1      -1.686  -0.270  -0.608  0.00  0.00    +0.088 C 
ATOM      5  CD  HYP A   1      -1.162   1.144  -0.451  0.00  0.00    -0.051 C 
ATOM      6  H1  HYP A   1       0.384   1.826   0.730  0.00  0.00    -0.084 HD
ATOM      7  H2  HYP A   1      -0.847   1.177   1.600  0.00  0.00    -0.084 HD
ENDROOT
BRANCH   4   8
ATOM      8  OD  HYP A   1      -2.825  -0.439   0.230  0.00  0.00    -0.387 OA
ATOM      9  HD  HYP A   1      -3.165  -1.342   0.134  0.00  0.00    +0.210 HD
ENDBRANCH   4   8
BRANCH   3  11
ATOM     10  OXT HYP A   1       2.094   1.064  -0.399  0.00  0.00    -0.253 OA
ATOM     11  C   HYP A   1       1.686  -0.011   0.013  0.00  0.00    +0.294 C 
BRANCH  11  12
ATOM     12  O   HYP A   1       2.377  -1.174  -0.074  0.00  0.00    -0.482 OA
ATOM     13  H   HYP A   1       2.006  -1.966   0.262  0.00  0.00    +0.295 HD
ENDBRANCH  11  12
ENDBRANCH   3  11
TORSDOF 3
