REMARK  Name = 25190761
REMARK  7 active torsions:
REMARK  status: ('A' for Active; 'I' for Inactive)
REMARK    1  A    between atoms: N_2  and  CA_17
REMARK    2  A    between atoms: N_6  and  C_23
REMARK    3  A    between atoms: C_7  and  C_14
REMARK    4  A    between atoms: CA_17  and  C_18
REMARK    5  A    between atoms: CA_17  and  C_20
REMARK    6  A    between atoms: C_20  and  O_21
REMARK    7  A    between atoms: C_23  and  C_24
REMARK                            x       y       z     vdW  Elec       q    Type
REMARK                         _______ _______ _______ _____ _____    ______ ____
ROOT
ATOM      1  N   UNL     1      -0.037  -1.324  -0.037  0.00  0.00    -0.124 N 
ATOM      2  N   UNL     1      -2.230   2.025  -0.085  0.00  0.00    -0.258 N 
ATOM      3  N   UNL     1      -2.151  -0.294  -0.087  0.00  0.00    -0.315 NA
ATOM      4  N   UNL     1       0.597  -2.510  -0.024  0.00  0.00    -0.171 NA
ATOM      5  N   UNL     1      -0.121   0.964  -0.036  0.00  0.00    -0.295 NA
ATOM      6  N   UNL     1       1.990  -0.114   0.014  0.00  0.00    -0.290 N 
ATOM      7  C   UNL     1      -1.675  -2.765  -0.081  0.00  0.00    +0.113 C 
ATOM      8  C   UNL     1      -1.398  -1.417  -0.071  0.00  0.00    +0.205 C 
ATOM      9  C   UNL     1      -1.510   0.854  -0.070  0.00  0.00    +0.203 C 
ATOM     10  C   UNL     1       0.622  -0.105  -0.019  0.00  0.00    +0.276 C 
ATOM     11  C   UNL     1      -0.411  -3.388  -0.051  0.00  0.00    +0.100 C 
ATOM     12  H   UNL     1      -1.745   2.882  -0.072  0.00  0.00    +0.160 HD
ATOM     13  H   UNL     1       2.459  -0.979   0.024  0.00  0.00    +0.151 HD
ENDROOT
BRANCH   7  14
ATOM     14  C   UNL     1      -2.995  -3.414  -0.114  0.00  0.00    +0.014 C 
ATOM     15  C   UNL     1      -3.802  -3.087  -1.394  0.00  0.00    +0.001 C 
ATOM     16  C   UNL     1      -3.864  -3.091   1.126  0.00  0.00    +0.001 C 
ENDBRANCH   7  14
BRANCH   2  17
ATOM     17  CA  UNL     1      -3.657   2.039  -0.119  0.00  0.00    +0.109 C 
BRANCH  17  18
ATOM     18  C   UNL     1      -4.152   3.400  -0.623  0.00  0.00    +0.023 C 
ATOM     19  C   UNL     1      -3.631   3.737  -2.014  0.00  0.00    +0.002 C 
ENDBRANCH  17  18
BRANCH  17  20
ATOM     20  C   UNL     1      -4.185   1.754   1.287  0.00  0.00    +0.157 C 
BRANCH  20  21
ATOM     21  O   UNL     1      -3.728   2.766   2.177  0.00  0.00    -0.380 OA
ATOM     22  H   UNL     1      -4.062   2.587   3.070  0.00  0.00    +0.211 HD
ENDBRANCH  20  21
ENDBRANCH  17  20
ENDBRANCH   2  17
BRANCH   6  23
ATOM     23  C   UNL     1       2.763   1.091   0.034  0.00  0.00    +0.117 C 
BRANCH  23  24
ATOM     24  C   UNL     1       4.232   0.774   0.033  0.00  0.00    -0.003 C 
ATOM     25  C   UNL     1       4.911   0.608   1.240  0.00  0.00    -0.003 C 
ATOM     26  C   UNL     1       4.917   0.646  -1.176  0.00  0.00    -0.003 C 
ATOM     27  C   UNL     1       6.275   0.313   1.239  0.00  0.00    -0.000 C 
ATOM     28  C   UNL     1       6.281   0.352  -1.177  0.00  0.00    -0.000 C 
ATOM     29  C   UNL     1       6.959   0.185   0.030  0.00  0.00    -0.000 C 
ENDBRANCH  23  24
ENDBRANCH   6  23
TORSDOF 7
