REMARK  Name = 7297549
REMARK  3 active torsions:
REMARK  status: ('A' for Active; 'I' for Inactive)
REMARK    1  A    between atoms: N_3  and  S_16
REMARK    2  A    between atoms: C_7  and  C_11
REMARK    3  A    between atoms: S_16  and  C_19
REMARK                            x       y       z     vdW  Elec       q    Type
REMARK                         _______ _______ _______ _____ _____    ______ ____
ROOT
ATOM      1  S   UNL     1       1.477  -0.272  -0.859  0.00  0.00    -0.025 S 
ATOM      2  O   UNL     1       1.049  -2.024   2.500  0.00  0.00    -0.209 OA
ATOM      3  N   UNL     1      -1.057  -0.865  -1.523  0.00  0.00    -0.183 N 
ATOM      4  N   UNL     1      -0.223  -1.582   0.610  0.00  0.00    -0.309 NA
ATOM      5  C   UNL     1      -0.069  -0.985  -0.525  0.00  0.00    +0.243 C 
ATOM      6  C   UNL     1       2.019  -0.810   0.680  0.00  0.00    +0.131 C 
ATOM      7  C   UNL     1       3.234  -0.618   1.194  0.00  0.00    +0.057 C 
ATOM      8  C   UNL     1       0.925  -1.538   1.384  0.00  0.00    +0.213 C 
ATOM      9  H   UNL     1      -0.809  -0.415  -2.363  0.00  0.00    +0.177 HD
ENDROOT
BRANCH   7  11
ATOM     10  O   UNL     1       4.052   1.099  -0.314  0.00  0.00    -0.458 OA
ATOM     11  C   UNL     1       4.300   0.080   0.534  0.00  0.00    +0.146 C 
ATOM     12  C   UNL     1       5.267   1.521  -0.751  0.00  0.00    +0.123 C 
ATOM     13  C   UNL     1       5.634  -0.169   0.658  0.00  0.00    +0.040 C 
ATOM     14  C   UNL     1       6.272   0.773  -0.183  0.00  0.00    +0.036 C 
ATOM     15  C   UNL     1       5.262   2.642  -1.701  0.00  0.00    +0.072 C 
ENDBRANCH   7  11
BRANCH   3  16
ATOM     16  S   UNL     1      -2.660  -1.449  -1.373  0.00  0.00    +0.076 S 
ATOM     17  O   UNL     1      -2.650  -2.642  -0.536  0.00  0.00    -0.150 OA
ATOM     18  O   UNL     1      -3.261  -1.509  -2.699  0.00  0.00    -0.150 OA
BRANCH  16  19
ATOM     19  C   UNL     1      -3.428  -0.151  -0.495  0.00  0.00    +0.125 C 
ATOM     20  C   UNL     1      -4.027   0.902  -1.187  0.00  0.00    +0.020 C 
ATOM     21  C   UNL     1      -3.444  -0.166   0.900  0.00  0.00    +0.020 C 
ATOM     22  C   UNL     1      -4.658   1.923   0.909  0.00  0.00    -0.022 C 
ATOM     23  C   UNL     1      -4.642   1.938  -0.485  0.00  0.00    -0.003 C 
ATOM     24  C   UNL     1      -4.059   0.870   1.602  0.00  0.00    -0.003 C 
ATOM     25  C   UNL     1      -5.315   3.031   1.660  0.00  0.00    +0.031 C 
ENDBRANCH  16  19
ENDBRANCH   3  16
TORSDOF 3
