REMARK  Name = 76098
REMARK  0 active torsions:
REMARK  status: ('A' for Active; 'I' for Inactive)
REMARK                            x       y       z     vdW  Elec       q    Type
REMARK                         _______ _______ _______ _____ _____    ______ ____
ROOT
ATOM      1  O   UNL     1       4.000   0.349   0.112  0.00  0.00    -0.350 OA
ATOM      2  N   UNL     1       1.245  -0.197   0.011  0.00  0.00    -0.290 N 
ATOM      3  N   UNL     1      -1.163   1.718  -0.249  0.00  0.00    -0.270 NA
ATOM      4  N   UNL     1      -0.484  -1.865   0.225  0.00  0.00    -0.232 NA
ATOM      5  N   UNL     1      -3.294   1.069  -0.170  0.00  0.00    -0.307 N 
ATOM      6  N   UNL     1      -2.856  -1.302   0.144  0.00  0.00    -0.232 NA
ATOM      7  C   UNL     1       2.214  -1.170  -0.511  0.00  0.00    +0.124 C 
ATOM      8  C   UNL     1       1.778   0.747   1.000  0.00  0.00    +0.124 C 
ATOM      9  C   UNL     1       3.482  -0.447  -0.954  0.00  0.00    +0.164 C 
ATOM     10  C   UNL     1       3.069   1.367   0.477  0.00  0.00    +0.164 C 
ATOM     11  C   UNL     1      -0.103  -0.567   0.055  0.00  0.00    +0.127 C 
ATOM     12  C   UNL     1      -1.132   0.364  -0.071  0.00  0.00    +0.164 C 
ATOM     13  C   UNL     1      -2.466  -0.015  -0.025  0.00  0.00    +0.125 C 
ATOM     14  C   UNL     1      -2.479   2.094  -0.302  0.00  0.00    +0.163 C 
ATOM     15  C   UNL     1      -1.809  -2.146   0.258  0.00  0.00    +0.252 C 
ATOM     16  H   UNL     1      -0.383   2.314  -0.325  0.00  0.00    +0.126 HD
ATOM     17  H   UNL     1      -4.278   1.078  -0.174  0.00  0.00    +0.149 HD
ENDROOT
TORSDOF 0
