REMARK  Name = 11840979
REMARK  11 active torsions:
REMARK  status: ('A' for Active; 'I' for Inactive)
REMARK    1  A    between atoms: C_1  and  C_2
REMARK    2  A    between atoms: C_1  and  C_17
REMARK    3  A    between atoms: C_3  and  O_11
REMARK    4  A    between atoms: C_4  and  O_13
REMARK    5  A    between atoms: C_5  and  N_8
REMARK    6  A    between atoms: C_6  and  O_15
REMARK    7  A    between atoms: C_17  and  O_18
REMARK    8  A    between atoms: O_18  and  C_20
REMARK    9  A    between atoms: C_20  and  C_22
REMARK   10  A    between atoms: C_23  and  O_28
REMARK   11  A    between atoms: C_27  and  O_30
REMARK                            x       y       z     vdW  Elec       q    Type
REMARK                         _______ _______ _______ _____ _____    ______ ____
ROOT
ATOM      1  C   UNL     1      -0.904   0.183   0.459  0.00  0.00    +0.080 C 
ENDROOT
BRANCH   1   2
ATOM      2  C   UNL     1      -2.390  -0.019   0.287  0.00  0.00    +0.054 C 
ATOM      3  C   UNL     1      -2.908  -1.306   0.272  0.00  0.00    +0.151 C 
ATOM      4  C   UNL     1      -3.217   1.086   0.146  0.00  0.00    +0.171 C 
ATOM      5  C   UNL     1      -4.281  -1.492   0.113  0.00  0.00    +0.079 C 
ATOM      6  C   UNL     1      -4.590   0.900  -0.013  0.00  0.00    +0.173 C 
ATOM      7  C   UNL     1      -5.122  -0.389  -0.029  0.00  0.00    +0.057 C 
BRANCH   5   8
ATOM      8  N   UNL     1      -4.835  -2.791   0.095  0.00  0.00    -0.355 N 
ATOM      9  H   UNL     1      -4.250  -3.577   0.194  0.00  0.00    +0.142 HD
ATOM     10  H   UNL     1      -5.805  -2.911  -0.018  0.00  0.00    +0.142 HD
ENDBRANCH   5   8
BRANCH   3  11
ATOM     11  O   UNL     1      -2.083  -2.385   0.411  0.00  0.00    -0.470 OA
ATOM     12  C   UNL     1      -1.845  -2.849   1.737  0.00  0.00    +0.253 C 
ENDBRANCH   3  11
BRANCH   4  13
ATOM     13  O   UNL     1      -2.703   2.349   0.161  0.00  0.00    -0.469 OA
ATOM     14  C   UNL     1      -2.910   3.146  -1.002  0.00  0.00    +0.253 C 
ENDBRANCH   4  13
BRANCH   6  15
ATOM     15  O   UNL     1      -5.423   1.970  -0.152  0.00  0.00    -0.468 OA
ATOM     16  C   UNL     1      -6.813   1.692  -0.309  0.00  0.00    +0.253 C 
ENDBRANCH   6  15
ENDBRANCH   1   2
BRANCH   1  17
ATOM     17  C   UNL     1      -0.164   0.208  -0.873  0.00  0.00    +0.214 C 
BRANCH  17  18
ATOM     18  O   UNL     1       1.231   0.442  -0.648  0.00  0.00    -0.445 OA
BRANCH  18  20
ATOM     19  O   UNL     1       1.601  -1.825  -0.492  0.00  0.00    -0.245 OA
ATOM     20  C   UNL     1       2.019  -0.661  -0.470  0.00  0.00    +0.344 C 
BRANCH  20  22
ATOM     21 CL   UNL     1       5.360   2.807   1.351  0.00  0.00    -0.079 Cl
ATOM     22  C   UNL     1       3.411  -0.292  -0.249  0.00  0.00    +0.110 C 
ATOM     23  C   UNL     1       4.447  -1.137  -0.647  0.00  0.00    +0.143 C 
ATOM     24  C   UNL     1       3.702   0.925   0.367  0.00  0.00    +0.024 C 
ATOM     25  C   UNL     1       5.773  -0.766  -0.428  0.00  0.00    +0.074 C 
ATOM     26  C   UNL     1       5.028   1.296   0.586  0.00  0.00    +0.092 C 
ATOM     27  C   UNL     1       6.064   0.451   0.188  0.00  0.00    +0.147 C 
BRANCH  23  28
ATOM     28  O   UNL     1       4.183  -2.330  -1.251  0.00  0.00    -0.505 OA
ATOM     29  H   UNL     1       3.296  -2.592  -1.404  0.00  0.00    +0.292 HD
ENDBRANCH  23  28
BRANCH  27  30
ATOM     30  O   UNL     1       7.369   0.789   0.390  0.00  0.00    -0.505 OA
ATOM     31  H   UNL     1       8.051   0.208   0.115  0.00  0.00    +0.292 HD
ENDBRANCH  27  30
ENDBRANCH  20  22
ENDBRANCH  18  20
ENDBRANCH  17  18
ENDBRANCH   1  17
TORSDOF 11
