REMARK  Name = 25263414
REMARK  3 active torsions:
REMARK  status: ('A' for Active; 'I' for Inactive)
REMARK    1  A    between atoms: N_1  and  C_7
REMARK    2  A    between atoms: N_1  and  C_13
REMARK    3  A    between atoms: C_16  and  C_22
REMARK                            x       y       z     vdW  Elec       q    Type
REMARK                         _______ _______ _______ _____ _____    ______ ____
ROOT
ATOM      1  N   UNL     1      -0.624  -0.958   0.547  0.00  0.00    -0.299 N 
ATOM      2  H   UNL     1      -0.830  -1.865   0.869  0.00  0.00    +0.153 HD
ENDROOT
BRANCH   1   7
ATOM      3  N   UNL     1      -2.911  -0.734  -0.016  0.00  0.00    -0.106 N 
ATOM      4  N   UNL     1      -4.065   1.373  -0.115  0.00  0.00    -0.340 NA
ATOM      5  N   UNL     1      -3.192  -2.049  -0.211  0.00  0.00    -0.139 NA
ATOM      6  N   UNL     1      -5.056  -0.792  -0.570  0.00  0.00    -0.145 NA
ATOM      7  C   UNL     1      -1.697  -0.138   0.349  0.00  0.00    +0.138 C 
ATOM      8  C   UNL     1      -1.660   1.198   0.483  0.00  0.00    +0.061 C 
ATOM      9  C   UNL     1      -4.069   0.017  -0.242  0.00  0.00    +0.174 C 
ATOM     10  C   UNL     1      -2.938   1.927   0.225  0.00  0.00    +0.125 C 
ATOM     11  C   UNL     1      -2.910   3.428   0.371  0.00  0.00    +0.068 C 
ATOM     12  C   UNL     1      -4.480  -2.021  -0.536  0.00  0.00    +0.230 C 
ENDBRANCH   1   7
BRANCH   1  13
ATOM     13  C   UNL     1       0.733  -0.674   0.351  0.00  0.00    +0.049 C 
ATOM     14  C   UNL     1       1.697  -1.308   1.134  0.00  0.00    +0.015 C 
ATOM     15  C   UNL     1       1.120   0.241  -0.628  0.00  0.00    +0.015 C 
ATOM     16  C   UNL     1       3.437  -0.110  -0.040  0.00  0.00    +0.072 C 
ATOM     17  C   UNL     1       3.049  -1.026   0.939  0.00  0.00    +0.005 C 
ATOM     18  C   UNL     1       2.471   0.523  -0.823  0.00  0.00    +0.005 C 
BRANCH  16  22
ATOM     19  F   UNL     1       5.712  -0.500   0.587  0.00  0.00    -0.166 F 
ATOM     20  F   UNL     1       5.324  -0.098  -1.508  0.00  0.00    -0.166 F 
ATOM     21  F   UNL     1       5.178   1.509  -0.050  0.00  0.00    -0.166 F 
ATOM     22  C   UNL     1       4.882   0.191  -0.249  0.00  0.00    +0.419 C 
ENDBRANCH  16  22
ENDBRANCH   1  13
TORSDOF 3
