REMARK  Name = 657061
REMARK  8 active torsions:
REMARK  status: ('A' for Active; 'I' for Inactive)
REMARK    1  A    between atoms: C_6  and  O_12
REMARK    2  A    between atoms: C_6  and  C_27
REMARK    3  A    between atoms: O_12  and  C_13
REMARK    4  A    between atoms: C_18  and  O_19
REMARK    5  A    between atoms: O_19  and  C_21
REMARK    6  A    between atoms: C_27  and  C_28
REMARK    7  A    between atoms: C_28  and  O_29
REMARK    8  A    between atoms: O_29  and  C_30
REMARK                            x       y       z     vdW  Elec       q    Type
REMARK                         _______ _______ _______ _____ _____    ______ ____
ROOT
ATOM      1  O   UNL     1       0.854   0.051  -2.071  0.00  0.00    -0.270 OA
ATOM      2  O   UNL     1       2.598   0.458   2.238  0.00  0.00    -0.270 OA
ATOM      3  O   UNL     1       1.250   4.181  -0.093  0.00  0.00    -0.252 OA
ATOM      4  N   UNL     1       1.151   2.131  -1.132  0.00  0.00    -0.236 N 
ATOM      5  N   UNL     1       2.031   2.336   1.037  0.00  0.00    -0.236 N 
ATOM      6  C   UNL     1       2.294   0.218  -0.143  0.00  0.00    +0.270 C 
ATOM      7  C   UNL     1       1.358   0.762  -1.203  0.00  0.00    +0.274 C 
ATOM      8  C   UNL     1       2.316   0.985   1.163  0.00  0.00    +0.274 C 
ATOM      9  C   UNL     1       1.477   2.970  -0.071  0.00  0.00    +0.312 C 
ATOM     10  H   UNL     1       0.727   2.554  -1.914  0.00  0.00    +0.159 HD
ATOM     11  H   UNL     1       2.242   2.905   1.811  0.00  0.00    +0.159 HD
ENDROOT
BRANCH   6  12
ATOM     12  O   UNL     1       1.893  -1.107   0.159  0.00  0.00    -0.465 OA
BRANCH  12  13
ATOM     13  C   UNL     1       0.547  -1.373   0.126  0.00  0.00    +0.140 C 
ATOM     14  C   UNL     1       0.059  -2.333  -0.751  0.00  0.00    +0.040 C 
ATOM     15  C   UNL     1      -0.311  -0.678   0.969  0.00  0.00    +0.040 C 
ATOM     16  C   UNL     1      -1.310  -2.603  -0.785  0.00  0.00    +0.041 C 
ATOM     17  C   UNL     1      -1.679  -0.948   0.935  0.00  0.00    +0.041 C 
ATOM     18  C   UNL     1      -2.178  -1.910   0.058  0.00  0.00    +0.145 C 
BRANCH  18  19
ATOM     19  O   UNL     1      -3.513  -2.174   0.025  0.00  0.00    -0.453 OA
BRANCH  19  21
ATOM     20  F   UNL     1      -6.959   2.101   0.003  0.00  0.00    -0.204 F 
ATOM     21  C   UNL     1      -4.382  -1.095   0.019  0.00  0.00    +0.145 C 
ATOM     22  C   UNL     1      -4.122  -0.024  -0.817  0.00  0.00    +0.040 C 
ATOM     23  C   UNL     1      -5.488  -1.117   0.849  0.00  0.00    +0.040 C 
ATOM     24  C   UNL     1      -4.997   1.062  -0.822  0.00  0.00    +0.033 C 
ATOM     25  C   UNL     1      -6.364  -0.032   0.843  0.00  0.00    +0.033 C 
ATOM     26  C   UNL     1      -6.118   1.058   0.008  0.00  0.00    +0.140 C 
ENDBRANCH  19  21
ENDBRANCH  18  19
ENDBRANCH  12  13
ENDBRANCH   6  12
BRANCH   6  27
ATOM     27  C   UNL     1       3.718   0.205  -0.709  0.00  0.00    +0.090 C 
BRANCH  27  28
ATOM     28  C   UNL     1       4.677  -0.505   0.226  0.00  0.00    +0.147 C 
BRANCH  28  29
ATOM     29  O   UNL     1       5.975  -0.465  -0.349  0.00  0.00    -0.354 OA
BRANCH  29  30
ATOM     30  C   UNL     1       6.933  -1.115   0.477  0.00  0.00    +0.142 C 
ATOM     31  C   UNL     1       8.290  -1.038  -0.188  0.00  0.00    +0.035 C 
ENDBRANCH  29  30
ENDBRANCH  28  29
ENDBRANCH  27  28
ENDBRANCH   6  27
TORSDOF 8
