REMARK  Name = 92180
REMARK  2 active torsions:
REMARK  status: ('A' for Active; 'I' for Inactive)
REMARK    1  A    between atoms: N_1  and  C_14
REMARK    2  A    between atoms: C_14  and  C_15
REMARK                            x       y       z     vdW  Elec       q    Type
REMARK                         _______ _______ _______ _____ _____    ______ ____
ROOT
ATOM      1  N   UNL     1      -0.833  -0.095   0.441  0.00  0.00    -0.317 N 
ATOM      2  N   UNL     1       1.575   1.807   0.199  0.00  0.00    -0.270 NA
ATOM      3  N   UNL     1       0.819  -1.789   0.049  0.00  0.00    -0.232 NA
ATOM      4  N   UNL     1       3.663   1.129  -0.187  0.00  0.00    -0.307 N 
ATOM      5  N   UNL     1       3.174  -1.250  -0.288  0.00  0.00    -0.232 NA
ATOM      6  C   UNL     1       1.511   0.446   0.106  0.00  0.00    +0.164 C 
ATOM      7  C   UNL     1       0.479  -0.480   0.202  0.00  0.00    +0.124 C 
ATOM      8  C   UNL     1       2.820   0.048  -0.133  0.00  0.00    +0.125 C 
ATOM      9  C   UNL     1       2.883   2.169   0.016  0.00  0.00    +0.163 C 
ATOM     10  C   UNL     1       2.119  -2.087  -0.182  0.00  0.00    +0.252 C 
ATOM     11  H   UNL     1      -1.022   0.865   0.544  0.00  0.00    +0.148 HD
ATOM     12  H   UNL     1       0.819   2.416   0.365  0.00  0.00    +0.126 HD
ATOM     13  H   UNL     1       4.635   1.127  -0.343  0.00  0.00    +0.149 HD
ENDROOT
BRANCH   1  14
ATOM     14  C   UNL     1      -1.933  -1.020   0.548  0.00  0.00    +0.114 C 
BRANCH  14  15
ATOM     15  C   UNL     1      -3.192  -0.245   0.787  0.00  0.00    -0.013 C 
ATOM     16  C   UNL     1      -4.037   0.258  -0.133  0.00  0.00    -0.046 C 
ATOM     17  C   UNL     1      -5.289   1.030   0.174  0.00  0.00    +0.026 C 
ATOM     18  C   UNL     1      -3.760   0.081  -1.602  0.00  0.00    +0.026 C 
ENDBRANCH  14  15
ENDBRANCH   1  14
TORSDOF 2
