REMARK  Name = 5003498
REMARK  4 active torsions:
REMARK  status: ('A' for Active; 'I' for Inactive)
REMARK    1  A    between atoms: C_2  and  C_11
REMARK    2  A    between atoms: C_4  and  C_17
REMARK    3  A    between atoms: C_6  and  C_24
REMARK    4  A    between atoms: C_24  and  O_25
REMARK                            x       y       z     vdW  Elec       q    Type
REMARK                         _______ _______ _______ _____ _____    ______ ____
ROOT
ATOM      1  N   UNL     1      -1.100   1.105   0.001  0.00  0.00    -0.353 N 
ATOM      2  C   UNL     1       0.200  -0.694   0.000  0.00  0.00    +0.017 A 
ATOM      3  C   UNL     1      -1.156  -1.125   0.000  0.00  0.00    +0.017 A 
ATOM      4  C   UNL     1       0.202   0.682   0.001  0.00  0.00    +0.057 A 
ATOM      5  C   UNL     1      -1.952   0.023   0.000  0.00  0.00    +0.063 A 
ATOM      6  C   UNL     1      -3.350  -0.027   0.000  0.00  0.00    +0.091 C 
ATOM      7  C   UNL     1      -1.786  -2.386  -0.001  0.00  0.00    +0.001 C 
ATOM      8  C   UNL     1      -3.952  -1.288  -0.001  0.00  0.00    +0.008 C 
ATOM      9  C   UNL     1      -3.184  -2.451  -0.001  0.00  0.00    +0.000 C 
ATOM     10  H   UNL     1      -1.387   2.047   0.001  0.00  0.00    +0.166 HD
ENDROOT
BRANCH   2  11
ATOM     11  C   UNL     1       1.400  -1.485   0.000  0.00  0.00    +0.001 C 
ATOM     12  C   UNL     1       1.981  -1.868  -1.208  0.00  0.00    +0.000 C 
ATOM     13  C   UNL     1       1.980  -1.869   1.208  0.00  0.00    +0.000 C 
ATOM     14  C   UNL     1       3.145  -2.636  -1.208  0.00  0.00    +0.000 C 
ATOM     15  C   UNL     1       3.145  -2.637   1.208  0.00  0.00    +0.000 C 
ATOM     16  C   UNL     1       3.727  -3.021  -0.001  0.00  0.00    +0.000 C 
ENDBRANCH   2  11
BRANCH   4  17
ATOM     17  C   UNL     1       1.294   1.630   0.001  0.00  0.00    +0.016 C 
ATOM     18  C   UNL     1       1.817   2.085  -1.208  0.00  0.00    +0.001 C 
ATOM     19  C   UNL     1       1.820   2.084   1.208  0.00  0.00    +0.001 C 
ATOM     20  C   UNL     1       2.871   2.998  -1.209  0.00  0.00    +0.000 C 
ATOM     21  C   UNL     1       2.874   2.997   1.207  0.00  0.00    +0.000 C 
ATOM     22  C   UNL     1       3.400   3.454  -0.001  0.00  0.00    +0.000 C 
ENDBRANCH   4  17
BRANCH   6  24
ATOM     23  O   UNL     1      -3.723   2.336   0.001  0.00  0.00    -0.245 OA
ATOM     24  C   UNL     1      -4.159   1.179   0.001  0.00  0.00    +0.339 C 
BRANCH  24  25
ATOM     25  O   UNL     1      -5.495   0.913  -0.001  0.00  0.00    -0.477 OA
ATOM     26  H   UNL     1      -5.795   0.025  -0.001  0.00  0.00    +0.295 HD
ENDBRANCH  24  25
ENDBRANCH   6  24
TORSDOF 4
