REMARK  Name = 4858
REMARK  3 active torsions:
REMARK  status: ('A' for Active; 'I' for Inactive)
REMARK    1  A    between atoms: C_8  and  N_18
REMARK    2  A    between atoms: C_19  and  C_21
REMARK    3  A    between atoms: C_21  and  N_22
REMARK                            x       y       z     vdW  Elec       q    Type
REMARK                         _______ _______ _______ _____ _____    ______ ____
ROOT
ATOM      1  O   UNL     1       4.803   2.040   0.224  0.00  0.00    -0.267 OA
ATOM      2  N   UNL     1       2.518   2.073   0.075  0.00  0.00    -0.321 N 
ATOM      3  C   UNL     1       1.235   0.009  -0.075  0.00  0.00    +0.017 A 
ATOM      4  C   UNL     1       2.502  -0.749  -0.016  0.00  0.00    +0.006 A 
ATOM      5  C   UNL     1       1.282   1.413  -0.028  0.00  0.00    +0.059 A 
ATOM      6  C   UNL     1       3.724  -0.054   0.087  0.00  0.00    +0.056 A 
ATOM      7  C   UNL     1      -0.035  -0.586  -0.177  0.00  0.00    +0.016 C 
ATOM      8  C   UNL     1      -1.200   0.186  -0.229  0.00  0.00    +0.050 C 
ATOM      9  C   UNL     1       0.118   2.191  -0.080  0.00  0.00    +0.018 C 
ATOM     10  C   UNL     1       3.740   1.431   0.135  0.00  0.00    +0.258 A 
ATOM     11  C   UNL     1      -1.124   1.574  -0.180  0.00  0.00    +0.016 C 
ATOM     12  C   UNL     1       2.564  -2.155  -0.057  0.00  0.00    +0.000 C 
ATOM     13  C   UNL     1       4.949  -0.736   0.146  0.00  0.00    +0.005 C 
ATOM     14  C   UNL     1       3.785  -2.835   0.002  0.00  0.00    +0.000 C 
ATOM     15  C   UNL     1       4.976  -2.126   0.103  0.00  0.00    +0.000 C 
ATOM     16  H   UNL     1       2.513   3.057   0.105  0.00  0.00    +0.169 HD
ENDROOT
BRANCH   8  18
ATOM     17  O   UNL     1      -3.958   1.362  -0.369  0.00  0.00    -0.277 OA
ATOM     18  N   UNL     1      -2.445  -0.438  -0.331  0.00  0.00    -0.286 N 
ATOM     19  C   UNL     1      -3.715   0.160  -0.396  0.00  0.00    +0.205 C 
ATOM     20  H   UNL     1      -2.431  -1.422  -0.361  0.00  0.00    +0.155 HD
BRANCH  19  21
ATOM     21  C   UNL     1      -4.804  -0.894  -0.500  0.00  0.00    +0.010 C 
BRANCH  21  22
ATOM     22  N   UNL     1      -6.020  -0.398   0.129  0.00  0.00    +0.390 N 
ATOM     23  C   UNL     1      -5.785  -0.098   1.543  0.00  0.00    -0.100 C 
ATOM     24  C   UNL     1      -7.107  -1.370  -0.009  0.00  0.00    -0.100 C 
ATOM     25  H   UNL     1      -6.292   0.463  -0.345  0.00  0.00    -0.079 HD
ENDBRANCH  21  22
ENDBRANCH  19  21
ENDBRANCH   8  18
TORSDOF 3
