REMARK  Name = 1916699
REMARK  6 active torsions:
REMARK  status: ('A' for Active; 'I' for Inactive)
REMARK    1  A    between atoms: C_5  and  C_13
REMARK    2  A    between atoms: C_6  and  N_27
REMARK    3  A    between atoms: C_8  and  C_31
REMARK    4  A    between atoms: C_9  and  C_24
REMARK    5  A    between atoms: C_18  and  O_19
REMARK    6  A    between atoms: O_19  and  C_20
REMARK                            x       y       z     vdW  Elec       q    Type
REMARK                         _______ _______ _______ _____ _____    ______ ____
ROOT
ATOM      1  S   UNL     1       3.934   0.672  -0.093  0.00  0.00    -0.054 S 
ATOM      2  N   UNL     1       3.146  -1.870  -0.127  0.00  0.00    -0.384 NA
ATOM      3  N   UNL     1       2.449  -4.119  -0.155  0.00  0.00    -0.332 N 
ATOM      4  C   UNL     1       1.469  -0.092   0.001  0.00  0.00    +0.118 C 
ATOM      5  C   UNL     1       0.436  -1.051   0.022  0.00  0.00    +0.003 C 
ATOM      6  C   UNL     1       1.459   1.339   0.041  0.00  0.00    +0.040 C 
ATOM      7  C   UNL     1       2.771  -0.575  -0.074  0.00  0.00    +0.149 C 
ATOM      8  C   UNL     1       0.773  -2.400  -0.031  0.00  0.00    +0.109 C 
ATOM      9  C   UNL     1       2.726   1.879  -0.004  0.00  0.00    +0.094 C 
ATOM     10  C   UNL     1       2.112  -2.739  -0.103  0.00  0.00    +0.187 C 
ATOM     11  H   UNL     1       3.393  -4.394  -0.206  0.00  0.00    +0.145 HD
ATOM     12  H   UNL     1       1.738  -4.800  -0.140  0.00  0.00    +0.145 HD
ENDROOT
BRANCH   5  13
ATOM     13  C   UNL     1      -0.942  -0.607   0.098  0.00  0.00    -0.002 C 
ATOM     14  C   UNL     1      -1.547  -0.427   1.340  0.00  0.00    +0.003 C 
ATOM     15  C   UNL     1      -1.657  -0.361  -1.073  0.00  0.00    +0.003 C 
ATOM     16  C   UNL     1      -2.873  -0.001   1.412  0.00  0.00    +0.037 C 
ATOM     17  C   UNL     1      -2.983   0.066  -1.001  0.00  0.00    +0.037 C 
ATOM     18  C   UNL     1      -3.591   0.246   0.242  0.00  0.00    +0.139 C 
BRANCH  18  19
ATOM     19  O   UNL     1      -4.886   0.661   0.312  0.00  0.00    -0.475 OA
BRANCH  19  20
ATOM     20  C   UNL     1      -5.359   1.494  -0.745  0.00  0.00    +0.206 C 
ATOM     21  C   UNL     1      -6.440   2.407  -0.207  0.00  0.00    +0.051 C 
ENDBRANCH  19  20
ENDBRANCH  18  19
ENDBRANCH   5  13
BRANCH   9  24
ATOM     22  O   UNL     1       2.343   4.223   0.061  0.00  0.00    -0.270 OA
ATOM     23  N   UNL     1       4.503   3.532  -0.040  0.00  0.00    -0.325 N 
ATOM     24  C   UNL     1       3.131   3.249   0.017  0.00  0.00    +0.250 C 
ATOM     25  H   UNL     1       4.813   4.467  -0.028  0.00  0.00    +0.145 HD
ATOM     26  H   UNL     1       5.156   2.797  -0.091  0.00  0.00    +0.145 HD
ENDBRANCH   9  24
BRANCH   6  27
ATOM     27  N   UNL     1       0.343   2.108   0.113  0.00  0.00    -0.359 N 
ATOM     28  H   UNL     1      -0.545   1.685   0.143  0.00  0.00    +0.142 HD
ATOM     29  H   UNL     1       0.422   3.089   0.136  0.00  0.00    +0.142 HD
ENDBRANCH   6  27
BRANCH   8  31
ATOM     30  N   UNL     1      -1.069  -4.224   0.006  0.00  0.00    -0.191 NA
ATOM     31  C   UNL     1      -0.247  -3.410  -0.011  0.00  0.00    +0.104 C 
ENDBRANCH   8  31
TORSDOF 6
