REMARK  Name = 9896504
REMARK  6 active torsions:
REMARK  status: ('A' for Active; 'I' for Inactive)
REMARK    1  A    between atoms: N_4  and  C_22
REMARK    2  A    between atoms: C_11  and  C_13
REMARK    3  A    between atoms: C_13  and  O_14
REMARK    4  A    between atoms: O_14  and  C_15
REMARK    5  A    between atoms: C_15  and  C_16
REMARK    6  A    between atoms: C_22  and  C_23
REMARK                            x       y       z     vdW  Elec       q    Type
REMARK                         _______ _______ _______ _____ _____    ______ ____
ROOT
ATOM      1  S   UNL     1      -0.276   3.320   0.682  0.00  0.00    -0.064 S 
ATOM      2  O   UNL     1       1.076  -1.008  -1.213  0.00  0.00    -0.251 OA
ATOM      3  O   UNL     1       4.466   2.181  -0.683  0.00  0.00    -0.269 OA
ATOM      4  N   UNL     1       2.819   0.538  -0.965  0.00  0.00    -0.206 N 
ATOM      5  N   UNL     1       0.615   1.078  -0.336  0.00  0.00    -0.214 N 
ATOM      6  C   UNL     1       1.019   2.334   0.058  0.00  0.00    +0.094 C 
ATOM      7  C   UNL     1       1.466   0.109  -0.865  0.00  0.00    +0.321 C 
ATOM      8  C   UNL     1       3.298   1.806  -0.588  0.00  0.00    +0.258 C 
ATOM      9  C   UNL     1       2.285   2.740  -0.037  0.00  0.00    +0.080 C 
ATOM     10  C   UNL     1      -0.737   0.929  -0.130  0.00  0.00    +0.087 C 
ATOM     11  C   UNL     1      -1.339   1.999   0.390  0.00  0.00    +0.122 C 
ENDROOT
BRANCH  11  13
ATOM     12  O   UNL     1      -3.295   3.082   1.177  0.00  0.00    -0.244 OA
ATOM     13  C   UNL     1      -2.756   2.088   0.698  0.00  0.00    +0.349 C 
BRANCH  13  14
ATOM     14  O   UNL     1      -3.359   0.912   0.371  0.00  0.00    -0.440 OA
BRANCH  14  15
ATOM     15  C   UNL     1      -4.767   0.844   0.617  0.00  0.00    +0.235 C 
BRANCH  15  16
ATOM     16  C   UNL     1      -5.271  -0.508   0.204  0.00  0.00    +0.021 C 
ATOM     17  C   UNL     1      -5.717  -0.709  -1.097  0.00  0.00    -0.001 C 
ATOM     18  C   UNL     1      -5.288  -1.548   1.127  0.00  0.00    -0.001 C 
ATOM     19  C   UNL     1      -6.185  -1.966  -1.481  0.00  0.00    -0.000 C 
ATOM     20  C   UNL     1      -5.756  -2.805   0.743  0.00  0.00    -0.000 C 
ATOM     21  C   UNL     1      -6.204  -3.013  -0.561  0.00  0.00    -0.000 C 
ENDBRANCH  15  16
ENDBRANCH  14  15
ENDBRANCH  13  14
ENDBRANCH  11  13
BRANCH   4  22
ATOM     22  C   UNL     1       3.803  -0.394  -1.504  0.00  0.00    +0.129 C 
BRANCH  22  23
ATOM     23  C   UNL     1       4.434  -1.229  -0.428  0.00  0.00    -0.002 C 
ATOM     24  C   UNL     1       3.859  -2.444  -0.075  0.00  0.00    -0.003 C 
ATOM     25  C   UNL     1       5.588  -0.780   0.203  0.00  0.00    -0.003 C 
ATOM     26  C   UNL     1       4.445  -3.221   0.925  0.00  0.00    -0.000 C 
ATOM     27  C   UNL     1       6.175  -1.557   1.202  0.00  0.00    -0.000 C 
ATOM     28  C   UNL     1       5.603  -2.777   1.563  0.00  0.00    -0.000 C 
ENDBRANCH  22  23
ENDBRANCH   4  22
TORSDOF 6
