REMARK  Name = 54684141
REMARK  5 active torsions:
REMARK  status: ('A' for Active; 'I' for Inactive)
REMARK    1  A    between atoms: N_2  and  C_5
REMARK    2  A    between atoms: C_3  and  C_15
REMARK    3  A    between atoms: C_6  and  C_14
REMARK    4  A    between atoms: C_15  and  C_21
REMARK    5  A    between atoms: C_16  and  O_18
REMARK                            x       y       z     vdW  Elec       q    Type
REMARK                         _______ _______ _______ _____ _____    ______ ____
ROOT
ATOM      1  O   UNL     1       1.819  -1.279   1.188  0.00  0.00    -0.269 OA
ATOM      2  N   UNL     1       1.082   0.434  -0.234  0.00  0.00    -0.280 N 
ATOM      3  C   UNL     1       2.028  -0.339   0.428  0.00  0.00    +0.262 C 
ATOM      4  H   UNL     1       1.431   1.154  -0.807  0.00  0.00    +0.155 HD
ENDROOT
BRANCH   2   5
ATOM      5  C   UNL     1      -0.327   0.303  -0.178  0.00  0.00    +0.051 C 
ATOM      6  C   UNL     1      -3.103   0.047  -0.069  0.00  0.00    +0.072 C 
ATOM      7  C   UNL     1      -0.906  -0.679   0.626  0.00  0.00    +0.015 C 
ATOM      8  C   UNL     1      -1.136   1.157  -0.928  0.00  0.00    +0.015 C 
ATOM      9  C   UNL     1      -2.293  -0.807   0.681  0.00  0.00    +0.005 C 
ATOM     10  C   UNL     1      -2.524   1.029  -0.873  0.00  0.00    +0.005 C 
BRANCH   6  14
ATOM     11  F   UNL     1      -4.988  -1.095   0.822  0.00  0.00    -0.166 F 
ATOM     12  F   UNL     1      -5.223   1.032   0.440  0.00  0.00    -0.166 F 
ATOM     13  F   UNL     1      -5.160  -0.364  -1.218  0.00  0.00    -0.166 F 
ATOM     14  C   UNL     1      -4.587  -0.090  -0.009  0.00  0.00    +0.419 C 
ENDBRANCH   6  14
ENDBRANCH   2   5
BRANCH   3  15
ATOM     15  C   UNL     1       3.438   0.097   0.125  0.00  0.00    +0.151 C 
ATOM     16  C   UNL     1       4.287  -0.792  -0.431  0.00  0.00    +0.126 C 
ATOM     17  C   UNL     1       5.726  -0.522  -0.778  0.00  0.00    +0.072 C 
BRANCH  16  18
ATOM     18  O   UNL     1       3.865  -2.072  -0.758  0.00  0.00    -0.509 OA
ATOM     19  H   UNL     1       2.984  -2.334  -0.581  0.00  0.00    +0.292 HD
ENDBRANCH  16  18
BRANCH  15  21
ATOM     20  N   UNL     1       4.158   2.512   0.717  0.00  0.00    -0.191 NA
ATOM     21  C   UNL     1       3.841   1.428   0.449  0.00  0.00    +0.108 C 
ENDBRANCH  15  21
ENDBRANCH   3  15
TORSDOF 5
