REMARK  Name = 1360
REMARK  9 active torsions:
REMARK  status: ('A' for Active; 'I' for Inactive)
REMARK    1  A    between atoms: C_1  and  O_2
REMARK    2  A    between atoms: C_1  and  C_12
REMARK    3  A    between atoms: O_2  and  C_4
REMARK    4  A    between atoms: C_9  and  O_10
REMARK    5  A    between atoms: C_12  and  C_13
REMARK    6  A    between atoms: C_13  and  C_14
REMARK    7  A    between atoms: C_14  and  C_15
REMARK    8  A    between atoms: C_15  and  C_16
REMARK    9  A    between atoms: C_16  and  N_17
REMARK                            x       y       z     vdW  Elec       q    Type
REMARK                         _______ _______ _______ _____ _____    ______ ____
ROOT
ATOM      1  C   UNL     1      -1.138   0.049   0.876  0.00  0.00    +0.205 C 
ENDROOT
BRANCH   1   2
ATOM      2  O   UNL     1      -2.263   0.906   1.020  0.00  0.00    -0.475 OA
BRANCH   2   4
ATOM      3 CL   UNL     1      -3.502   2.612  -1.124  0.00  0.00    -0.079 Cl
ATOM      4  C   UNL     1      -3.456   0.449   0.526  0.00  0.00    +0.149 C 
ATOM      5  C   UNL     1      -4.134   1.146  -0.469  0.00  0.00    +0.095 C 
ATOM      6  C   UNL     1      -3.979  -0.732   1.042  0.00  0.00    +0.041 C 
ATOM      7  C   UNL     1      -5.347   0.656  -0.954  0.00  0.00    +0.051 C 
ATOM      8  C   UNL     1      -5.192  -1.222   0.558  0.00  0.00    +0.040 C 
ATOM      9  C   UNL     1      -5.876  -0.528  -0.440  0.00  0.00    +0.140 C 
BRANCH   9  10
ATOM     10  O   UNL     1      -7.060  -1.006  -0.912  0.00  0.00    -0.471 OA
ATOM     11  C   UNL     1      -7.543  -2.221  -0.342  0.00  0.00    +0.252 C 
ENDBRANCH   9  10
ENDBRANCH   2   4
ENDBRANCH   1   2
BRANCH   1  12
ATOM     12  C   UNL     1       0.120   0.900   0.779  0.00  0.00    +0.047 C 
BRANCH  12  13
ATOM     13  C   UNL     1       1.370   0.040   0.607  0.00  0.00    +0.004 C 
BRANCH  13  14
ATOM     14  C   UNL     1       2.625   0.904   0.468  0.00  0.00    +0.002 C 
BRANCH  14  15
ATOM     15  C   UNL     1       3.873   0.041   0.261  0.00  0.00    +0.022 C 
BRANCH  15  16
ATOM     16  C   UNL     1       5.143   0.865   0.038  0.00  0.00    +0.097 C 
BRANCH  16  17
ATOM     17  N   UNL     1       6.331   0.061  -0.219  0.00  0.00    -0.268 N 
ATOM     18  N   UNL     1       8.164  -1.103   0.176  0.00  0.00    -0.225 NA
ATOM     19  C   UNL     1       6.767  -0.344  -1.440  0.00  0.00    +0.087 C 
ATOM     20  C   UNL     1       7.189  -0.410   0.722  0.00  0.00    +0.168 C 
ATOM     21  C   UNL     1       7.907  -1.065  -1.172  0.00  0.00    +0.117 C 
ENDBRANCH  16  17
ENDBRANCH  15  16
ENDBRANCH  14  15
ENDBRANCH  13  14
ENDBRANCH  12  13
ENDBRANCH   1  12
TORSDOF 9
