REMARK  Name = 24832019
REMARK  3 active torsions:
REMARK  status: ('A' for Active; 'I' for Inactive)
REMARK    1  A    between atoms: C_3  and  C_11
REMARK    2  A    between atoms: C_10  and  O_20
REMARK    3  A    between atoms: C_12  and  N_17
REMARK                            x       y       z     vdW  Elec       q    Type
REMARK                         _______ _______ _______ _____ _____    ______ ____
ROOT
ATOM      1  S   UNL     1      -1.203  -1.631   0.006  0.00  0.00    -0.089 S 
ATOM      2  N   UNL     1      -1.142   0.877  -0.003  0.00  0.00    -0.295 N 
ATOM      3  C   UNL     1      -0.332  -0.159   0.000  0.00  0.00    +0.149 C 
ATOM      4  C   UNL     1      -2.483   0.567  -0.002  0.00  0.00    +0.055 C 
ATOM      5  C   UNL     1      -2.718  -0.802   0.003  0.00  0.00    +0.043 C 
ATOM      6  C   UNL     1      -0.652   2.239  -0.008  0.00  0.00    +0.113 C 
ATOM      7  C   UNL     1      -3.546   1.481  -0.005  0.00  0.00    +0.018 C 
ATOM      8  C   UNL     1      -4.024  -1.314   0.005  0.00  0.00    +0.044 C 
ATOM      9  C   UNL     1      -4.850   0.975  -0.003  0.00  0.00    +0.038 C 
ATOM     10  C   UNL     1      -5.084  -0.400   0.002  0.00  0.00    +0.134 C 
ENDROOT
BRANCH   3  11
ATOM     11  C   UNL     1       1.107  -0.139   0.000  0.00  0.00    +0.006 C 
ATOM     12  C   UNL     1       3.897  -0.102   0.001  0.00  0.00    +0.048 C 
ATOM     13  C   UNL     1       1.804  -0.125   1.208  0.00  0.00    -0.001 C 
ATOM     14  C   UNL     1       1.805  -0.135  -1.208  0.00  0.00    -0.001 C 
ATOM     15  C   UNL     1       3.199  -0.106   1.208  0.00  0.00    +0.014 C 
ATOM     16  C   UNL     1       3.200  -0.116  -1.208  0.00  0.00    +0.014 C 
BRANCH  12  17
ATOM     17  N   UNL     1       5.307  -0.084   0.001  0.00  0.00    -0.304 N 
ATOM     18  C   UNL     1       6.040  -0.070   1.250  0.00  0.00    +0.112 C 
ATOM     19  C   UNL     1       6.041  -0.093  -1.249  0.00  0.00    +0.112 C 
ENDBRANCH  12  17
ENDBRANCH   3  11
BRANCH  10  20
ATOM     20  O   UNL     1      -6.366  -0.864   0.003  0.00  0.00    -0.505 OA
ATOM     21  H   UNL     1      -6.531  -1.786   0.006  0.00  0.00    +0.292 HD
ENDBRANCH  10  20
TORSDOF 3
