REMARK  Name = 46937138
REMARK  10 active torsions:
REMARK  status: ('A' for Active; 'I' for Inactive)
REMARK    1  A    between atoms: C_1  and  C_3
REMARK    2  A    between atoms: C_1  and  C_16
REMARK    3  A    between atoms: C_6  and  N_11
REMARK    4  A    between atoms: C_8  and  O_12
REMARK    5  A    between atoms: N_15  and  C_18
REMARK    6  A    between atoms: C_18  and  C_19
REMARK    7  A    between atoms: C_19  and  C_20
REMARK    8  A    between atoms: C_20  and  C_21
REMARK    9  A    between atoms: C_21  and  C_22
REMARK   10  A    between atoms: C_22  and  C_25
REMARK                            x       y       z     vdW  Elec       q    Type
REMARK                         _______ _______ _______ _____ _____    ______ ____
ROOT
ATOM      1  C   UNL     1       1.226   2.100   1.304  0.00  0.00    +0.111 C 
ENDROOT
BRANCH   1   3
ATOM      2  I   UNL     1       0.693  -3.385   1.351  0.00  0.00    -0.039 I 
ATOM      3  C   UNL     1       1.821   0.778   0.897  0.00  0.00    -0.011 C 
ATOM      4  C   UNL     1       3.025   0.743   0.194  0.00  0.00    +0.023 C 
ATOM      5  C   UNL     1       1.167  -0.411   1.220  0.00  0.00    +0.005 C 
ATOM      6  C   UNL     1       3.576  -0.481  -0.185  0.00  0.00    +0.176 C 
ATOM      7  C   UNL     1       1.718  -1.635   0.840  0.00  0.00    +0.065 C 
ATOM      8  C   UNL     1       2.922  -1.670   0.138  0.00  0.00    +0.161 C 
BRANCH   6  11
ATOM      9  O   UNL     1       5.880  -0.544  -0.259  0.00  0.00    -0.126 OA
ATOM     10  O   UNL     1       4.776  -0.452  -2.155  0.00  0.00    -0.126 OA
ATOM     11  N   UNL     1       4.805  -0.493  -0.902  0.00  0.00    +0.061 N 
ENDBRANCH   6  11
BRANCH   8  12
ATOM     12  O   UNL     1       3.475  -2.860  -0.241  0.00  0.00    -0.504 OA
ATOM     13  H   UNL     1       4.284  -2.872  -0.713  0.00  0.00    +0.292 HD
ENDBRANCH   8  12
ENDBRANCH   1   3
BRANCH   1  16
ATOM     14  O   UNL     1       0.639   2.964  -0.881  0.00  0.00    -0.275 OA
ATOM     15  N   UNL     1      -0.995   2.865   0.766  0.00  0.00    -0.304 N 
ATOM     16  C   UNL     1       0.290   2.684   0.263  0.00  0.00    +0.227 C 
ATOM     17  H   UNL     1      -1.175   2.608   1.700  0.00  0.00    +0.149 HD
BRANCH  15  18
ATOM     18  C   UNL     1      -2.070   3.408  -0.017  0.00  0.00    +0.089 C 
BRANCH  18  19
ATOM     19  C   UNL     1      -2.853   2.330  -0.758  0.00  0.00    +0.021 C 
BRANCH  19  20
ATOM     20  C   UNL     1      -3.464   1.291   0.188  0.00  0.00    +0.002 C 
BRANCH  20  21
ATOM     21  C   UNL     1      -4.254   0.233  -0.588  0.00  0.00    +0.012 C 
BRANCH  21  22
ATOM     22  C   UNL     1      -4.895  -0.802   0.332  0.00  0.00    +0.114 C 
BRANCH  22  25
ATOM     23  O   UNL     1      -6.091  -2.826   0.448  0.00  0.00    -0.246 OA
ATOM     24  O   UNL     1      -5.738  -1.893  -1.606  0.00  0.00    -0.246 OA
ATOM     25  C   UNL     1      -5.652  -1.947  -0.348  0.00  0.00    +0.365 C 
ENDBRANCH  22  25
ENDBRANCH  21  22
ENDBRANCH  20  21
ENDBRANCH  19  20
ENDBRANCH  18  19
ENDBRANCH  15  18
ENDBRANCH   1  16
TORSDOF 10
