REMARK  Name = 25203955
REMARK  5 active torsions:
REMARK  status: ('A' for Active; 'I' for Inactive)
REMARK    1  A    between atoms: N_2  and  C_30
REMARK    2  A    between atoms: C_22  and  O_26
REMARK    3  A    between atoms: O_26  and  C_27
REMARK    4  A    between atoms: C_30  and  C_31
REMARK    5  A    between atoms: C_31  and  O_32
REMARK                            x       y       z     vdW  Elec       q    Type
REMARK                         _______ _______ _______ _____ _____    ______ ____
ROOT
ATOM      1  O   UNL     1      -1.513  -3.428   0.595  0.00  0.00    -0.222 OA
ATOM      2  N   UNL     1       2.863   1.294  -0.241  0.00  0.00    -0.325 N 
ATOM      3  N   UNL     1       0.727  -4.031   0.466  0.00  0.00    -0.198 NA
ATOM      4  C   UNL     1       0.429   0.573  -0.189  0.00  0.00    -0.005 A 
ATOM      5  C   UNL     1       1.837   0.380  -0.160  0.00  0.00    +0.056 A 
ATOM      6  C   UNL     1      -0.439  -0.566  -0.147  0.00  0.00    +0.008 A 
ATOM      7  C   UNL     1       2.433  -0.877  -0.027  0.00  0.00    +0.016 A 
ATOM      8  C   UNL     1      -0.188   1.954  -0.269  0.00  0.00    +0.033 C 
ATOM      9  C   UNL     1       0.166  -1.800   0.068  0.00  0.00    +0.081 A 
ATOM     10  C   UNL     1       1.549  -1.941   0.105  0.00  0.00    +0.015 A 
ATOM     11  C   UNL     1      -1.493   2.011   0.531  0.00  0.00    +0.031 C 
ATOM     12  C   UNL     1       3.850  -0.696  -0.036  0.00  0.00    +0.017 A 
ATOM     13  C   UNL     1      -1.895  -0.329  -0.309  0.00  0.00    -0.003 C 
ATOM     14  C   UNL     1       4.087   0.672  -0.174  0.00  0.00    +0.060 A 
ATOM     15  C   UNL     1      -2.430   0.930   0.052  0.00  0.00    -0.019 C 
ATOM     16  C   UNL     1      -0.346  -3.153   0.380  0.00  0.00    +0.150 C 
ATOM     17  C   UNL     1       1.812  -3.340   0.321  0.00  0.00    +0.165 C 
ATOM     18  C   UNL     1      -2.772  -1.256  -0.894  0.00  0.00    +0.003 C 
ATOM     19  C   UNL     1       4.963  -1.559   0.063  0.00  0.00    +0.001 C 
ATOM     20  C   UNL     1      -3.805   1.187  -0.050  0.00  0.00    +0.033 C 
ATOM     21  C   UNL     1       5.374   1.221  -0.221  0.00  0.00    +0.017 C 
ATOM     22  C   UNL     1      -4.659   0.222  -0.572  0.00  0.00    +0.138 C 
ATOM     23  C   UNL     1      -4.140  -0.991  -1.011  0.00  0.00    +0.037 C 
ATOM     24  C   UNL     1       6.256  -1.026   0.017  0.00  0.00    +0.000 C 
ATOM     25  C   UNL     1       6.457   0.344  -0.123  0.00  0.00    +0.001 C 
ENDROOT
BRANCH  22  26
ATOM     26  O   UNL     1      -5.991   0.474  -0.683  0.00  0.00    -0.479 OA
BRANCH  26  27
ATOM     27  C   UNL     1      -6.706   0.735   0.525  0.00  0.00    +0.166 C 
ATOM     28  C   UNL     1      -7.295   2.136   0.465  0.00  0.00    +0.047 C 
ATOM     29  C   UNL     1      -7.782  -0.325   0.709  0.00  0.00    +0.047 C 
ENDBRANCH  26  27
ENDBRANCH  22  26
BRANCH   2  30
ATOM     30  C   UNL     1       2.744   2.721  -0.472  0.00  0.00    +0.138 C 
BRANCH  30  31
ATOM     31  C   UNL     1       3.040   3.538   0.780  0.00  0.00    +0.162 C 
BRANCH  31  32
ATOM     32  O   UNL     1       2.868   4.922   0.503  0.00  0.00    -0.380 OA
ATOM     33  H   UNL     1       3.058   5.438   1.302  0.00  0.00    +0.211 HD
ENDBRANCH  31  32
ENDBRANCH  30  31
ENDBRANCH   2  30
TORSDOF 5
