REMARK  Name = 3002119
REMARK  10 active torsions:
REMARK  status: ('A' for Active; 'I' for Inactive)
REMARK    1  A    between atoms: C_1  and  S_18
REMARK    2  A    between atoms: C_1  and  C_26
REMARK    3  A    between atoms: C_2  and  N_5
REMARK    4  A    between atoms: N_5  and  C_7
REMARK    5  A    between atoms: C_7  and  C_11
REMARK    6  A    between atoms: S_18  and  S_19
REMARK    7  A    between atoms: S_19  and  C_20
REMARK    8  A    between atoms: C_20  and  C_22
REMARK    9  A    between atoms: C_26  and  C_27
REMARK   10  A    between atoms: C_27  and  O_28
REMARK                            x       y       z     vdW  Elec       q    Type
REMARK                         _______ _______ _______ _____ _____    ______ ____
ROOT
ATOM      1  C   UNL     1      -1.081   1.965  -0.104  0.00  0.00    +0.025 C 
ATOM      2  C   UNL     1      -1.968   1.345  -0.919  0.00  0.00    +0.035 C 
ATOM      3  C   UNL     1      -2.283   1.764  -2.329  0.00  0.00    +0.048 C 
ENDROOT
BRANCH   2   5
ATOM      4  O   UNL     1      -4.248  -0.557   1.053  0.00  0.00    -0.265 OA
ATOM      5  N   UNL     1      -2.692   0.255  -0.502  0.00  0.00    -0.250 N 
ATOM      6  C   UNL     1      -3.551   0.337   0.585  0.00  0.00    +0.307 C 
BRANCH   5   7
ATOM      7  C   UNL     1      -2.534  -0.994  -1.234  0.00  0.00    +0.130 C 
BRANCH   7  11
ATOM      8  N   UNL     1       0.826  -2.586  -0.477  0.00  0.00    -0.340 NA
ATOM      9  N   UNL     1      -0.858  -3.594   0.922  0.00  0.00    -0.186 NA
ATOM     10  N   UNL     1       0.236  -0.880  -2.015  0.00  0.00    -0.332 N 
ATOM     11  C   UNL     1      -1.465  -1.863  -0.637  0.00  0.00    +0.062 C 
ATOM     12  C   UNL     1      -0.138  -1.807  -1.012  0.00  0.00    +0.187 C 
ATOM     13  C   UNL     1      -1.769  -2.784   0.344  0.00  0.00    +0.111 C 
ATOM     14  C   UNL     1       0.402  -3.444   0.470  0.00  0.00    +0.066 C 
ATOM     15  C   UNL     1       1.439  -4.322   1.085  0.00  0.00    +0.129 C 
ATOM     16  H   UNL     1       1.176  -0.818  -2.303  0.00  0.00    +0.145 HD
ATOM     17  H   UNL     1      -0.443  -0.297  -2.425  0.00  0.00    +0.145 HD
ENDBRANCH   7  11
ENDBRANCH   5   7
ENDBRANCH   2   5
BRANCH   1  18
ATOM     18  S   UNL     1      -0.227   3.407  -0.646  0.00  0.00    -0.058 S 
BRANCH  18  19
ATOM     19  S   UNL     1       1.413   2.505  -1.482  0.00  0.00    -0.075 S 
BRANCH  19  20
ATOM     20  C   UNL     1       2.551   2.428  -0.078  0.00  0.00    +0.098 C 
BRANCH  20  22
ATOM     21  O   UNL     1       3.016   0.087  -0.468  0.00  0.00    -0.355 OA
ATOM     22  C   UNL     1       3.623   1.382  -0.317  0.00  0.00    +0.127 C 
ATOM     23  C   UNL     1       4.612   1.255   0.828  0.00  0.00    +0.033 C 
ATOM     24  C   UNL     1       5.086  -0.167   0.659  0.00  0.00    +0.035 C 
ATOM     25  C   UNL     1       3.814  -0.873   0.240  0.00  0.00    +0.142 C 
ENDBRANCH  20  22
ENDBRANCH  19  20
ENDBRANCH  18  19
ENDBRANCH   1  18
BRANCH   1  26
ATOM     26  C   UNL     1      -0.788   1.514   1.317  0.00  0.00    +0.066 C 
BRANCH  26  27
ATOM     27  C   UNL     1      -1.027   2.613   2.352  0.00  0.00    +0.142 C 
BRANCH  27  28
ATOM     28  O   UNL     1      -2.390   3.014   2.364  0.00  0.00    -0.382 OA
ATOM     29  H   UNL     1      -2.517   3.710   3.027  0.00  0.00    +0.210 HD
ENDBRANCH  27  28
ENDBRANCH  26  27
ENDBRANCH   1  26
TORSDOF 10
