REMARK  Name = 23640756
REMARK  13 active torsions:
REMARK  status: ('A' for Active; 'I' for Inactive)
REMARK    1  A    between atoms: N_2  and  C_17
REMARK    2  A    between atoms: C_3  and  C_5
REMARK    3  A    between atoms: C_5  and  C_6
REMARK    4  A    between atoms: C_6  and  C_7
REMARK    5  A    between atoms: C_7  and  C_8
REMARK    6  A    between atoms: C_8  and  C_9
REMARK    7  A    between atoms: C_9  and  C_10
REMARK    8  A    between atoms: C_10  and  C_13
REMARK    9  A    between atoms: N_12  and  O_15
REMARK   10  A    between atoms: C_17  and  C_19
REMARK   11  A    between atoms: C_17  and  C_22
REMARK   12  A    between atoms: C_19  and  O_20
REMARK   13  A    between atoms: C_22  and  C_24
REMARK                            x       y       z     vdW  Elec       q    Type
REMARK                         _______ _______ _______ _____ _____    ______ ____
ROOT
ATOM      1  O   UNL     1      -1.533   1.723  -1.355  0.00  0.00    -0.275 OA
ATOM      2  N   UNL     1      -2.798   1.033   0.466  0.00  0.00    -0.297 N 
ATOM      3  C   UNL     1      -1.850   1.820  -0.172  0.00  0.00    +0.223 C 
ATOM      4  H   UNL     1      -2.978   1.192   1.420  0.00  0.00    +0.150 HD
ENDROOT
BRANCH   3   5
ATOM      5  C   UNL     1      -1.254   2.854   0.769  0.00  0.00    +0.085 C 
BRANCH   5   6
ATOM      6  C   UNL     1       0.189   3.230   0.435  0.00  0.00    +0.010 C 
BRANCH   6   7
ATOM      7  C   UNL     1       1.131   2.022   0.487  0.00  0.00    +0.001 C 
BRANCH   7   8
ATOM      8  C   UNL     1       2.584   2.371   0.149  0.00  0.00    +0.001 C 
BRANCH   8   9
ATOM      9  C   UNL     1       3.520   1.162   0.178  0.00  0.00    +0.010 C 
BRANCH   9  10
ATOM     10  C   UNL     1       4.952   1.561  -0.175  0.00  0.00    +0.087 C 
BRANCH  10  13
ATOM     11  O   UNL     1       6.518  -0.005   0.801  0.00  0.00    -0.273 OA
ATOM     12  N   UNL     1       5.962  -0.208  -1.432  0.00  0.00    -0.197 N 
ATOM     13  C   UNL     1       5.899   0.376  -0.190  0.00  0.00    +0.244 C 
ATOM     14  H   UNL     1       5.445   0.135  -2.197  0.00  0.00    +0.182 HD
BRANCH  12  15
ATOM     15  O   UNL     1       6.806  -1.320  -1.545  0.00  0.00    -0.295 OA
ATOM     16  H   UNL     1       6.780  -1.655  -2.455  0.00  0.00    +0.241 HD
ENDBRANCH  12  15
ENDBRANCH  10  13
ENDBRANCH   9  10
ENDBRANCH   8   9
ENDBRANCH   7   8
ENDBRANCH   6   7
ENDBRANCH   5   6
ENDBRANCH   3   5
BRANCH   2  17
ATOM     17  C   UNL     1      -3.530  -0.010  -0.213  0.00  0.00    +0.176 C 
BRANCH  17  19
ATOM     18  O   UNL     1      -5.534   1.254   0.262  0.00  0.00    -0.248 OA
ATOM     19  C   UNL     1      -5.022   0.284  -0.289  0.00  0.00    +0.335 C 
BRANCH  19  20
ATOM     20  O   UNL     1      -5.695  -0.653  -1.014  0.00  0.00    -0.443 OA
ATOM     21  C   UNL     1      -7.109  -0.461  -1.118  0.00  0.00    +0.256 C 
ENDBRANCH  19  20
ENDBRANCH  17  19
BRANCH  17  22
ATOM     22  C   UNL     1      -3.246  -1.386   0.406  0.00  0.00    +0.057 C 
BRANCH  22  24
ATOM     23 BR   UNL     1       2.721  -2.947   0.594  0.00  0.00    -0.049 Br
ATOM     24  C   UNL     1      -1.784  -1.769   0.451  0.00  0.00    -0.020 C 
ATOM     25  C   UNL     1      -1.229  -2.451  -0.618  0.00  0.00    -0.004 C 
ATOM     26  C   UNL     1      -1.030  -1.428   1.561  0.00  0.00    -0.004 C 
ATOM     27  C   UNL     1       0.120  -2.804  -0.576  0.00  0.00    +0.006 C 
ATOM     28  C   UNL     1       0.319  -1.781   1.604  0.00  0.00    +0.006 C 
ATOM     29  C   UNL     1       0.894  -2.469   0.536  0.00  0.00    +0.035 C 
ENDBRANCH  22  24
ENDBRANCH  17  22
ENDBRANCH   2  17
TORSDOF 13
