REMARK  Name = 25271557
REMARK  5 active torsions:
REMARK  status: ('A' for Active; 'I' for Inactive)
REMARK    1  A    between atoms: C_6  and  O_13
REMARK    2  A    between atoms: O_13  and  C_14
REMARK    3  A    between atoms: C_14  and  C_15
REMARK    4  A    between atoms: C_15  and  O_16
REMARK    5  A    between atoms: O_16  and  C_17
REMARK                            x       y       z     vdW  Elec       q    Type
REMARK                         _______ _______ _______ _____ _____    ______ ____
ROOT
ATOM      1  N   UNL     1       2.578  -0.917   0.090  0.00  0.00    -0.230 NA
ATOM      2  N   UNL     1       3.288   1.368  -0.082  0.00  0.00    -0.230 NA
ATOM      3  N   UNL     1       4.900  -0.403  -0.225  0.00  0.00    -0.247 NA
ATOM      4  N   UNL     1       4.176  -2.627  -0.053  0.00  0.00    -0.282 N 
ATOM      5  N   UNL     1       5.564   1.840  -0.390  0.00  0.00    -0.282 N 
ATOM      6  C   UNL     1       2.362   0.408   0.071  0.00  0.00    +0.332 C 
ATOM      7  C   UNL     1       3.870  -1.249  -0.063  0.00  0.00    +0.220 C 
ATOM      8  C   UNL     1       4.534   0.889  -0.224  0.00  0.00    +0.220 C 
ATOM      9  H   UNL     1       3.458  -3.290   0.063  0.00  0.00    +0.156 HD
ATOM     10  H   UNL     1       5.108  -2.925  -0.162  0.00  0.00    +0.156 HD
ATOM     11  H   UNL     1       5.350   2.801  -0.397  0.00  0.00    +0.156 HD
ATOM     12  H   UNL     1       6.496   1.542  -0.499  0.00  0.00    +0.156 HD
ENDROOT
BRANCH   6  13
ATOM     13  O   UNL     1       1.065   0.822   0.222  0.00  0.00    -0.395 OA
BRANCH  13  14
ATOM     14  C   UNL     1       0.083  -0.194   0.384  0.00  0.00    +0.270 C 
BRANCH  14  15
ATOM     15  C   UNL     1      -1.277   0.455   0.559  0.00  0.00    +0.254 C 
BRANCH  15  16
ATOM     16  O   UNL     1      -2.265  -0.564   0.701  0.00  0.00    -0.471 OA
BRANCH  16  17
ATOM     17  C   UNL     1      -3.523  -0.271   0.273  0.00  0.00    +0.139 C 
ATOM     18  C   UNL     1      -3.987   1.044   0.318  0.00  0.00    +0.037 C 
ATOM     19  C   UNL     1      -4.349  -1.286  -0.210  0.00  0.00    +0.037 C 
ATOM     20  C   UNL     1      -5.277   1.343  -0.120  0.00  0.00    +0.003 C 
ATOM     21  C   UNL     1      -5.639  -0.986  -0.648  0.00  0.00    +0.003 C 
ATOM     22  C   UNL     1      -6.103   0.329  -0.604  0.00  0.00    +0.000 C 
ENDBRANCH  16  17
ENDBRANCH  15  16
ENDBRANCH  14  15
ENDBRANCH  13  14
ENDBRANCH   6  13
TORSDOF 5
