REMARK  Name = 2766552
REMARK  3 active torsions:
REMARK  status: ('A' for Active; 'I' for Inactive)
REMARK    1  A    between atoms: N_1  and  C_16
REMARK    2  A    between atoms: C_5  and  C_10
REMARK    3  A    between atoms: C_16  and  C_19
REMARK                            x       y       z     vdW  Elec       q    Type
REMARK                         _______ _______ _______ _____ _____    ______ ____
ROOT
ATOM      1  N   UNL     1      -0.757  -1.533   0.000  0.00  0.00    -0.276 N 
ATOM      2  N   UNL     1       1.282  -2.363   0.000  0.00  0.00    -0.391 NA
ATOM      3  C   UNL     1       0.001  -2.656   0.000  0.00  0.00    +0.161 C 
ATOM      4  C   UNL     1       0.061  -0.453   0.000  0.00  0.00    +0.155 C 
ATOM      5  C   UNL     1       1.327  -0.991   0.000  0.00  0.00    +0.160 C 
ATOM      6  C   UNL     1      -0.579  -4.015   0.000  0.00  0.00    +0.084 C 
ENDROOT
BRANCH   5  10
ATOM      7  N   UNL     1       2.393   1.113   0.001  0.00  0.00    -0.335 NA
ATOM      8  N   UNL     1       4.795   1.312   0.000  0.00  0.00    -0.170 NA
ATOM      9  N   UNL     1       3.427   3.219   0.000  0.00  0.00    -0.293 N 
ATOM     10  C   UNL     1       2.537  -0.230   0.001  0.00  0.00    +0.173 C 
ATOM     11  C   UNL     1       3.766  -0.864   0.000  0.00  0.00    +0.057 C 
ATOM     12  C   UNL     1       4.869  -0.035   0.000  0.00  0.00    +0.114 C 
ATOM     13  C   UNL     1       3.544   1.812   0.000  0.00  0.00    +0.141 C 
ATOM     14  H   UNL     1       2.537   3.639   0.001  0.00  0.00    +0.155 HD
ATOM     15  H   UNL     1       4.236   3.780   0.000  0.00  0.00    +0.155 HD
ENDBRANCH   5  10
BRANCH   1  16
ATOM     16  C   UNL     1      -2.220  -1.476   0.000  0.00  0.00    +0.122 C 
BRANCH  16  19
ATOM     17 CL   UNL     1      -2.675  -0.180  -2.726  0.00  0.00    -0.082 Cl
ATOM     18 CL   UNL     1      -2.677  -0.180   2.726  0.00  0.00    -0.082 Cl
ATOM     19  C   UNL     1      -2.718  -0.062   0.000  0.00  0.00    +0.019 C 
ATOM     20  C   UNL     1      -2.950   0.595  -1.208  0.00  0.00    +0.056 C 
ATOM     21  C   UNL     1      -2.950   0.596   1.208  0.00  0.00    +0.056 C 
ATOM     22  C   UNL     1      -3.414   1.911  -1.208  0.00  0.00    +0.011 C 
ATOM     23  C   UNL     1      -3.414   1.911   1.207  0.00  0.00    +0.011 C 
ATOM     24  C   UNL     1      -3.646   2.569  -0.001  0.00  0.00    +0.002 C 
ENDBRANCH  16  19
ENDBRANCH   1  16
TORSDOF 3
