REMARK  Name = 24871491
REMARK  6 active torsions:
REMARK  status: ('A' for Active; 'I' for Inactive)
REMARK    1  A    between atoms: N_1  and  C_11
REMARK    2  A    between atoms: N_2  and  C_18
REMARK    3  A    between atoms: C_6  and  C_31
REMARK    4  A    between atoms: C_19  and  C_24
REMARK    5  A    between atoms: C_24  and  C_26
REMARK    6  A    between atoms: C_26  and  O_27
REMARK                            x       y       z     vdW  Elec       q    Type
REMARK                         _______ _______ _______ _____ _____    ______ ____
ROOT
ATOM      1  N   UNL     1      -2.718  -0.931   0.492  0.00  0.00    -0.287 N 
ATOM      2  N   UNL     1       0.095   2.795  -0.161  0.00  0.00    -0.247 N 
ATOM      3  N   UNL     1      -1.293   0.935   0.167  0.00  0.00    -0.322 NA
ATOM      4  N   UNL     1      -2.217   3.084  -0.410  0.00  0.00    -0.169 NA
ATOM      5  C   UNL     1      -2.549   0.441   0.184  0.00  0.00    +0.202 C 
ATOM      6  C   UNL     1      -3.673   1.196  -0.082  0.00  0.00    +0.118 C 
ATOM      7  C   UNL     1      -1.202   2.245  -0.133  0.00  0.00    +0.150 C 
ATOM      8  C   UNL     1      -3.445   2.525  -0.375  0.00  0.00    +0.120 C 
ATOM      9  H   UNL     1      -3.572  -1.136   0.936  0.00  0.00    +0.155 HD
ATOM     10  H   UNL     1       0.113   3.753  -0.385  0.00  0.00    +0.165 HD
ENDROOT
BRANCH   1  11
ATOM     11  C   UNL     1      -1.903  -2.056   0.287  0.00  0.00    +0.050 C 
ATOM     12  C   UNL     1      -0.661  -1.914  -0.333  0.00  0.00    +0.010 C 
ATOM     13  C   UNL     1       0.148  -3.032  -0.536  0.00  0.00    -0.021 C 
ATOM     14  C   UNL     1      -2.334  -3.315   0.704  0.00  0.00    +0.015 C 
ATOM     15  C   UNL     1      -0.283  -4.291  -0.119  0.00  0.00    -0.004 C 
ATOM     16  C   UNL     1      -1.525  -4.433   0.500  0.00  0.00    +0.001 C 
ATOM     17  C   UNL     1       1.475  -2.881  -1.200  0.00  0.00    +0.031 C 
ENDBRANCH   1  11
BRANCH   2  18
ATOM     18  C   UNL     1       1.372   2.243   0.069  0.00  0.00    +0.058 C 
ATOM     19  C   UNL     1       3.898   1.151   0.523  0.00  0.00    -0.011 C 
ATOM     20  C   UNL     1       2.485   2.764  -0.589  0.00  0.00    +0.015 C 
ATOM     21  C   UNL     1       1.521   1.175   0.954  0.00  0.00    +0.015 C 
ATOM     22  C   UNL     1       3.749   2.218  -0.362  0.00  0.00    -0.002 C 
ATOM     23  C   UNL     1       2.784   0.629   1.181  0.00  0.00    -0.002 C 
BRANCH  19  24
ATOM     24  C   UNL     1       5.249   0.567   0.766  0.00  0.00    +0.136 C 
BRANCH  24  26
ATOM     25  O   UNL     1       4.856  -1.015  -1.043  0.00  0.00    -0.250 OA
ATOM     26  C   UNL     1       5.598  -0.564  -0.181  0.00  0.00    +0.318 C 
BRANCH  26  27
ATOM     27  O   UNL     1       6.854  -1.037   0.036  0.00  0.00    -0.480 OA
ATOM     28  H   UNL     1       7.386  -0.661   0.709  0.00  0.00    +0.295 HD
ENDBRANCH  26  27
ENDBRANCH  24  26
ENDBRANCH  19  24
ENDBRANCH   2  18
BRANCH   6  31
ATOM     29  O   UNL     1      -5.717   0.686   0.972  0.00  0.00    -0.270 OA
ATOM     30  N   UNL     1      -5.537   0.150  -1.250  0.00  0.00    -0.325 N 
ATOM     31  C   UNL     1      -5.027   0.666  -0.063  0.00  0.00    +0.248 C 
ATOM     32  H   UNL     1      -6.450  -0.218  -1.275  0.00  0.00    +0.145 HD
ATOM     33  H   UNL     1      -4.985   0.152  -2.065  0.00  0.00    +0.145 HD
ENDBRANCH   6  31
TORSDOF 6
