REMARK  Name = 446977
REMARK  12 active torsions:
REMARK  status: ('A' for Active; 'I' for Inactive)
REMARK    1  A    between atoms: C_1  and  C_2
REMARK    2  A    between atoms: C_1  and  C_10
REMARK    3  A    between atoms: C_2  and  C_3
REMARK    4  A    between atoms: C_3  and  C_4
REMARK    5  A    between atoms: C_4  and  C_5
REMARK    6  A    between atoms: C_5  and  C_6
REMARK    7  A    between atoms: C_6  and  C_7
REMARK    8  A    between atoms: C_7  and  C_8
REMARK    9  A    between atoms: C_10  and  C_11
REMARK   10  A    between atoms: C_11  and  P_12
REMARK   11  A    between atoms: P_12  and  O_14
REMARK   12  A    between atoms: P_12  and  O_16
REMARK                            x       y       z     vdW  Elec       q    Type
REMARK                         _______ _______ _______ _____ _____    ______ ____
ROOT
ATOM      1  C   UNL     1       1.223   0.177   0.638  0.00  0.00    +0.001 C 
ENDROOT
BRANCH   1   2
ATOM      2  C   UNL     1       0.004   0.106  -0.284  0.00  0.00    +0.000 C 
BRANCH   2   3
ATOM      3  C   UNL     1      -1.299   0.124   0.519  0.00  0.00    +0.000 C 
BRANCH   3   4
ATOM      4  C   UNL     1      -2.520   0.021  -0.398  0.00  0.00    +0.000 C 
BRANCH   4   5
ATOM      5  C   UNL     1      -3.819   0.006   0.410  0.00  0.00    +0.000 C 
BRANCH   5   6
ATOM      6  C   UNL     1      -5.077  -0.074  -0.461  0.00  0.00    +0.000 C 
BRANCH   6   7
ATOM      7  C   UNL     1      -6.378  -0.013   0.342  0.00  0.00    +0.000 C 
BRANCH   7   8
ATOM      8  C   UNL     1      -7.598  -0.109  -0.575  0.00  0.00    +0.000 C 
ATOM      9  C   UNL     1      -8.895  -0.082   0.219  0.00  0.00    +0.000 C 
ENDBRANCH   7   8
ENDBRANCH   6   7
ENDBRANCH   5   6
ENDBRANCH   4   5
ENDBRANCH   3   4
ENDBRANCH   2   3
ENDBRANCH   1   2
BRANCH   1  10
ATOM     10  C   UNL     1       2.552   0.232  -0.118  0.00  0.00    +0.013 C 
BRANCH  10  11
ATOM     11  C   UNL     1       3.767   0.380   0.789  0.00  0.00    +0.116 C 
BRANCH  11  12
ATOM     12  P   UNL     1       5.311   0.431  -0.153  0.00  0.00    +0.340 P 
ATOM     13  O   UNL     1       5.361   1.568  -1.115  0.00  0.00    -0.258 OA
BRANCH  12  14
ATOM     14  O   UNL     1       5.437  -1.033  -0.809  0.00  0.00    -0.291 OA
ATOM     15  C   UNL     1       5.500  -2.201  -0.009  0.00  0.00    +0.184 C 
ENDBRANCH  12  14
BRANCH  12  16
ATOM     16  O   UNL     1       6.431   0.467   1.004  0.00  0.00    -0.323 OA
ATOM     17  H   UNL     1       7.313   0.496   0.600  0.00  0.00    +0.220 HD
ENDBRANCH  12  16
ENDBRANCH  11  12
ENDBRANCH  10  11
ENDBRANCH   1  10
TORSDOF 12
