REMARK  Name = 12195517
REMARK  2 active torsions:
REMARK  status: ('A' for Active; 'I' for Inactive)
REMARK    1  A    between atoms: C_4  and  C_8
REMARK    2  A    between atoms: C_5  and  C_14
REMARK                            x       y       z     vdW  Elec       q    Type
REMARK                         _______ _______ _______ _____ _____    ______ ____
ROOT
ATOM      1  N   UNL     1       0.211   1.792   0.000  0.00  0.00    -0.200 N 
ATOM      2  N   UNL     1      -0.359  -0.318  -0.001  0.00  0.00    -0.333 NA
ATOM      3  N   UNL     1      -1.129   1.836   0.000  0.00  0.00    -0.113 NA
ATOM      4  C   UNL     1       0.661   0.508  -0.001  0.00  0.00    +0.211 C 
ATOM      5  C   UNL     1      -1.425   0.535   0.000  0.00  0.00    +0.104 C 
ATOM      6  H   UNL     1       0.794   2.585   0.000  0.00  0.00    +0.178 HD
ENDROOT
BRANCH   4   8
ATOM      7  F   UNL     1       6.073  -0.818   0.000  0.00  0.00    -0.204 F 
ATOM      8  C   UNL     1       2.060   0.166   0.000  0.00  0.00    +0.046 C 
ATOM      9  C   UNL     1       2.452  -1.173   0.000  0.00  0.00    +0.006 C 
ATOM     10  C   UNL     1       3.028   1.173   0.000  0.00  0.00    +0.006 C 
ATOM     11  C   UNL     1       3.807  -1.506   0.000  0.00  0.00    +0.030 C 
ATOM     12  C   UNL     1       4.383   0.841   0.000  0.00  0.00    +0.030 C 
ATOM     13  C   UNL     1       4.772  -0.498   0.000  0.00  0.00    +0.140 C 
ENDBRANCH   4   8
BRANCH   5  14
ATOM     14  C   UNL     1      -2.776   0.049   0.000  0.00  0.00    +0.075 C 
ATOM     15  C   UNL     1      -3.842   0.950   0.000  0.00  0.00    +0.011 C 
ATOM     16  C   UNL     1      -3.024  -1.324   0.000  0.00  0.00    +0.011 C 
ATOM     17  C   UNL     1      -5.154   0.477   0.000  0.00  0.00    +0.001 C 
ATOM     18  C   UNL     1      -4.336  -1.796   0.000  0.00  0.00    +0.001 C 
ATOM     19  C   UNL     1      -5.402  -0.895   0.000  0.00  0.00    +0.000 C 
ENDBRANCH   5  14
TORSDOF 2
