REMARK  Name = 10042950
REMARK  5 active torsions:
REMARK  status: ('A' for Active; 'I' for Inactive)
REMARK    1  A    between atoms: C_4  and  C_16
REMARK    2  A    between atoms: C_7  and  N_19
REMARK    3  A    between atoms: C_8  and  C_10
REMARK    4  A    between atoms: N_19  and  C_21
REMARK    5  A    between atoms: C_21  and  C_23
REMARK                            x       y       z     vdW  Elec       q    Type
REMARK                         _______ _______ _______ _____ _____    ______ ____
ROOT
ATOM      1  N   UNL     1       0.117  -1.429   0.180  0.00  0.00    -0.152 N 
ATOM      2  N   UNL     1      -0.440  -2.671   0.255  0.00  0.00    -0.174 NA
ATOM      3  N   UNL     1       2.289  -0.389   0.185  0.00  0.00    -0.389 NA
ATOM      4  C   UNL     1       1.828  -2.837   0.352  0.00  0.00    +0.112 C 
ATOM      5  C   UNL     1       1.510  -1.502   0.239  0.00  0.00    +0.189 C 
ATOM      6  C   UNL     1       0.596  -3.501   0.356  0.00  0.00    +0.100 C 
ATOM      7  C   UNL     1      -0.544  -0.197   0.055  0.00  0.00    +0.126 C 
ATOM      8  C   UNL     1       1.677   0.755   0.083  0.00  0.00    +0.135 C 
ATOM      9  C   UNL     1       0.192   0.926   0.000  0.00  0.00    +0.064 C 
ENDROOT
BRANCH   8  10
ATOM     10  C   UNL     1       2.489   2.000   0.027  0.00  0.00    +0.030 C 
ATOM     11  C   UNL     1       1.964   3.193   0.517  0.00  0.00    +0.003 C 
ATOM     12  C   UNL     1       3.771   1.967  -0.516  0.00  0.00    +0.003 C 
ATOM     13  C   UNL     1       2.726   4.360   0.464  0.00  0.00    +0.000 C 
ATOM     14  C   UNL     1       4.533   3.134  -0.569  0.00  0.00    +0.000 C 
ATOM     15  C   UNL     1       4.011   4.331  -0.079  0.00  0.00    +0.000 C 
ENDBRANCH   8  10
BRANCH   4  16
ATOM     16  C   UNL     1       3.211  -3.453   0.451  0.00  0.00    +0.014 C 
ATOM     17  C   UNL     1       4.234  -3.153  -0.619  0.00  0.00    +0.001 C 
ATOM     18  C   UNL     1       3.620  -4.520  -0.537  0.00  0.00    +0.001 C 
ENDBRANCH   4  16
BRANCH   7  19
ATOM     19  N   UNL     1      -1.909  -0.217  -0.010  0.00  0.00    -0.316 N 
ATOM     20  H   UNL     1      -2.366  -1.088   0.038  0.00  0.00    +0.148 HD
BRANCH  19  21
ATOM     21  C   UNL     1      -2.712   0.969  -0.147  0.00  0.00    +0.117 C 
BRANCH  21  23
ATOM     22  N   UNL     1      -6.211   0.355   1.109  0.00  0.00    -0.243 NA
ATOM     23  C   UNL     1      -4.180   0.657  -0.144  0.00  0.00    +0.017 C 
ATOM     24  C   UNL     1      -4.844   0.391  -1.329  0.00  0.00    +0.001 C 
ATOM     25  C   UNL     1      -4.889   0.630   1.037  0.00  0.00    +0.096 C 
ATOM     26  C   UNL     1      -6.204   0.104  -1.296  0.00  0.00    +0.020 C 
ATOM     27  C   UNL     1      -6.835   0.098  -0.063  0.00  0.00    +0.099 C 
ENDBRANCH  21  23
ENDBRANCH  19  21
ENDBRANCH   7  19
TORSDOF 5
