REMARK  Name = 44141939
REMARK  3 active torsions:
REMARK  status: ('A' for Active; 'I' for Inactive)
REMARK    1  A    between atoms: N_2  and  C_11
REMARK    2  A    between atoms: C_3  and  C_18
REMARK    3  A    between atoms: C_18  and  N_19
REMARK                            x       y       z     vdW  Elec       q    Type
REMARK                         _______ _______ _______ _____ _____    ______ ____
ROOT
ATOM      1  O   UNL     1       3.310  -0.106   0.920  0.00  0.00    -0.355 OA
ATOM      2  N   UNL     1       0.619   0.371   0.267  0.00  0.00    -0.302 N 
ATOM      3  C   UNL     1       2.909  -0.137  -0.454  0.00  0.00    +0.113 C 
ATOM      4  C   UNL     1       1.432  -0.530  -0.560  0.00  0.00    +0.118 C 
ATOM      5  C   UNL     1       1.092   0.550   1.646  0.00  0.00    +0.123 C 
ATOM      6  C   UNL     1       2.578   0.885   1.640  0.00  0.00    +0.163 C 
ENDROOT
BRANCH   2  11
ATOM      7 BR   UNL     1      -0.293   3.315  -0.456  0.00  0.00    -0.046 Br
ATOM      8  N   UNL     1      -3.551  -1.619  -0.029  0.00  0.00    -0.220 N 
ATOM      9  N   UNL     1      -3.559   0.755  -0.492  0.00  0.00    -0.227 NA
ATOM     10  N   UNL     1      -2.697  -2.604   0.303  0.00  0.00    -0.178 NA
ATOM     11  C   UNL     1      -0.750   0.502   0.017  0.00  0.00    +0.060 C 
ATOM     12  C   UNL     1      -1.607  -0.604   0.092  0.00  0.00    +0.067 C 
ATOM     13  C   UNL     1      -1.321   1.730  -0.315  0.00  0.00    +0.067 C 
ATOM     14  C   UNL     1      -2.954  -0.401  -0.168  0.00  0.00    +0.150 C 
ATOM     15  C   UNL     1      -1.516  -1.981   0.375  0.00  0.00    +0.122 C 
ATOM     16  C   UNL     1      -2.690   1.794  -0.552  0.00  0.00    +0.108 C 
ATOM     17  H   UNL     1      -4.516  -1.763  -0.159  0.00  0.00    +0.176 HD
ENDBRANCH   2  11
BRANCH   3  18
ATOM     18  C   UNL     1       3.796  -1.141  -1.177  0.00  0.00    -0.054 C 
BRANCH  18  19
ATOM     19  N   UNL     1       5.202  -0.779  -1.055  0.00  0.00    +0.382 N 
ATOM     20  H   UNL     1       5.774  -1.466  -1.547  0.00  0.00    -0.089 HD
ATOM     21  H   UNL     1       5.465  -0.761  -0.070  0.00  0.00    -0.089 HD
ATOM     22  H   UNL     1       5.352   0.143  -1.464  0.00  0.00    -0.089 HD
ENDBRANCH  18  19
ENDBRANCH   3  18
TORSDOF 3
