REMARK  Name = 5356
REMARK  3 active torsions:
REMARK  status: ('A' for Active; 'I' for Inactive)
REMARK    1  A    between atoms: C_1  and  N_10
REMARK    2  A    between atoms: C_4  and  S_15
REMARK    3  A    between atoms: S_15  and  N_18
REMARK                            x       y       z     vdW  Elec       q    Type
REMARK                         _______ _______ _______ _____ _____    ______ ____
ROOT
ATOM      1  C   UNL     1      -0.334   0.241   0.180  0.00  0.00    +0.069 C 
ATOM      2  C   UNL     1       0.293   0.263  -1.062  0.00  0.00    +0.017 C 
ATOM      3  C   UNL     1       0.412   0.113   1.347  0.00  0.00    +0.017 C 
ATOM      4  C   UNL     1       2.435   0.027   0.030  0.00  0.00    +0.122 C 
ATOM      5  C   UNL     1       1.681   0.156  -1.137  0.00  0.00    +0.021 C 
ATOM      6  C   UNL     1       1.800   0.005   1.272  0.00  0.00    +0.021 C 
ENDROOT
BRANCH   1  10
ATOM      7  S   UNL     1      -2.613  -1.111  -0.120  0.00  0.00    +0.057 S 
ATOM      8  O   UNL     1      -2.708  -1.260  -1.560  0.00  0.00    -0.154 OA
ATOM      9  O   UNL     1      -2.106  -2.192   0.703  0.00  0.00    -0.154 OA
ATOM     10  N   UNL     1      -1.774   0.353   0.258  0.00  0.00    -0.194 N 
ATOM     11  C   UNL     1      -4.711   0.653  -0.070  0.00  0.00    +0.029 C 
ATOM     12  C   UNL     1      -4.222  -0.669   0.503  0.00  0.00    +0.173 C 
ATOM     13  C   UNL     1      -3.767   1.808   0.262  0.00  0.00    +0.025 C 
ATOM     14  C   UNL     1      -2.366   1.601  -0.308  0.00  0.00    +0.116 C 
ENDBRANCH   1  10
BRANCH   4  15
ATOM     15  S   UNL     1       4.173  -0.108  -0.065  0.00  0.00    +0.057 S 
ATOM     16  O   UNL     1       4.647  -0.787   1.133  0.00  0.00    -0.153 OA
ATOM     17  O   UNL     1       4.526  -0.629  -1.379  0.00  0.00    -0.153 OA
BRANCH  15  18
ATOM     18  N   UNL     1       4.633   1.536   0.014  0.00  0.00    -0.203 NA
ATOM     19  H   UNL     1       5.649   1.607  -0.032  0.00  0.00    +0.144 HD
ATOM     20  H   UNL     1       4.303   1.939   0.891  0.00  0.00    +0.144 HD
ENDBRANCH  15  18
ENDBRANCH   4  15
TORSDOF 3
