REMARK  Name = 446346
REMARK  6 active torsions:
REMARK  status: ('A' for Active; 'I' for Inactive)
REMARK    1  A    between atoms: N_1  and  C_20
REMARK    2  A    between atoms: N_2  and  S_8
REMARK    3  A    between atoms: S_8  and  C_11
REMARK    4  A    between atoms: C_12  and  C_14
REMARK    5  A    between atoms: C_20  and  C_22
REMARK    6  A    between atoms: N_21  and  C_28
REMARK                            x       y       z     vdW  Elec       q    Type
REMARK                         _______ _______ _______ _____ _____    ______ ____
ROOT
ATOM      1  N   UNL     1       0.655  -2.215  -0.666  0.00  0.00    +0.389 N 
ATOM      2  N   UNL     1      -2.065  -2.682   0.141  0.00  0.00    -0.160 NA
ATOM      3  C   UNL     1      -0.239  -3.059  -1.472  0.00  0.00    -0.058 C 
ATOM      4  C   UNL     1       0.290  -2.287   0.755  0.00  0.00    -0.058 C 
ATOM      5  C   UNL     1      -1.694  -2.627  -1.302  0.00  0.00    +0.073 C 
ATOM      6  C   UNL     1      -1.155  -1.840   0.969  0.00  0.00    +0.073 C 
ATOM      7  H   UNL     1       0.551  -1.249  -0.977  0.00  0.00    -0.080 HD
ENDROOT
BRANCH   2   8
ATOM      8  S   UNL     1      -3.735  -2.516   0.480  0.00  0.00    +0.064 S 
ATOM      9  O   UNL     1      -3.925  -2.763   1.899  0.00  0.00    -0.153 OA
ATOM     10  O   UNL     1      -4.467  -3.305  -0.495  0.00  0.00    -0.153 OA
BRANCH   8  11
ATOM     11  C   UNL     1      -4.065  -0.844   0.176  0.00  0.00    +0.141 C 
ATOM     12  C   UNL     1      -5.323  -0.426   0.365  0.00  0.00    +0.021 C 
BRANCH  12  14
ATOM     13 CL   UNL     1      -7.203   5.177  -0.444  0.00  0.00    -0.082 Cl
ATOM     14  C   UNL     1      -5.787   0.958   0.166  0.00  0.00    +0.001 C 
ATOM     15  C   UNL     1      -6.825   1.445   0.944  0.00  0.00    +0.001 C 
ATOM     16  C   UNL     1      -5.177   1.747  -0.797  0.00  0.00    +0.001 C 
ATOM     17  C   UNL     1      -7.265   2.755   0.754  0.00  0.00    +0.011 C 
ATOM     18  C   UNL     1      -5.617   3.057  -0.986  0.00  0.00    +0.011 C 
ATOM     19  C   UNL     1      -6.661   3.561  -0.210  0.00  0.00    +0.058 C 
ENDBRANCH  12  14
ENDBRANCH   8  11
ENDBRANCH   2   8
BRANCH   1  20
ATOM     20  C   UNL     1       2.049  -2.611  -0.860  0.00  0.00    -0.077 C 
BRANCH  20  22
ATOM     21  N   UNL     1       5.183   0.224  -0.025  0.00  0.00    -0.307 N 
ATOM     22  C   UNL     1       3.004  -1.680  -0.117  0.00  0.00    -0.017 C 
ATOM     23  C   UNL     1       2.827  -0.232  -0.585  0.00  0.00    +0.019 C 
ATOM     24  C   UNL     1       4.459  -2.110  -0.326  0.00  0.00    +0.019 C 
ATOM     25  C   UNL     1       3.803   0.707   0.123  0.00  0.00    +0.091 C 
ATOM     26  C   UNL     1       5.433  -1.164   0.377  0.00  0.00    +0.091 C 
BRANCH  21  28
ATOM     27  N   UNL     1       8.283   3.070   0.297  0.00  0.00    -0.242 NA
ATOM     28  C   UNL     1       6.211   1.168   0.082  0.00  0.00    +0.051 C 
ATOM     29  C   UNL     1       6.284   2.262  -0.795  0.00  0.00    +0.035 C 
ATOM     30  C   UNL     1       7.202   1.051   1.069  0.00  0.00    +0.035 C 
ATOM     31  C   UNL     1       7.321   3.168  -0.648  0.00  0.00    +0.100 C 
ATOM     32  C   UNL     1       8.198   2.011   1.133  0.00  0.00    +0.100 C 
ENDBRANCH  21  28
ENDBRANCH  20  22
ENDBRANCH   1  20
TORSDOF 6
