REMARK  Name = 134780
REMARK  2 active torsions:
REMARK  status: ('A' for Active; 'I' for Inactive)
REMARK    1  A    between atoms: N_3  and  C_15
REMARK    2  A    between atoms: C_8  and  N_21
REMARK                            x       y       z     vdW  Elec       q    Type
REMARK                         _______ _______ _______ _____ _____    ______ ____
ROOT
ATOM      1  O   UNL     1       0.890   2.387  -0.016  0.00  0.00    -0.269 OA
ATOM      2  O   UNL     1      -0.275  -2.090  -0.215  0.00  0.00    -0.269 OA
ATOM      3  N   UNL     1      -0.101   0.258  -0.131  0.00  0.00    -0.216 N 
ATOM      4  C   UNL     1       0.929   1.171  -0.062  0.00  0.00    +0.257 C 
ATOM      5  C   UNL     1       0.348  -1.046  -0.161  0.00  0.00    +0.255 C 
ATOM      6  C   UNL     1       2.159   0.379  -0.057  0.00  0.00    +0.071 C 
ATOM      7  C   UNL     1       1.807  -0.961  -0.116  0.00  0.00    +0.060 C 
ATOM      8  C   UNL     1       3.476   0.787  -0.003  0.00  0.00    +0.046 C 
ATOM      9  C   UNL     1       2.754  -1.965  -0.125  0.00  0.00    +0.005 C 
ATOM     10  C   UNL     1       4.453  -0.213  -0.011  0.00  0.00    +0.014 C 
ATOM     11  C   UNL     1       4.096  -1.575  -0.071  0.00  0.00    +0.001 C 
ENDROOT
BRANCH   3  15
ATOM     12  O   UNL     1      -1.551  -0.050   2.153  0.00  0.00    -0.273 OA
ATOM     13  O   UNL     1      -5.535  -0.273  -0.145  0.00  0.00    -0.275 OA
ATOM     14  N   UNL     1      -3.517  -0.178   0.964  0.00  0.00    -0.254 N 
ATOM     15  C   UNL     1      -1.492   0.624  -0.168  0.00  0.00    +0.160 C 
ATOM     16  C   UNL     1      -2.169   0.092  -1.421  0.00  0.00    +0.039 C 
ATOM     17  C   UNL     1      -3.638   0.473  -1.401  0.00  0.00    +0.088 C 
ATOM     18  C   UNL     1      -2.152   0.081   1.087  0.00  0.00    +0.247 C 
ATOM     19  C   UNL     1      -4.326  -0.042  -0.160  0.00  0.00    +0.228 C 
ATOM     20  H   UNL     1      -3.966  -0.499   1.779  0.00  0.00    +0.158 HD
ENDBRANCH   3  15
BRANCH   8  21
ATOM     21  N   UNL     1       3.844   2.140   0.058  0.00  0.00    -0.357 N 
ATOM     22  H   UNL     1       3.151   2.839   0.063  0.00  0.00    +0.142 HD
ATOM     23  H   UNL     1       4.795   2.390   0.095  0.00  0.00    +0.142 HD
ENDBRANCH   8  21
TORSDOF 2
