REMARK  Name = 14812933
REMARK  11 active torsions:
REMARK  status: ('A' for Active; 'I' for Inactive)
REMARK    1  A    between atoms: C_1  and  C_2
REMARK    2  A    between atoms: C_1  and  C_9
REMARK    3  A    between atoms: C_2  and  C_3
REMARK    4  A    between atoms: C_3  and  C_4
REMARK    5  A    between atoms: C_4  and  C_5
REMARK    6  A    between atoms: C_5  and  C_6
REMARK    7  A    between atoms: C_6  and  C_7
REMARK    8  A    between atoms: C_9  and  C_10
REMARK    9  A    between atoms: C_10  and  O_11
REMARK   10  A    between atoms: O_11  and  C_13
REMARK   11  A    between atoms: C_13  and  S_14
REMARK                            x       y       z     vdW  Elec       q    Type
REMARK                         _______ _______ _______ _____ _____    ______ ____
ROOT
ATOM      1  C   UNL     1      -0.846  -0.392   0.076  0.00  0.00    +0.004 C 
ENDROOT
BRANCH   1   2
ATOM      2  C   UNL     1       0.424   0.462   0.075  0.00  0.00    +0.000 C 
BRANCH   2   3
ATOM      3  C   UNL     1       1.680  -0.412   0.086  0.00  0.00    +0.000 C 
BRANCH   3   4
ATOM      4  C   UNL     1       2.982   0.393   0.116  0.00  0.00    +0.000 C 
BRANCH   4   5
ATOM      5  C   UNL     1       4.238  -0.479   0.053  0.00  0.00    +0.000 C 
BRANCH   5   6
ATOM      6  C   UNL     1       5.505   0.378   0.012  0.00  0.00    +0.000 C 
BRANCH   6   7
ATOM      7  C   UNL     1       6.760  -0.489  -0.089  0.00  0.00    +0.000 C 
ATOM      8  C   UNL     1       8.019   0.360  -0.164  0.00  0.00    +0.000 C 
ENDBRANCH   6   7
ENDBRANCH   5   6
ENDBRANCH   4   5
ENDBRANCH   3   4
ENDBRANCH   2   3
ENDBRANCH   1   2
BRANCH   1   9
ATOM      9  C   UNL     1      -2.103   0.481   0.034  0.00  0.00    +0.047 C 
BRANCH   9  10
ATOM     10  C   UNL     1      -3.381  -0.349   0.001  0.00  0.00    +0.209 C 
BRANCH  10  11
ATOM     11  O   UNL     1      -4.514   0.506  -0.018  0.00  0.00    -0.441 OA
BRANCH  11  13
ATOM     12  O   UNL     1      -5.904  -1.325  -0.060  0.00  0.00    -0.238 OA
ATOM     13  C   UNL     1      -5.738  -0.112  -0.049  0.00  0.00    +0.366 C 
BRANCH  13  14
ATOM     14  S   UNL     1      -7.123   0.979  -0.072  0.00  0.00    -0.061 S 
ATOM     15  H   UNL     1      -6.686   2.267  -0.055  0.00  0.00    +0.113 HD
ENDBRANCH  13  14
ENDBRANCH  11  13
ENDBRANCH  10  11
ENDBRANCH   9  10
ENDBRANCH   1   9
TORSDOF 11
