REMARK  Name = 445650
REMARK  8 active torsions:
REMARK  status: ('A' for Active; 'I' for Inactive)
REMARK    1  A    between atoms: C_1  and  N_8
REMARK    2  A    between atoms: C_2  and  C_18
REMARK    3  A    between atoms: C_9  and  C_11
REMARK    4  A    between atoms: C_11  and  C_12
REMARK    5  A    between atoms: C_12  and  C_13
REMARK    6  A    between atoms: C_13  and  C_15
REMARK    7  A    between atoms: C_15  and  O_16
REMARK    8  A    between atoms: C_19  and  C_20
REMARK                            x       y       z     vdW  Elec       q    Type
REMARK                         _______ _______ _______ _____ _____    ______ ____
ROOT
ATOM      1  C   UNL     1      -0.877   1.077  -0.112  0.00  0.00    +0.050 C 
ATOM      2  C   UNL     1       1.880   0.851   0.023  0.00  0.00    +0.000 C 
ATOM      3  C   UNL     1      -0.310  -0.165   0.119  0.00  0.00    +0.015 C 
ATOM      4  C   UNL     1      -0.096   2.209  -0.277  0.00  0.00    +0.015 C 
ATOM      5  C   UNL     1       1.079  -0.279   0.188  0.00  0.00    +0.001 C 
ATOM      6  C   UNL     1       1.292   2.095  -0.209  0.00  0.00    +0.001 C 
ENDROOT
BRANCH   1   8
ATOM      7  O   UNL     1      -3.017  -1.012   0.169  0.00  0.00    -0.275 OA
ATOM      8  N   UNL     1      -2.286   1.193  -0.179  0.00  0.00    -0.284 N 
ATOM      9  C   UNL     1      -3.229   0.178  -0.038  0.00  0.00    +0.226 C 
ATOM     10  H   UNL     1      -2.641   2.096  -0.345  0.00  0.00    +0.155 HD
BRANCH   9  11
ATOM     11  C   UNL     1      -4.639   0.736  -0.181  0.00  0.00    +0.086 C 
BRANCH  11  12
ATOM     12  C   UNL     1      -5.713  -0.342  -0.034  0.00  0.00    +0.021 C 
BRANCH  12  13
ATOM     13  C   UNL     1      -7.126   0.226  -0.106  0.00  0.00    +0.110 C 
BRANCH  13  15
ATOM     14  O   UNL     1      -7.908  -2.020   0.315  0.00  0.00    -0.250 OA
ATOM     15  C   UNL     1      -8.171  -0.842   0.106  0.00  0.00    +0.314 C 
BRANCH  15  16
ATOM     16  O   UNL     1      -9.437  -0.368   0.014  0.00  0.00    -0.480 OA
ATOM     17  H   UNL     1      -9.586   0.543  -0.147  0.00  0.00    +0.295 HD
ENDBRANCH  15  16
ENDBRANCH  13  15
ENDBRANCH  12  13
ENDBRANCH  11  12
ENDBRANCH   9  11
ENDBRANCH   1   8
BRANCH   2  18
ATOM     18  C   UNL     1       3.328   0.733   0.094  0.00  0.00    +0.000 C 
ATOM     19  C   UNL     1       4.026  -0.416  -0.071  0.00  0.00    +0.000 C 
BRANCH  19  20
ATOM     20  C   UNL     1       5.494  -0.533  -0.019  0.00  0.00    +0.000 C 
ATOM     21  C   UNL     1       6.231   0.458   0.609  0.00  0.00    +0.000 C 
ATOM     22  C   UNL     1       6.108  -1.631  -0.599  0.00  0.00    +0.000 C 
ATOM     23  C   UNL     1       7.621   0.347   0.658  0.00  0.00    +0.000 C 
ATOM     24  C   UNL     1       7.497  -1.742  -0.549  0.00  0.00    +0.000 C 
ATOM     25  C   UNL     1       8.254  -0.753   0.080  0.00  0.00    +0.000 C 
ENDBRANCH  19  20
ENDBRANCH   2  18
TORSDOF 8
