7020128
  -OEChem-10051721193D

 35 36  0     1  0  0  0  0  0999 V2000
   -2.9707    2.0731   -0.6161 O   0  0  0  0  0  0  0  0  0  0  0  0
    2.7803   -2.3063   -0.6773 O   0  0  0  0  0  0  0  0  0  0  0  0
   -5.0869    1.4536   -1.1485 O   0  0  0  0  0  0  0  0  0  0  0  0
   -5.3034    0.2346    1.3005 N   0  0  0  0  0  0  0  0  0  0  0  0
   -3.4705   -1.0268    0.2688 C   0  0  0  0  0  0  0  0  0  0  0  0
   -1.9683   -1.0873    0.1135 C   0  0  0  0  0  0  0  0  0  0  0  0
   -3.9695    0.3558    0.7166 C   0  0  1  0  0  0  0  0  0  0  0  0
   -1.4007   -0.7773   -1.1113 C   0  0  0  0  0  0  0  0  0  0  0  0
   -1.1888   -1.4504    1.1994 C   0  0  0  0  0  0  0  0  0  0  0  0
    0.7848   -1.1962   -0.1709 C   0  0  0  0  0  0  0  0  0  0  0  0
   -0.0143   -0.8324   -1.2546 C   0  0  0  0  0  0  0  0  0  0  0  0
    0.1976   -1.5052    1.0561 C   0  0  0  0  0  0  0  0  0  0  0  0
    2.2304   -1.2538   -0.3202 C   0  0  0  0  0  0  0  0  0  0  0  0
   -4.0912    1.3239   -0.4477 C   0  0  0  0  0  0  0  0  0  0  0  0
    3.1102   -0.0750   -0.0577 C   0  0  0  0  0  0  0  0  0  0  0  0
    2.5267    1.1052    0.3402 C   0  0  0  0  0  0  0  0  0  0  0  0
    4.4679   -0.2179   -0.2241 C   0  0  0  0  0  0  0  0  0  0  0  0
    3.3480    2.2056    0.5855 C   0  0  0  0  0  0  0  0  0  0  0  0
    5.2892    0.8825    0.0213 C   0  0  0  0  0  0  0  0  0  0  0  0
    4.7291    2.0943    0.4262 C   0  0  0  0  0  0  0  0  0  0  0  0
   -3.9477   -1.3265   -0.6744 H   0  0  0  0  0  0  0  0  0  0  0  0
   -3.7633   -1.7940    0.9994 H   0  0  0  0  0  0  0  0  0  0  0  0
   -3.3158    0.7990    1.4767 H   0  0  0  0  0  0  0  0  0  0  0  0
   -2.0140   -0.4953   -1.9621 H   0  0  0  0  0  0  0  0  0  0  0  0
   -1.6366   -1.6900    2.1595 H   0  0  0  0  0  0  0  0  0  0  0  0
    0.4322   -0.5902   -2.2155 H   0  0  0  0  0  0  0  0  0  0  0  0
    0.8107   -1.7895    1.9075 H   0  0  0  0  0  0  0  0  0  0  0  0
   -5.2638   -0.3727    2.1186 H   0  0  0  0  0  0  0  0  0  0  0  0
   -5.9291   -0.2287    0.6416 H   0  0  0  0  0  0  0  0  0  0  0  0
    1.4580    1.2302    0.4749 H   0  0  0  0  0  0  0  0  0  0  0  0
    4.9266   -1.1502   -0.5380 H   0  0  0  0  0  0  0  0  0  0  0  0
    2.9125    3.1493    0.9008 H   0  0  0  0  0  0  0  0  0  0  0  0
    6.3647    0.7963   -0.1027 H   0  0  0  0  0  0  0  0  0  0  0  0
    5.3687    2.9511    0.6172 H   0  0  0  0  0  0  0  0  0  0  0  0
   -3.0615    2.7044   -1.3614 H   0  0  0  0  0  0  0  0  0  0  0  0
  1 14  1  0  0  0  0
  1 35  1  0  0  0  0
  2 13  2  0  0  0  0
  3 14  2  0  0  0  0
  4  7  1  0  0  0  0
  4 28  1  0  0  0  0
  4 29  1  0  0  0  0
  5  6  1  0  0  0  0
  5  7  1  0  0  0  0
  5 21  1  0  0  0  0
  5 22  1  0  0  0  0
  6  8  2  0  0  0  0
  6  9  1  0  0  0  0
  7 14  1  0  0  0  0
  7 23  1  0  0  0  0
  8 11  1  0  0  0  0
  8 24  1  0  0  0  0
  9 12  2  0  0  0  0
  9 25  1  0  0  0  0
 10 11  2  0  0  0  0
 10 12  1  0  0  0  0
 10 13  1  0  0  0  0
 11 26  1  0  0  0  0
 12 27  1  0  0  0  0
 13 15  1  0  0  0  0
 15 16  2  0  0  0  0
 15 17  1  0  0  0  0
 16 18  1  0  0  0  0
 16 30  1  0  0  0  0
 17 19  2  0  0  0  0
 17 31  1  0  0  0  0
 18 20  2  0  0  0  0
 18 32  1  0  0  0  0
 19 20  1  0  0  0  0
 19 33  1  0  0  0  0
 20 34  1  0  0  0  0
M  END
> <DATABASE_ID>
DB08371

> <DATABASE_NAME>
drugbank

> <ORIGINAL_SOURCE>
PUBCHEM

> <ORIGINAL_SOURCE_URL>
https://pubchem.ncbi.nlm.nih.gov/rest/pug/compound/inchikey/TVIDEEHSOPHZBR-AWEZNQCLSA-N/SDF?record_type=3d

> <SMILES>
[H][C@](N)(CC1=CC=C(C=C1)C(=O)C1=CC=CC=C1)C(O)=O

> <INCHI_IDENTIFIER>
InChI=1S/C16H15NO3/c17-14(16(19)20)10-11-6-8-13(9-7-11)15(18)12-4-2-1-3-5-12/h1-9,14H,10,17H2,(H,19,20)/t14-/m0/s1

> <INCHI_KEY>
TVIDEEHSOPHZBR-AWEZNQCLSA-N

> <FORMULA>
C16H15NO3

> <MOLECULAR_WEIGHT>
269.2952

> <EXACT_MASS>
269.105193351

> <JCHEM_ACCEPTOR_COUNT>
4

> <JCHEM_AVERAGE_POLARIZABILITY>
28.85480219793616

> <JCHEM_BIOAVAILABILITY>
1

> <JCHEM_DONOR_COUNT>
2

> <JCHEM_FORMAL_CHARGE>
0

> <JCHEM_GHOSE_FILTER>
1

> <JCHEM_IUPAC>
(2S)-2-amino-3-(4-benzoylphenyl)propanoic acid

> <ALOGPS_LOGP>
0.05

> <JCHEM_LOGP>
0.27439775164697205

> <ALOGPS_LOGS>
-3.79

> <JCHEM_MDDR_LIKE_RULE>
0

> <JCHEM_NUMBER_OF_RINGS>
2

> <JCHEM_PHYSIOLOGICAL_CHARGE>
0

> <JCHEM_PKA_STRONGEST_ACIDIC>
1.5924172844832603

> <JCHEM_PKA_STRONGEST_BASIC>
9.205193063904193

> <JCHEM_POLAR_SURFACE_AREA>
80.39

> <JCHEM_REFRACTIVITY>
75.69180000000003

> <JCHEM_ROTATABLE_BOND_COUNT>
5

> <JCHEM_RULE_OF_FIVE>
1

> <ALOGPS_SOLUBILITY>
4.40e-02 g/l

> <JCHEM_TRADITIONAL_IUPAC>
para-(benzoyl)-phenylalanine

> <JCHEM_VEBER_RULE>
0

> <DRUGBANK_ID>
DB08371

> <DRUG_GROUPS>
experimental

> <GENERIC_NAME>
PARA-(BENZOYL)-PHENYLALANINE

$$$$
