REMARK  Name = 3000477
REMARK  7 active torsions:
REMARK  status: ('A' for Active; 'I' for Inactive)
REMARK    1  A    between atoms: C_2  and  C_9
REMARK    2  A    between atoms: C_3  and  N_14
REMARK    3  A    between atoms: C_9  and  O_10
REMARK    4  A    between atoms: O_10  and  C_11
REMARK    5  A    between atoms: N_14  and  C_17
REMARK    6  A    between atoms: C_17  and  O_18
REMARK    7  A    between atoms: O_18  and  C_19
REMARK                            x       y       z     vdW  Elec       q    Type
REMARK                         _______ _______ _______ _____ _____    ______ ____
ROOT
ATOM      1 CL   UNL     1       3.506   2.523  -0.297  0.00  0.00    -0.082 Cl
ATOM      2  C   UNL     1       1.300   0.985   0.166  0.00  0.00    +0.087 C 
ATOM      3  C   UNL     1      -0.949   1.859   0.037  0.00  0.00    +0.051 C 
ATOM      4  C   UNL     1      -0.078   0.794   0.267  0.00  0.00    +0.022 C 
ATOM      5  C   UNL     1       1.807   2.242  -0.166  0.00  0.00    +0.064 C 
ATOM      6  C   UNL     1      -0.442   3.116  -0.294  0.00  0.00    +0.016 C 
ATOM      7  C   UNL     1       0.936   3.307  -0.396  0.00  0.00    +0.013 C 
ENDROOT
BRANCH   2   9
ATOM      8  O   UNL     1       3.030  -0.196   1.305  0.00  0.00    -0.245 OA
ATOM      9  C   UNL     1       2.172  -0.156   0.416  0.00  0.00    +0.342 C 
BRANCH   9  10
ATOM     10  O   UNL     1       1.919  -1.178  -0.456  0.00  0.00    -0.449 OA
BRANCH  10  11
ATOM     11  C   UNL     1       2.713  -2.360  -0.310  0.00  0.00    +0.169 C 
ATOM     12  C   UNL     1       2.526  -2.920   1.092  0.00  0.00    +0.047 C 
ATOM     13  C   UNL     1       2.315  -3.366  -1.380  0.00  0.00    +0.047 C 
ENDBRANCH  10  11
ENDBRANCH   9  10
ENDBRANCH   2   9
BRANCH   3  14
ATOM     14  N   UNL     1      -2.327   1.668   0.137  0.00  0.00    -0.278 N 
ATOM     15  H   UNL     1      -2.824   2.469   0.420  0.00  0.00    +0.156 HD
BRANCH  14  17
ATOM     16  S   UNL     1      -4.792   0.633   0.120  0.00  0.00    +0.006 S 
ATOM     17  C   UNL     1      -3.132   0.551  -0.091  0.00  0.00    +0.233 C 
BRANCH  17  18
ATOM     18  O   UNL     1      -2.491  -0.581  -0.484  0.00  0.00    -0.462 OA
BRANCH  18  19
ATOM     19  C   UNL     1      -2.956  -1.913  -0.184  0.00  0.00    +0.168 C 
ATOM     20  C   UNL     1      -2.008  -2.926  -0.808  0.00  0.00    +0.047 C 
ATOM     21  C   UNL     1      -3.053  -2.082   1.325  0.00  0.00    +0.047 C 
ENDBRANCH  18  19
ENDBRANCH  17  18
ENDBRANCH  14  17
ENDBRANCH   3  14
TORSDOF 7
