REMARK  Name = 6914648
REMARK  13 active torsions:
REMARK  status: ('A' for Active; 'I' for Inactive)
REMARK    1  A    between atoms: N_2  and  C_5
REMARK    2  A    between atoms: C_3  and  C_20
REMARK    3  A    between atoms: C_5  and  C_9
REMARK    4  A    between atoms: N_8  and  C_11
REMARK    5  A    between atoms: C_11  and  C_13
REMARK    6  A    between atoms: C_11  and  C_16
REMARK    7  A    between atoms: C_13  and  O_14
REMARK    8  A    between atoms: C_16  and  C_17
REMARK    9  A    between atoms: C_20  and  O_21
REMARK   10  A    between atoms: C_20  and  C_23
REMARK   11  A    between atoms: C_23  and  C_24
REMARK   12  A    between atoms: C_23  and  N_33
REMARK   13  A    between atoms: C_25  and  C_30
REMARK                            x       y       z     vdW  Elec       q    Type
REMARK                         _______ _______ _______ _____ _____    ______ ____
ROOT
ATOM      1  O   UNL     1      -2.638  -2.926   1.512  0.00  0.00    -0.273 OA
ATOM      2  N   UNL     1      -1.507  -1.944  -0.261  0.00  0.00    -0.296 N 
ATOM      3  C   UNL     1      -2.639  -2.265   0.476  0.00  0.00    +0.248 C 
ATOM      4  H   UNL     1      -1.615  -1.408  -1.080  0.00  0.00    +0.150 HD
ENDROOT
BRANCH   2   5
ATOM      5  C   UNL     1      -0.183  -2.361   0.119  0.00  0.00    +0.149 C 
ATOM      6  C   UNL     1       0.172  -3.705  -0.498  0.00  0.00    +0.031 C 
BRANCH   5   9
ATOM      7  O   UNL     1       0.642  -0.617  -1.348  0.00  0.00    -0.273 OA
ATOM      8  N   UNL     1       1.887  -1.177   0.529  0.00  0.00    -0.295 N 
ATOM      9  C   UNL     1       0.796  -1.282  -0.326  0.00  0.00    +0.241 C 
ATOM     10  H   UNL     1       1.919  -1.755   1.325  0.00  0.00    +0.150 HD
BRANCH   8  11
ATOM     11  C   UNL     1       2.971  -0.257   0.300  0.00  0.00    +0.171 C 
BRANCH  11  13
ATOM     12  O   UNL     1       2.210   0.650   2.427  0.00  0.00    -0.248 OA
ATOM     13  C   UNL     1       2.949   0.726   1.454  0.00  0.00    +0.335 C 
BRANCH  13  14
ATOM     14  O   UNL     1       3.845   1.729   1.208  0.00  0.00    -0.443 OA
ATOM     15  C   UNL     1       3.897   2.764   2.195  0.00  0.00    +0.256 C 
ENDBRANCH  13  14
ENDBRANCH  11  13
BRANCH  11  16
ATOM     16  C   UNL     1       4.331  -0.958   0.234  0.00  0.00    +0.031 C 
BRANCH  16  17
ATOM     17  C   UNL     1       4.497  -1.935  -0.947  0.00  0.00    +0.002 C 
ATOM     18  C   UNL     1       5.851  -2.646  -0.930  0.00  0.00    +0.000 C 
ATOM     19  C   UNL     1       4.327  -1.181  -2.269  0.00  0.00    +0.000 C 
ENDBRANCH  16  17
ENDBRANCH  11  16
ENDBRANCH   8  11
ENDBRANCH   5   9
ENDBRANCH   2   5
BRANCH   3  20
ATOM     20  C   UNL     1      -3.920  -1.688  -0.123  0.00  0.00    +0.170 C 
BRANCH  20  21
ATOM     21  O   UNL     1      -4.983  -2.602   0.099  0.00  0.00    -0.377 OA
ATOM     22  H   UNL     1      -5.802  -2.243  -0.279  0.00  0.00    +0.211 HD
ENDBRANCH  20  21
BRANCH  20  23
ATOM     23  C   UNL     1      -4.256  -0.272   0.403  0.00  0.00    -0.006 C 
BRANCH  23  24
ATOM     24  C   UNL     1      -3.170   0.758   0.131  0.00  0.00    -0.040 C 
ATOM     25  C   UNL     1      -1.179   2.647  -0.368  0.00  0.00    -0.023 C 
ATOM     26  C   UNL     1      -2.798   1.049  -1.182  0.00  0.00    -0.007 C 
ATOM     27  C   UNL     1      -2.546   1.411   1.194  0.00  0.00    -0.007 C 
ATOM     28  C   UNL     1      -1.803   1.994  -1.431  0.00  0.00    -0.005 C 
ATOM     29  C   UNL     1      -1.550   2.356   0.944  0.00  0.00    -0.005 C 
BRANCH  25  30
ATOM     30  C   UNL     1      -0.115   3.658  -0.636  0.00  0.00    +0.022 C 
ATOM     31  C   UNL     1       1.110   3.050  -1.346  0.00  0.00    +0.005 C 
ATOM     32  C   UNL     1      -0.637   4.865  -1.437  0.00  0.00    +0.005 C 
ENDBRANCH  25  30
ENDBRANCH  23  24
BRANCH  23  33
ATOM     33  N   UNL     1      -5.560   0.158  -0.121  0.00  0.00    +0.386 N 
ATOM     34  H   UNL     1      -6.260  -0.557   0.081  0.00  0.00    -0.089 HD
ATOM     35  H   UNL     1      -5.494   0.294  -1.130  0.00  0.00    -0.089 HD
ATOM     36  H   UNL     1      -5.833   1.035   0.323  0.00  0.00    -0.089 HD
ENDBRANCH  23  33
ENDBRANCH  20  23
ENDBRANCH   3  20
TORSDOF 13
