REMARK  Name = 425841
REMARK  5 active torsions:
REMARK  status: ('A' for Active; 'I' for Inactive)
REMARK    1  A    between atoms: N_1  and  C_3
REMARK    2  A    between atoms: N_1  and  C_17
REMARK    3  A    between atoms: C_3  and  N_6
REMARK    4  A    between atoms: N_6  and  C_9
REMARK    5  A    between atoms: C_15  and  C_24
REMARK                            x       y       z     vdW  Elec       q    Type
REMARK                         _______ _______ _______ _____ _____    ______ ____
ROOT
ATOM      1  N   UNL     1       1.238  -0.283   0.663  0.00  0.00    -0.211 NA
ENDROOT
BRANCH   1   5
ATOM      2 CL   UNL     1       1.300   2.699   0.110  0.00  0.00    -0.081 Cl
ATOM      3  C   UNL     1      -2.380   0.081   0.063  0.00  0.00    +0.073 C 
ATOM      4  C   UNL     1      -1.139  -0.485   0.353  0.00  0.00    +0.024 C 
ATOM      5  C   UNL     1       0.002   0.315   0.369  0.00  0.00    +0.095 C 
ATOM      6  C   UNL     1      -2.478   1.446  -0.210  0.00  0.00    +0.005 C 
ATOM      7  C   UNL     1      -0.093   1.678   0.096  0.00  0.00    +0.075 C 
ATOM      8  C   UNL     1      -1.335   2.244  -0.193  0.00  0.00    +0.013 C 
BRANCH   3  12
ATOM      9  F   UNL     1      -4.746  -0.086  -0.252  0.00  0.00    -0.166 F 
ATOM     10  F   UNL     1      -3.549  -1.787  -0.867  0.00  0.00    -0.166 F 
ATOM     11  F   UNL     1      -3.840  -1.374   1.248  0.00  0.00    -0.166 F 
ATOM     12  C   UNL     1      -3.603  -0.772   0.046  0.00  0.00    +0.419 C 
ENDBRANCH   3  12
ENDBRANCH   1   5
BRANCH   1  14
ATOM     13  N   UNL     1       1.631  -0.773  -1.656  0.00  0.00    -0.368 N 
ATOM     14  C   UNL     1       1.955  -0.762  -0.315  0.00  0.00    +0.225 C 
ATOM     15  H   UNL     1       0.784  -0.375  -1.961  0.00  0.00    +0.159 HD
ATOM     16  H   UNL     1       2.247  -1.179  -2.308  0.00  0.00    +0.159 HD
BRANCH  14  17
ATOM     17  N   UNL     1       3.152  -1.330   0.074  0.00  0.00    -0.180 NA
BRANCH  17  20
ATOM     18  N   UNL     1       5.427  -1.051   0.503  0.00  0.00    -0.370 N 
ATOM     19  N   UNL     1       4.255   0.794  -0.159  0.00  0.00    -0.370 N 
ATOM     20  C   UNL     1       4.203  -0.552   0.127  0.00  0.00    +0.196 C 
ATOM     21  H   UNL     1       5.521  -2.003   0.734  0.00  0.00    +0.159 HD
ATOM     22  H   UNL     1       6.210  -0.455   0.542  0.00  0.00    +0.159 HD
ATOM     23  H   UNL     1       3.440   1.269  -0.441  0.00  0.00    +0.159 HD
ATOM     24  H   UNL     1       5.107   1.281  -0.082  0.00  0.00    +0.159 HD
ENDBRANCH  17  20
ENDBRANCH  14  17
ENDBRANCH   1  14
TORSDOF 5
