REMARK  Name = 4369
REMARK  7 active torsions:
REMARK  status: ('A' for Active; 'I' for Inactive)
REMARK    1  A    between atoms: S_1  and  C_5
REMARK    2  A    between atoms: S_1  and  C_17
REMARK    3  A    between atoms: C_5  and  C_10
REMARK    4  A    between atoms: C_10  and  C_13
REMARK    5  A    between atoms: N_12  and  O_15
REMARK    6  A    between atoms: C_22  and  O_23
REMARK    7  A    between atoms: O_23  and  C_24
REMARK                            x       y       z     vdW  Elec       q    Type
REMARK                         _______ _______ _______ _____ _____    ______ ____
ROOT
ATOM      1  S   UNL     1       2.058  -1.601  -0.896  0.00  0.00    +0.006 S 
ATOM      2  O   UNL     1       2.713  -2.620  -0.113  0.00  0.00    -0.169 OA
ATOM      3  O   UNL     1       2.153  -1.577  -2.336  0.00  0.00    -0.169 OA
ENDROOT
BRANCH   1   5
ATOM      4  O   UNL     1       4.755  -0.393   1.651  0.00  0.00    -0.354 OA
ATOM      5  C   UNL     1       2.650  -0.007  -0.316  0.00  0.00    +0.128 C 
ATOM      6  C   UNL     1       4.147   0.144  -0.640  0.00  0.00    +0.055 C 
ATOM      7  C   UNL     1       2.421   0.115   1.201  0.00  0.00    +0.055 C 
ATOM      8  C   UNL     1       5.031  -0.687   0.284  0.00  0.00    +0.144 C 
ATOM      9  C   UNL     1       3.413  -0.715   2.010  0.00  0.00    +0.144 C 
BRANCH   5  10
ATOM     10  C   UNL     1       1.845   1.073  -1.054  0.00  0.00    +0.110 C 
BRANCH  10  13
ATOM     11  O   UNL     1       3.151   3.102  -1.227  0.00  0.00    -0.273 OA
ATOM     12  N   UNL     1       1.539   2.916   0.418  0.00  0.00    -0.197 N 
ATOM     13  C   UNL     1       2.270   2.466  -0.655  0.00  0.00    +0.246 C 
ATOM     14  H   UNL     1       0.841   2.366   0.843  0.00  0.00    +0.182 HD
BRANCH  12  15
ATOM     15  O   UNL     1       1.849   4.206   0.869  0.00  0.00    -0.295 OA
ATOM     16  H   UNL     1       1.282   4.429   1.624  0.00  0.00    +0.241 HD
ENDBRANCH  12  15
ENDBRANCH  10  13
ENDBRANCH   5  10
ENDBRANCH   1   5
BRANCH   1  17
ATOM     17  C   UNL     1       0.357  -1.583  -0.440  0.00  0.00    +0.106 C 
ATOM     18  C   UNL     1      -0.583  -1.083  -1.331  0.00  0.00    +0.021 C 
ATOM     19  C   UNL     1      -0.022  -2.068   0.803  0.00  0.00    +0.021 C 
ATOM     20  C   UNL     1      -1.930  -1.069  -0.969  0.00  0.00    +0.039 C 
ATOM     21  C   UNL     1      -1.369  -2.053   1.164  0.00  0.00    +0.039 C 
ATOM     22  C   UNL     1      -2.323  -1.553   0.278  0.00  0.00    +0.145 C 
BRANCH  22  23
ATOM     23  O   UNL     1      -3.638  -1.540   0.630  0.00  0.00    -0.453 OA
BRANCH  23  24
ATOM     24  C   UNL     1      -4.362  -0.389   0.369  0.00  0.00    +0.145 C 
ATOM     25  C   UNL     1      -3.808   0.840   0.679  0.00  0.00    +0.037 C 
ATOM     26  C   UNL     1      -5.621  -0.497  -0.192  0.00  0.00    +0.037 C 
ATOM     27  C   UNL     1      -4.537   2.000   0.418  0.00  0.00    +0.003 C 
ATOM     28  C   UNL     1      -6.351   0.663  -0.454  0.00  0.00    +0.003 C 
ATOM     29  C   UNL     1      -5.809   1.911  -0.149  0.00  0.00    +0.000 C 
ENDBRANCH  23  24
ENDBRANCH  22  23
ENDBRANCH   1  17
TORSDOF 7
