REMARK  Name = 3245
REMARK  9 active torsions:
REMARK  status: ('A' for Active; 'I' for Inactive)
REMARK    1  A    between atoms: N_1  and  C_9
REMARK    2  A    between atoms: N_2  and  C_20
REMARK    3  A    between atoms: C_9  and  C_10
REMARK    4  A    between atoms: C_10  and  C_13
REMARK    5  A    between atoms: C_13  and  C_14
REMARK    6  A    between atoms: C_20  and  C_21
REMARK    7  A    between atoms: C_21  and  C_22
REMARK    8  A    between atoms: C_21  and  O_28
REMARK    9  A    between atoms: O_28  and  C_29
REMARK                            x       y       z     vdW  Elec       q    Type
REMARK                         _______ _______ _______ _____ _____    ______ ____
ROOT
ATOM      1  N   UNL     1      -1.323  -1.072   0.209  0.00  0.00    +0.384 N 
ATOM      2  N   UNL     1       1.435  -0.319  -0.223  0.00  0.00    +0.386 N 
ATOM      3  C   UNL     1      -0.444  -0.719   1.331  0.00  0.00    -0.101 C 
ATOM      4  C   UNL     1      -0.908  -0.364  -1.009  0.00  0.00    -0.101 C 
ATOM      5  C   UNL     1       1.019  -1.026   0.995  0.00  0.00    -0.101 C 
ATOM      6  C   UNL     1       0.556  -0.669  -1.345  0.00  0.00    -0.101 C 
ATOM      7  H   UNL     1      -1.243  -2.075   0.041  0.00  0.00    -0.080 HD
ATOM      8  H   UNL     1       1.356   0.684  -0.055  0.00  0.00    -0.080 HD
ENDROOT
BRANCH   1   9
ATOM      9  C   UNL     1      -2.718  -0.778   0.530  0.00  0.00    -0.070 C 
BRANCH   9  10
ATOM     10  C   UNL     1      -3.685  -1.653  -0.281  0.00  0.00    +0.041 C 
ATOM     11  C   UNL     1      -3.429  -3.149  -0.063  0.00  0.00    +0.006 C 
BRANCH  10  13
ATOM     12  O   UNL     1      -5.858  -2.168   0.629  0.00  0.00    -0.291 OA
ATOM     13  C   UNL     1      -5.121  -1.320   0.127  0.00  0.00    +0.171 C 
BRANCH  13  14
ATOM     14  C   UNL     1      -5.647   0.063  -0.072  0.00  0.00    +0.035 C 
ATOM     15  C   UNL     1      -5.164   0.849  -1.118  0.00  0.00    +0.003 C 
ATOM     16  C   UNL     1      -6.622   0.568   0.788  0.00  0.00    +0.003 C 
ATOM     17  C   UNL     1      -5.655   2.141  -1.304  0.00  0.00    +0.000 C 
ATOM     18  C   UNL     1      -7.114   1.860   0.602  0.00  0.00    +0.000 C 
ATOM     19  C   UNL     1      -6.630   2.647  -0.444  0.00  0.00    +0.000 C 
ENDBRANCH  13  14
ENDBRANCH  10  13
ENDBRANCH   9  10
ENDBRANCH   1   9
BRANCH   2  20
ATOM     20  C   UNL     1       2.830  -0.614  -0.544  0.00  0.00    -0.043 C 
BRANCH  20  21
ATOM     21  C   UNL     1       3.778   0.197   0.346  0.00  0.00    +0.117 C 
BRANCH  21  22
ATOM     22  C   UNL     1       5.227  -0.098   0.026  0.00  0.00    +0.002 C 
ATOM     23  C   UNL     1       5.897   0.658  -0.936  0.00  0.00    -0.002 C 
ATOM     24  C   UNL     1       5.893  -1.126   0.693  0.00  0.00    -0.002 C 
ATOM     25  C   UNL     1       7.233   0.386  -1.232  0.00  0.00    -0.000 C 
ATOM     26  C   UNL     1       7.229  -1.399   0.397  0.00  0.00    -0.000 C 
ATOM     27  C   UNL     1       7.899  -0.643  -0.565  0.00  0.00    -0.000 C 
ENDBRANCH  21  22
BRANCH  21  28
ATOM     28  O   UNL     1       3.556   1.595   0.161  0.00  0.00    -0.354 OA
BRANCH  28  29
ATOM     29  C   UNL     1       4.015   2.342   1.277  0.00  0.00    +0.142 C 
ATOM     30  C   UNL     1       3.754   3.812   1.026  0.00  0.00    +0.035 C 
ENDBRANCH  28  29
ENDBRANCH  21  28
ENDBRANCH  20  21
ENDBRANCH   2  20
TORSDOF 9
