REMARK  Name = 115368
REMARK  5 active torsions:
REMARK  status: ('A' for Active; 'I' for Inactive)
REMARK    1  A    between atoms: N_2  and  C_17
REMARK    2  A    between atoms: C_17  and  C_18
REMARK    3  A    between atoms: C_18  and  C_19
REMARK    4  A    between atoms: C_19  and  C_20
REMARK    5  A    between atoms: C_20  and  N_23
REMARK                            x       y       z     vdW  Elec       q    Type
REMARK                         _______ _______ _______ _____ _____    ______ ____
ROOT
ATOM      1  S   UNL     1       7.851  -1.205  -0.146  0.00  0.00    +0.014 S 
ATOM      2  N   UNL     1       1.236  -1.436  -0.075  0.00  0.00    +0.389 N 
ATOM      3  N   UNL     1       4.079  -1.159   0.021  0.00  0.00    -0.297 N 
ATOM      4  N   UNL     1       6.347  -1.894  -0.069  0.00  0.00    -0.194 NA
ATOM      5  C   UNL     1       1.854  -0.308   0.632  0.00  0.00    -0.055 C 
ATOM      6  C   UNL     1       2.067  -1.833  -1.220  0.00  0.00    -0.055 C 
ATOM      7  C   UNL     1       3.257  -0.666   1.131  0.00  0.00    +0.069 C 
ATOM      8  C   UNL     1       3.465  -2.243  -0.755  0.00  0.00    +0.069 C 
ATOM      9  C   UNL     1       5.434  -0.921  -0.042  0.00  0.00    +0.140 A 
ATOM     10  C   UNL     1       5.920   0.432  -0.081  0.00  0.00    +0.040 A 
ATOM     11  C   UNL     1       7.315   0.430  -0.144  0.00  0.00    +0.050 A 
ATOM     12  C   UNL     1       5.249   1.675  -0.068  0.00  0.00    +0.003 C 
ATOM     13  C   UNL     1       8.063   1.616  -0.193  0.00  0.00    +0.008 C 
ATOM     14  C   UNL     1       5.985   2.862  -0.117  0.00  0.00    +0.000 C 
ATOM     15  C   UNL     1       7.374   2.831  -0.178  0.00  0.00    +0.001 C 
ATOM     16  H   UNL     1       1.168  -2.226   0.567  0.00  0.00    -0.080 HD
ENDROOT
BRANCH   2  17
ATOM     17  C   UNL     1      -0.115  -1.089  -0.516  0.00  0.00    -0.077 C 
BRANCH  17  18
ATOM     18  C   UNL     1      -0.997  -0.756   0.686  0.00  0.00    -0.021 C 
BRANCH  18  19
ATOM     19  C   UNL     1      -2.420  -0.398   0.245  0.00  0.00    +0.020 C 
BRANCH  19  20
ATOM     20  C   UNL     1      -3.339  -0.091   1.423  0.00  0.00    +0.101 C 
BRANCH  20  23
ATOM     21  O   UNL     1      -5.616  -1.925   0.968  0.00  0.00    -0.274 OA
ATOM     22  O   UNL     1      -4.448   2.545   0.773  0.00  0.00    -0.274 OA
ATOM     23  N   UNL     1      -4.689   0.227   1.002  0.00  0.00    -0.230 N 
ATOM     24  C   UNL     1      -6.973   0.067   0.630  0.00  0.00    +0.086 C 
ATOM     25  C   UNL     1      -6.474   1.407   0.077  0.00  0.00    +0.086 C 
ATOM     26  C   UNL     1      -8.018  -0.659  -0.208  0.00  0.00    +0.010 C 
ATOM     27  C   UNL     1      -6.347   1.462  -1.449  0.00  0.00    +0.010 C 
ATOM     28  C   UNL     1      -7.740  -0.603  -1.704  0.00  0.00    +0.001 C 
ATOM     29  C   UNL     1      -7.534   0.834  -2.164  0.00  0.00    +0.001 C 
ATOM     30  C   UNL     1      -5.695  -0.711   0.863  0.00  0.00    +0.231 C 
ATOM     31  C   UNL     1      -5.090   1.509   0.678  0.00  0.00    +0.231 C 
ENDBRANCH  20  23
ENDBRANCH  19  20
ENDBRANCH  18  19
ENDBRANCH  17  18
ENDBRANCH   2  17
TORSDOF 5
