REMARK  Name = 11984575
REMARK  3 active torsions:
REMARK  status: ('A' for Active; 'I' for Inactive)
REMARK    1  A    between atoms: C_3  and  S_17
REMARK    2  A    between atoms: C_5  and  C_14
REMARK    3  A    between atoms: S_17  and  N_20
REMARK                            x       y       z     vdW  Elec       q    Type
REMARK                         _______ _______ _______ _____ _____    ______ ____
ROOT
ATOM      1 BR   UNL     1      -4.623   2.703   0.267  0.00  0.00    -0.049 Br
ATOM      2  N   UNL     1      -1.098  -2.103  -0.517  0.00  0.00    -0.348 N 
ATOM      3  C   UNL     1      -0.149  -0.401   0.421  0.00  0.00    +0.143 A 
ATOM      4  C   UNL     1      -1.460  -0.014   0.176  0.00  0.00    +0.036 A 
ATOM      5  C   UNL     1       0.084  -1.656   0.010  0.00  0.00    +0.129 A 
ATOM      6  C   UNL     1      -2.059  -1.121  -0.428  0.00  0.00    +0.058 A 
ATOM      7  C   UNL     1      -2.234   1.145   0.388  0.00  0.00    +0.010 C 
ATOM      8  C   UNL     1      -3.398  -1.128  -0.833  0.00  0.00    +0.018 C 
ATOM      9  C   UNL     1      -3.575   1.152  -0.012  0.00  0.00    +0.035 C 
ATOM     10  C   UNL     1      -4.146   0.032  -0.613  0.00  0.00    +0.008 C 
ATOM     11  H   UNL     1      -1.241  -2.998  -0.902  0.00  0.00    +0.166 HD
ENDROOT
BRANCH   5  14
ATOM     12  O   UNL     1       2.348  -2.060   0.559  0.00  0.00    -0.269 OA
ATOM     13  N   UNL     1       1.205  -3.752  -0.456  0.00  0.00    -0.324 N 
ATOM     14  C   UNL     1       1.270  -2.454   0.061  0.00  0.00    +0.260 C 
ATOM     15  H   UNL     1       2.003  -4.329  -0.437  0.00  0.00    +0.145 HD
ATOM     16  H   UNL     1       0.363  -4.088  -0.838  0.00  0.00    +0.145 HD
ENDBRANCH   5  14
BRANCH   3  17
ATOM     17  S   UNL     1       1.064   0.636   1.183  0.00  0.00    +0.065 S 
ATOM     18  O   UNL     1       0.466   1.947   1.361  0.00  0.00    -0.153 OA
ATOM     19  O   UNL     1       1.604  -0.085   2.322  0.00  0.00    -0.153 OA
BRANCH  17  20
ATOM     20  N   UNL     1       2.231   0.705  -0.049  0.00  0.00    -0.155 NA
ATOM     21  C   UNL     1       1.826   1.266  -1.371  0.00  0.00    +0.096 C 
ATOM     22  C   UNL     1       3.576   1.238   0.299  0.00  0.00    +0.096 C 
ATOM     23  C   UNL     1       2.924   2.256  -1.735  0.00  0.00    +0.021 C 
ATOM     24  C   UNL     1       4.146   1.695  -1.034  0.00  0.00    +0.021 C 
ENDBRANCH  17  20
ENDBRANCH   3  17
TORSDOF 3
