REMARK  Name = 24882195
REMARK  2 active torsions:
REMARK  status: ('A' for Active; 'I' for Inactive)
REMARK    1  A    between atoms: C_5  and  N_15
REMARK    2  A    between atoms: N_15  and  C_21
REMARK                            x       y       z     vdW  Elec       q    Type
REMARK                         _______ _______ _______ _____ _____    ______ ____
ROOT
ATOM      1  C   UNL     1      -1.667  -0.277  -0.072  0.00  0.00    +0.001 C 
ATOM      2  C   UNL     1      -2.340  -1.396   0.465  0.00  0.00    +0.000 C 
ATOM      3  C   UNL     1      -3.818   0.826  -0.470  0.00  0.00    +0.000 C 
ATOM      4  C   UNL     1      -4.492  -0.293   0.067  0.00  0.00    +0.000 C 
ATOM      5  C   UNL     1       0.465  -1.381   0.327  0.00  0.00    +0.049 C 
ATOM      6  C   UNL     1      -2.415   0.819  -0.533  0.00  0.00    +0.000 C 
ATOM      7  C   UNL     1      -0.264  -0.285  -0.135  0.00  0.00    +0.015 C 
ATOM      8  C   UNL     1      -3.744  -1.390   0.528  0.00  0.00    +0.000 C 
ATOM      9  C   UNL     1      -1.592  -2.492   0.926  0.00  0.00    +0.001 C 
ATOM     10  C   UNL     1      -0.198  -2.484   0.857  0.00  0.00    +0.015 C 
ATOM     11  C   UNL     1      -4.567   1.921  -0.931  0.00  0.00    +0.000 C 
ATOM     12  C   UNL     1      -5.895  -0.286   0.130  0.00  0.00    +0.000 C 
ATOM     13  C   UNL     1      -5.960   1.913  -0.862  0.00  0.00    +0.000 C 
ATOM     14  C   UNL     1      -6.623   0.811  -0.332  0.00  0.00    +0.000 C 
ENDROOT
BRANCH   5  15
ATOM     15  N   UNL     1       1.874  -1.372   0.257  0.00  0.00    -0.299 N 
ATOM     16  H   UNL     1       2.302  -2.252   0.150  0.00  0.00    +0.153 HD
BRANCH  15  21
ATOM     17  N   UNL     1       3.927  -0.411  -0.375  0.00  0.00    -0.106 N 
ATOM     18  N   UNL     1       4.636   1.783   0.307  0.00  0.00    -0.340 NA
ATOM     19  N   UNL     1       4.403  -1.438  -1.127  0.00  0.00    -0.139 NA
ATOM     20  N   UNL     1       5.906   0.272  -1.103  0.00  0.00    -0.145 NA
ATOM     21  C   UNL     1       2.714  -0.316   0.319  0.00  0.00    +0.138 C 
ATOM     22  C   UNL     1       2.458   0.811   1.001  0.00  0.00    +0.061 C 
ATOM     23  C   UNL     1       4.865   0.626  -0.376  0.00  0.00    +0.174 C 
ATOM     24  C   UNL     1       3.510   1.871   0.951  0.00  0.00    +0.125 C 
ATOM     25  C   UNL     1       3.236   3.142   1.714  0.00  0.00    +0.068 C 
ATOM     26  C   UNL     1       5.580  -0.973  -1.532  0.00  0.00    +0.230 C 
ENDBRANCH  15  21
ENDBRANCH   5  15
TORSDOF 2
