REMARK  Name = 129539
REMARK  6 active torsions:
REMARK  status: ('A' for Active; 'I' for Inactive)
REMARK    1  A    between atoms: C_3  and  C_11
REMARK    2  A    between atoms: C_4  and  O_14
REMARK    3  A    between atoms: O_14  and  C_15
REMARK    4  A    between atoms: C_15  and  C_16
REMARK    5  A    between atoms: C_16  and  C_17
REMARK    6  A    between atoms: C_17  and  C_20
REMARK                            x       y       z     vdW  Elec       q    Type
REMARK                         _______ _______ _______ _____ _____    ______ ____
ROOT
ATOM      1 CL   UNL     1      -0.838   2.610  -0.737  0.00  0.00    -0.079 Cl
ATOM      2 CL   UNL     1      -0.843  -2.820  -0.438  0.00  0.00    -0.079 Cl
ATOM      3  C   UNL     1      -3.725  -0.075  -0.096  0.00  0.00    +0.055 C 
ATOM      4  C   UNL     1      -0.975  -0.104  -0.564  0.00  0.00    +0.159 C 
ATOM      5  C   UNL     1      -3.036   1.124  -0.279  0.00  0.00    +0.019 C 
ATOM      6  C   UNL     1      -3.038  -1.288  -0.147  0.00  0.00    +0.019 C 
ATOM      7  C   UNL     1      -1.661   1.110  -0.513  0.00  0.00    +0.093 C 
ATOM      8  C   UNL     1      -1.663  -1.303  -0.381  0.00  0.00    +0.093 C 
ENDROOT
BRANCH   3  11
ATOM      9  O   UNL     1      -5.728   1.175   0.185  0.00  0.00    -0.458 OA
ATOM     10  N   UNL     1      -5.927  -1.098   0.337  0.00  0.00    -0.234 NA
ATOM     11  C   UNL     1      -5.174  -0.060   0.151  0.00  0.00    +0.220 C 
ATOM     12  C   UNL     1      -7.054   0.958   0.641  0.00  0.00    +0.233 C 
ATOM     13  C   UNL     1      -7.273  -0.526   0.459  0.00  0.00    +0.176 C 
ENDBRANCH   3  11
BRANCH   4  14
ATOM     14  O   UNL     1       0.371  -0.117  -0.792  0.00  0.00    -0.474 OA
BRANCH  14  15
ATOM     15  C   UNL     1       1.220  -0.056   0.350  0.00  0.00    +0.206 C 
BRANCH  15  16
ATOM     16  C   UNL     1       2.671  -0.061  -0.113  0.00  0.00    +0.055 C 
BRANCH  16  17
ATOM     17  C   UNL     1       3.639  -0.013   1.069  0.00  0.00    +0.071 C 
BRANCH  17  20
ATOM     18  O   UNL     1       5.573   1.256   0.415  0.00  0.00    -0.358 OA
ATOM     19  N   UNL     1       6.890   1.117  -0.006  0.00  0.00    -0.082 NA
ATOM     20  C   UNL     1       5.074   0.027   0.607  0.00  0.00    +0.154 C 
ATOM     21  C   UNL     1       5.971  -0.937   0.343  0.00  0.00    +0.054 C 
ATOM     22  C   UNL     1       7.105  -0.201  -0.041  0.00  0.00    +0.101 C 
ATOM     23  C   UNL     1       8.420  -0.718  -0.451  0.00  0.00    +0.056 C 
ENDBRANCH  17  20
ENDBRANCH  16  17
ENDBRANCH  15  16
ENDBRANCH  14  15
ENDBRANCH   4  14
TORSDOF 6
