REMARK  Name = 5327097
REMARK  4 active torsions:
REMARK  status: ('A' for Active; 'I' for Inactive)
REMARK    1  A    between atoms: C_1  and  N_8
REMARK    2  A    between atoms: C_2  and  S_17
REMARK    3  A    between atoms: C_10  and  C_14
REMARK    4  A    between atoms: S_17  and  N_20
REMARK                            x       y       z     vdW  Elec       q    Type
REMARK                         _______ _______ _______ _____ _____    ______ ____
ROOT
ATOM      1  C   UNL     1       0.674   0.864  -0.137  0.00  0.00    +0.050 C 
ATOM      2  C   UNL     1       3.314  -0.019   0.045  0.00  0.00    +0.122 C 
ATOM      3  C   UNL     1       1.694   1.770   0.153  0.00  0.00    +0.016 C 
ATOM      4  C   UNL     1       0.974  -0.484  -0.335  0.00  0.00    +0.016 C 
ATOM      5  C   UNL     1       3.014   1.329   0.244  0.00  0.00    +0.021 C 
ATOM      6  C   UNL     1       2.294  -0.925  -0.244  0.00  0.00    +0.021 C 
ENDROOT
BRANCH   1   8
ATOM      7  S   UNL     1      -3.311   1.404  -0.428  0.00  0.00    -0.056 S 
ATOM      8  N   UNL     1      -0.660   1.310  -0.230  0.00  0.00    -0.293 N 
ATOM      9  N   UNL     1      -1.899  -0.624   0.331  0.00  0.00    -0.223 NA
ATOM     10  C   UNL     1      -4.139  -0.037  -0.007  0.00  0.00    +0.029 C 
ATOM     11  C   UNL     1      -1.831   0.620  -0.075  0.00  0.00    +0.163 C 
ATOM     12  C   UNL     1      -3.227  -1.001   0.370  0.00  0.00    +0.103 C 
ATOM     13  H   UNL     1      -0.766   2.267  -0.439  0.00  0.00    +0.154 HD
BRANCH  10  14
ATOM     14  C   UNL     1      -5.611  -0.106  -0.077  0.00  0.00    +0.030 C 
ATOM     15  C   UNL     1      -6.276  -0.360   1.297  0.00  0.00    +0.005 C 
ATOM     16  C   UNL     1      -6.125  -1.153  -1.094  0.00  0.00    +0.005 C 
ENDBRANCH  10  14
ENDBRANCH   1   8
BRANCH   2  17
ATOM     17  S   UNL     1       4.967  -0.572   0.160  0.00  0.00    +0.057 S 
ATOM     18  O   UNL     1       5.706   0.361   0.999  0.00  0.00    -0.153 OA
ATOM     19  O   UNL     1       4.958  -1.990   0.489  0.00  0.00    -0.153 OA
BRANCH  17  20
ATOM     20  N   UNL     1       5.484  -0.387  -1.458  0.00  0.00    -0.203 NA
ATOM     21  H   UNL     1       6.458  -0.680  -1.539  0.00  0.00    +0.144 HD
ATOM     22  H   UNL     1       5.400   0.592  -1.732  0.00  0.00    +0.144 HD
ENDBRANCH  17  20
ENDBRANCH   2  17
TORSDOF 4
