REMARK  Name = 446744
REMARK  2 active torsions:
REMARK  status: ('A' for Active; 'I' for Inactive)
REMARK    1  A    between atoms: C_1  and  C_8
REMARK    2  A    between atoms: C_1  and  N_18
REMARK                            x       y       z     vdW  Elec       q    Type
REMARK                         _______ _______ _______ _____ _____    ______ ____
ROOT
ATOM      1  C   UNL     1       0.793   0.247   1.928  0.00  0.00    +0.152 C 
ENDROOT
BRANCH   1   8
ATOM      2  N   UNL     1      -1.023   0.779   0.412  0.00  0.00    -0.392 NA
ATOM      3  N   UNL     1      -2.876  -0.417   2.083  0.00  0.00    -0.200 NA
ATOM      4  N   UNL     1      -4.576   0.114   0.603  0.00  0.00    -0.271 NA
ATOM      5  N   UNL     1      -4.113   1.289  -1.436  0.00  0.00    -0.310 NA
ATOM      6  N   UNL     1      -1.892   1.915  -1.945  0.00  0.00    -0.329 N 
ATOM      7  N   UNL     1      -6.300   0.651  -0.896  0.00  0.00    -0.283 N 
ATOM      8  C   UNL     1      -0.657   0.212   1.568  0.00  0.00    +0.133 C 
ATOM      9  C   UNL     1      -1.567  -0.379   2.395  0.00  0.00    +0.193 C 
ATOM     10  C   UNL     1      -2.333   0.740   0.101  0.00  0.00    +0.248 C 
ATOM     11  C   UNL     1      -3.279   0.140   0.934  0.00  0.00    +0.131 C 
ATOM     12  C   UNL     1      -2.819   1.294  -1.067  0.00  0.00    +0.231 C 
ATOM     13  C   UNL     1      -4.929   0.688  -0.563  0.00  0.00    +0.207 C 
ATOM     14  H   UNL     1      -2.206   2.319  -2.786  0.00  0.00    +0.145 HD
ATOM     15  H   UNL     1      -0.936   1.941  -1.713  0.00  0.00    +0.145 HD
ATOM     16  H   UNL     1      -6.943   0.221  -0.288  0.00  0.00    +0.156 HD
ATOM     17  H   UNL     1      -6.613   1.056  -1.737  0.00  0.00    +0.156 HD
ENDBRANCH   1   8
BRANCH   1  18
ATOM     18  N   UNL     1       1.593  -0.116   0.750  0.00  0.00    -0.280 N 
ATOM     19  C   UNL     1       1.342  -1.391   0.185  0.00  0.00    +0.052 C 
ATOM     20  C   UNL     1       2.713   0.708   0.469  0.00  0.00    +0.052 C 
ATOM     21  C   UNL     1       1.467  -1.648  -1.196  0.00  0.00    +0.014 C 
ATOM     22  C   UNL     1       3.165   0.953  -0.843  0.00  0.00    +0.014 C 
ATOM     23  C   UNL     1       1.738  -0.614  -2.200  0.00  0.00    +0.001 C 
ATOM     24  C   UNL     1       2.465   0.498  -2.050  0.00  0.00    +0.001 C 
ATOM     25  C   UNL     1       0.976  -2.477   1.017  0.00  0.00    +0.015 C 
ATOM     26  C   UNL     1       3.442   1.300   1.529  0.00  0.00    +0.015 C 
ATOM     27  C   UNL     1       1.216  -2.943  -1.695  0.00  0.00    +0.001 C 
ATOM     28  C   UNL     1       4.294   1.771  -1.056  0.00  0.00    +0.001 C 
ATOM     29  C   UNL     1       0.741  -3.756   0.510  0.00  0.00    +0.001 C 
ATOM     30  C   UNL     1       4.564   2.099   1.304  0.00  0.00    +0.001 C 
ATOM     31  C   UNL     1       0.863  -3.990  -0.849  0.00  0.00    +0.000 C 
ATOM     32  C   UNL     1       4.992   2.334   0.008  0.00  0.00    +0.000 C 
ENDBRANCH   1  18
TORSDOF 2
