REMARK  Name = 446309
REMARK  3 active torsions:
REMARK  status: ('A' for Active; 'I' for Inactive)
REMARK    1  A    between atoms: S_1  and  C_5
REMARK    2  A    between atoms: S_1  and  C_12
REMARK    3  A    between atoms: C_12  and  C_16
REMARK                            x       y       z     vdW  Elec       q    Type
REMARK                         _______ _______ _______ _____ _____    ______ ____
ROOT
ATOM      1  S   UNL     1      -1.351  -2.425  -0.704  0.00  0.00    -0.013 S 
ENDROOT
BRANCH   1   5
ATOM      2 CL   UNL     1      -3.440   1.045   2.631  0.00  0.00    -0.051 Cl
ATOM      3  N   UNL     1      -2.034   0.042  -1.463  0.00  0.00    -0.324 NA
ATOM      4  N   UNL     1      -2.422  -0.533   0.845  0.00  0.00    -0.327 NA
ATOM      5  C   UNL     1      -2.008  -0.792  -0.408  0.00  0.00    +0.170 C 
ATOM      6  C   UNL     1      -2.535   1.268  -1.203  0.00  0.00    +0.175 C 
ATOM      7  C   UNL     1      -2.993   1.661   0.037  0.00  0.00    +0.147 C 
ATOM      8  C   UNL     1      -2.912   0.710   1.034  0.00  0.00    +0.187 C 
ATOM      9  N   UNL     1      -2.601   2.215  -2.254  0.00  0.00    -0.335 N 
ATOM     10  H   UNL     1      -2.285   1.974  -3.155  0.00  0.00    +0.144 HD
ATOM     11  H   UNL     1      -2.964   3.114  -2.084  0.00  0.00    +0.144 HD
ENDBRANCH   1   5
BRANCH   1  12
ATOM     12  C   UNL     1       0.060  -2.446   0.470  0.00  0.00    +0.099 C 
ATOM     13  C   UNL     1       0.659  -3.862   0.481  0.00  0.00    +0.019 C 
BRANCH  12  16
ATOM     14  O   UNL     1       3.691   1.558  -0.615  0.00  0.00    -0.453 OA
ATOM     15  N   UNL     1       1.665  -1.440  -1.033  0.00  0.00    -0.270 NA
ATOM     16  C   UNL     1       1.045  -1.363   0.171  0.00  0.00    +0.047 C 
ATOM     17  C   UNL     1       2.190   0.612   0.784  0.00  0.00    +0.019 C 
ATOM     18  C   UNL     1       1.255  -0.373   1.125  0.00  0.00    +0.071 C 
ATOM     19  C   UNL     1       2.820   0.525  -0.452  0.00  0.00    +0.144 C 
ATOM     20  C   UNL     1       2.570  -0.487  -1.363  0.00  0.00    +0.188 C 
ATOM     21  C   UNL     1       2.718   1.775   1.403  0.00  0.00    +0.039 C 
ATOM     22  C   UNL     1       3.623   2.311   0.514  0.00  0.00    +0.179 C 
ENDBRANCH  12  16
ENDBRANCH   1  12
TORSDOF 3
