REMARK  Name = 11963551
REMARK  2 active torsions:
REMARK  status: ('A' for Active; 'I' for Inactive)
REMARK    1  A    between atoms: C_15  and  O_21
REMARK    2  A    between atoms: C_19  and  O_23
REMARK                            x       y       z     vdW  Elec       q    Type
REMARK                         _______ _______ _______ _____ _____    ______ ____
ROOT
ATOM      1 CL   UNL     1       2.270  -3.014   0.547  0.00  0.00    -0.079 Cl
ATOM      2  O   UNL     1      -0.822   1.532  -0.102  0.00  0.00    -0.445 OA
ATOM      3  O   UNL     1      -0.678  -1.693  -1.042  0.00  0.00    -0.296 OA
ATOM      4  O   UNL     1       0.514   2.915   1.183  0.00  0.00    -0.245 OA
ATOM      5  C   UNL     1      -3.316  -2.448  -0.294  0.00  0.00    +0.012 C 
ATOM      6  C   UNL     1      -2.199  -2.267   0.734  0.00  0.00    +0.065 C 
ATOM      7  C   UNL     1       0.027  -1.064   1.180  0.00  0.00    +0.092 C 
ATOM      8  C   UNL     1       1.256  -0.453   0.555  0.00  0.00    +0.008 C 
ATOM      9  C   UNL     1      -3.835  -1.146  -0.924  0.00  0.00    +0.026 C 
ATOM     10  C   UNL     1      -0.929  -1.661   0.162  0.00  0.00    +0.155 C 
ATOM     11  C   UNL     1       1.377   0.914   0.251  0.00  0.00    +0.107 C 
ATOM     12  C   UNL     1      -4.303  -0.147   0.093  0.00  0.00    -0.031 C 
ATOM     13  C   UNL     1       2.337  -1.300   0.250  0.00  0.00    +0.088 C 
ATOM     14  C   UNL     1      -3.116   1.955  -0.759  0.00  0.00    +0.073 C 
ATOM     15  C   UNL     1       2.558   1.418  -0.311  0.00  0.00    +0.143 C 
ATOM     16  C   UNL     1      -3.977   1.151   0.175  0.00  0.00    -0.027 C 
ATOM     17  C   UNL     1      -1.876   2.511  -0.064  0.00  0.00    +0.213 C 
ATOM     18  C   UNL     1       0.321   1.902   0.530  0.00  0.00    +0.344 C 
ATOM     19  C   UNL     1       3.507  -0.798  -0.322  0.00  0.00    +0.147 C 
ATOM     20  C   UNL     1       3.619   0.561  -0.600  0.00  0.00    +0.074 C 
ENDROOT
BRANCH  15  21
ATOM     21  O   UNL     1       2.701   2.741  -0.616  0.00  0.00    -0.505 OA
ATOM     22  H   UNL     1       2.005   3.341  -0.434  0.00  0.00    +0.292 HD
ENDBRANCH  15  21
BRANCH  19  23
ATOM     23  O   UNL     1       4.563  -1.607  -0.625  0.00  0.00    -0.505 OA
ATOM     24  H   UNL     1       4.514  -2.526  -0.448  0.00  0.00    +0.292 HD
ENDBRANCH  19  23
TORSDOF 2
