REMARK  Name = 10247560
REMARK  5 active torsions:
REMARK  status: ('A' for Active; 'I' for Inactive)
REMARK    1  A    between atoms: C_2  and  C_11
REMARK    2  A    between atoms: C_7  and  C_18
REMARK    3  A    between atoms: C_8  and  O_14
REMARK    4  A    between atoms: C_10  and  O_16
REMARK    5  A    between atoms: C_18  and  C_23
REMARK                            x       y       z     vdW  Elec       q    Type
REMARK                         _______ _______ _______ _____ _____    ______ ____
ROOT
ATOM      1  O   UNL     1       2.957  -0.541   0.206  0.00  0.00    -0.471 OA
ATOM      2  C   UNL     1       2.814  -1.951   0.477  0.00  0.00    +0.117 C 
ATOM      3  C   UNL     1       1.580  -2.350   1.244  0.00  0.00    +0.032 C 
ATOM      4  C   UNL     1       1.863   0.265   0.357  0.00  0.00    +0.246 C 
ATOM      5  C   UNL     1       0.571  -1.509   1.479  0.00  0.00    +0.002 C 
ATOM      6  C   UNL     1       0.678  -0.152   0.968  0.00  0.00    +0.021 C 
ATOM      7  C   UNL     1      -0.386   0.749   1.098  0.00  0.00    -0.015 C 
ATOM      8  C   UNL     1       1.987   1.575  -0.115  0.00  0.00    +0.194 C 
ATOM      9  C   UNL     1      -0.263   2.054   0.619  0.00  0.00    +0.036 C 
ATOM     10  C   UNL     1       0.923   2.466   0.014  0.00  0.00    +0.172 C 
ENDROOT
BRANCH   2  11
ATOM     11  C   UNL     1       2.976  -2.692  -0.824  0.00  0.00    +0.057 C 
ATOM     12  C   UNL     1       4.346  -2.841  -1.391  0.00  0.00    +0.008 C 
ATOM     13  C   UNL     1       3.638  -4.027  -0.803  0.00  0.00    +0.008 C 
ENDBRANCH   2  11
BRANCH   8  14
ATOM     14  O   UNL     1       3.146   1.986  -0.704  0.00  0.00    -0.469 OA
ATOM     15  C   UNL     1       3.832   3.075  -0.091  0.00  0.00    +0.252 C 
ENDBRANCH   8  14
BRANCH  10  16
ATOM     16  O   UNL     1       1.030   3.744  -0.446  0.00  0.00    -0.469 OA
ATOM     17  C   UNL     1       0.634   3.982  -1.796  0.00  0.00    +0.253 C 
ENDBRANCH  10  16
BRANCH   7  18
ATOM     18  C   UNL     1      -1.681   0.366   1.741  0.00  0.00    +0.058 C 
BRANCH  18  23
ATOM     19  N   UNL     1      -4.513   0.095  -0.748  0.00  0.00    -0.323 NA
ATOM     20  N   UNL     1      -3.623  -2.103  -0.319  0.00  0.00    -0.170 NA
ATOM     21  N   UNL     1      -3.592   1.990   0.341  0.00  0.00    -0.332 N 
ATOM     22  N   UNL     1      -5.406  -1.796  -1.812  0.00  0.00    -0.293 N 
ATOM     23  C   UNL     1      -2.701  -0.195   0.773  0.00  0.00    +0.047 C 
ATOM     24  C   UNL     1      -3.602   0.591   0.116  0.00  0.00    +0.188 C 
ATOM     25  C   UNL     1      -2.740  -1.539   0.531  0.00  0.00    +0.112 C 
ATOM     26  C   UNL     1      -4.468  -1.241  -0.915  0.00  0.00    +0.143 C 
ATOM     27  H   UNL     1      -4.237   2.569  -0.126  0.00  0.00    +0.145 HD
ATOM     28  H   UNL     1      -2.940   2.383   0.965  0.00  0.00    +0.145 HD
ATOM     29  H   UNL     1      -6.048  -1.211  -2.277  0.00  0.00    +0.155 HD
ATOM     30  H   UNL     1      -5.419  -2.767  -1.973  0.00  0.00    +0.155 HD
ENDBRANCH  18  23
ENDBRANCH   7  18
TORSDOF 5
