REMARK  Name = 46937179
REMARK  4 active torsions:
REMARK  status: ('A' for Active; 'I' for Inactive)
REMARK    1  A    between atoms: C_3  and  C_12
REMARK    2  A    between atoms: C_4  and  O_10
REMARK    3  A    between atoms: C_5  and  S_8
REMARK    4  A    between atoms: C_12  and  C_14
REMARK                            x       y       z     vdW  Elec       q    Type
REMARK                         _______ _______ _______ _____ _____    ______ ____
ROOT
ATOM      1  N   UNL     1       1.298  -0.616  -0.946  0.00  0.00    -0.310 N 
ATOM      2  N   UNL     1       2.232   0.769   0.517  0.00  0.00    -0.281 N 
ATOM      3  C   UNL     1       0.372   0.361  -0.712  0.00  0.00    +0.077 C 
ATOM      4  C   UNL     1       0.971   1.204   0.195  0.00  0.00    +0.198 C 
ATOM      5  C   UNL     1       2.398  -0.329  -0.186  0.00  0.00    +0.197 C 
ATOM      6  H   UNL     1       1.193  -1.385  -1.552  0.00  0.00    +0.149 HD
ATOM      7  H   UNL     1       2.871   1.186   1.139  0.00  0.00    +0.152 HD
ENDROOT
BRANCH   5   8
ATOM      8  S   UNL     1       3.782  -1.353  -0.221  0.00  0.00    -0.100 S 
ATOM      9  C   UNL     1       4.940  -0.548   0.942  0.00  0.00    +0.072 C 
ENDBRANCH   5   8
BRANCH   4  10
ATOM     10  O   UNL     1       0.376   2.304   0.685  0.00  0.00    -0.494 OA
ATOM     11  H   UNL     1       0.828   2.846   1.302  0.00  0.00    +0.294 HD
ENDBRANCH   4  10
BRANCH   3  12
ATOM     12  C   UNL     1      -0.946   0.373  -1.367  0.00  0.00    +0.078 C 
BRANCH  12  14
ATOM     13  S   UNL     1      -3.458   0.901  -0.256  0.00  0.00    -0.090 S 
ATOM     14  C   UNL     1      -2.095  -0.109  -0.490  0.00  0.00    +0.013 C 
ATOM     15  C   UNL     1      -2.215  -1.304   0.185  0.00  0.00    +0.003 C 
ATOM     16  C   UNL     1      -3.442  -1.391   0.904  0.00  0.00    +0.007 C 
ATOM     17  C   UNL     1      -4.213  -0.260   0.751  0.00  0.00    +0.035 C 
ENDBRANCH  12  14
ENDBRANCH   3  12
TORSDOF 4
