REMARK  Name = 44237094
REMARK  6 active torsions:
REMARK  status: ('A' for Active; 'I' for Inactive)
REMARK    1  A    between atoms: C_6  and  C_18
REMARK    2  A    between atoms: C_7  and  C_14
REMARK    3  A    between atoms: C_14  and  O_15
REMARK    4  A    between atoms: O_15  and  C_16
REMARK    5  A    between atoms: C_18  and  C_24
REMARK    6  A    between atoms: C_19  and  N_20
REMARK                            x       y       z     vdW  Elec       q    Type
REMARK                         _______ _______ _______ _____ _____    ______ ____
ROOT
ATOM      1 CL   UNL     1      -2.971  -2.923   0.255  0.00  0.00    -0.080 Cl
ATOM      2 CL   UNL     1      -5.376  -0.966  -0.526  0.00  0.00    -0.081 Cl
ATOM      3  N   UNL     1      -0.208  -1.257   0.391  0.00  0.00    -0.319 N 
ATOM      4  C   UNL     1      -1.415  -0.675   0.076  0.00  0.00    +0.072 A 
ATOM      5  C   UNL     1      -1.171   0.682  -0.149  0.00  0.00    +0.019 A 
ATOM      6  C   UNL     1       0.224   0.892   0.043  0.00  0.00    +0.034 A 
ATOM      7  C   UNL     1       0.788  -0.318   0.373  0.00  0.00    +0.137 A 
ATOM      8  C   UNL     1      -2.692  -1.240  -0.027  0.00  0.00    +0.084 C 
ATOM      9  C   UNL     1      -2.252   1.518  -0.492  0.00  0.00    +0.002 C 
ATOM     10  C   UNL     1       0.032  -2.652   0.704  0.00  0.00    +0.131 C 
ATOM     11  C   UNL     1      -3.748  -0.391  -0.369  0.00  0.00    +0.070 C 
ATOM     12  C   UNL     1      -3.534   0.967  -0.599  0.00  0.00    +0.012 C 
ENDROOT
BRANCH   7  14
ATOM     13  O   UNL     1       2.831  -0.088   1.582  0.00  0.00    -0.243 OA
ATOM     14  C   UNL     1       2.165  -0.604   0.658  0.00  0.00    +0.357 C 
BRANCH  14  15
ATOM     15  O   UNL     1       2.698  -1.528  -0.209  0.00  0.00    -0.444 OA
BRANCH  15  16
ATOM     16  C   UNL     1       4.069  -1.897  -0.026  0.00  0.00    +0.209 C 
ATOM     17  C   UNL     1       4.449  -2.917  -1.078  0.00  0.00    +0.051 C 
ENDBRANCH  15  16
ENDBRANCH  14  15
ENDBRANCH   7  14
BRANCH   6  18
ATOM     18  C   UNL     1       0.926   2.113  -0.079  0.00  0.00    +0.084 C 
ATOM     19  C   UNL     1       0.618   3.219   0.683  0.00  0.00    +0.065 C 
BRANCH  19  20
ATOM     20  N   UNL     1      -0.313   3.419   1.656  0.00  0.00    -0.356 N 
ATOM     21  H   UNL     1      -0.385   4.297   2.096  0.00  0.00    +0.142 HD
ATOM     22  H   UNL     1      -0.915   2.686   1.919  0.00  0.00    +0.142 HD
ENDBRANCH  19  20
BRANCH  18  24
ATOM     23  N   UNL     1       2.868   2.368  -1.823  0.00  0.00    -0.191 NA
ATOM     24  C   UNL     1       2.012   2.280  -1.044  0.00  0.00    +0.102 C 
ENDBRANCH  18  24
ENDBRANCH   6  18
TORSDOF 6
