REMARK  Name = 24971312
REMARK  3 active torsions:
REMARK  status: ('A' for Active; 'I' for Inactive)
REMARK    1  A    between atoms: C_5  and  N_11
REMARK    2  A    between atoms: C_8  and  C_17
REMARK    3  A    between atoms: N_11  and  C_13
REMARK                            x       y       z     vdW  Elec       q    Type
REMARK                         _______ _______ _______ _____ _____    ______ ____
ROOT
ATOM      1 CL   UNL     1      -0.214   3.758  -0.153  0.00  0.00    -0.048 Cl
ATOM      2  N   UNL     1      -0.156  -0.644  -0.041  0.00  0.00    -0.151 N 
ATOM      3  N   UNL     1      -0.410  -1.983   0.002  0.00  0.00    -0.172 NA
ATOM      4  N   UNL     1      -1.347   1.451  -0.054  0.00  0.00    -0.376 NA
ATOM      5  C   UNL     1       1.096  -0.009  -0.101  0.00  0.00    +0.126 C 
ATOM      6  C   UNL     1      -1.344   0.090  -0.019  0.00  0.00    +0.205 C 
ATOM      7  C   UNL     1       1.131   1.333  -0.136  0.00  0.00    +0.076 C 
ATOM      8  C   UNL     1      -2.370  -0.825   0.041  0.00  0.00    +0.202 C 
ATOM      9  C   UNL     1      -0.185   2.029  -0.109  0.00  0.00    +0.193 C 
ATOM     10  C   UNL     1      -1.738  -2.074   0.051  0.00  0.00    +0.115 C 
ENDROOT
BRANCH   5  11
ATOM     11  N   UNL     1       2.207  -0.803  -0.118  0.00  0.00    -0.321 N 
ATOM     12  H   UNL     1       2.084  -1.780  -0.112  0.00  0.00    +0.148 HD
BRANCH  11  13
ATOM     13  C   UNL     1       3.549  -0.284  -0.143  0.00  0.00    +0.070 C 
ATOM     14  C   UNL     1       4.492  -1.356  -0.674  0.00  0.00    +0.021 C 
ATOM     15  C   UNL     1       3.949   0.162   1.257  0.00  0.00    +0.021 C 
ENDBRANCH  11  13
ENDBRANCH   5  11
BRANCH   8  17
ATOM     16  N   UNL     1      -4.897  -0.304   0.116  0.00  0.00    -0.195 NA
ATOM     17  C   UNL     1      -3.761  -0.539   0.082  0.00  0.00    +0.087 C 
ENDBRANCH   8  17
TORSDOF 3
