REMARK  Name = 54677972
REMARK  2 active torsions:
REMARK  status: ('A' for Active; 'I' for Inactive)
REMARK    1  A    between atoms: C_7  and  C_18
REMARK    2  A    between atoms: C_8  and  O_24
REMARK                            x       y       z     vdW  Elec       q    Type
REMARK                         _______ _______ _______ _____ _____    ______ ____
ROOT
ATOM      1  S   UNL     1      -1.809   1.707  -0.299  0.00  0.00    +0.077 S 
ATOM      2  O   UNL     1      -2.245   2.906   0.390  0.00  0.00    -0.150 OA
ATOM      3  O   UNL     1      -1.421   1.744  -1.696  0.00  0.00    -0.150 OA
ATOM      4  N   UNL     1      -0.581   0.928   0.633  0.00  0.00    -0.181 N 
ATOM      5  C   UNL     1      -3.092   0.513  -0.178  0.00  0.00    +0.128 C 
ATOM      6  C   UNL     1      -2.717  -0.835  -0.116  0.00  0.00    +0.054 C 
ATOM      7  C   UNL     1      -0.282  -0.409   0.181  0.00  0.00    +0.156 C 
ATOM      8  C   UNL     1      -1.290  -1.234  -0.168  0.00  0.00    +0.154 C 
ATOM      9  C   UNL     1      -4.422   0.927  -0.126  0.00  0.00    +0.020 C 
ATOM     10  C   UNL     1      -0.665   1.081   2.114  0.00  0.00    +0.139 C 
ATOM     11  C   UNL     1      -3.744  -1.783  -0.016  0.00  0.00    +0.004 C 
ATOM     12  C   UNL     1      -5.422  -0.034  -0.022  0.00  0.00    +0.001 C 
ATOM     13  C   UNL     1      -5.085  -1.386   0.032  0.00  0.00    +0.000 C 
ENDROOT
BRANCH   7  18
ATOM     14  O   UNL     1       1.462  -1.933   0.446  0.00  0.00    -0.268 OA
ATOM     15  O   UNL     1       5.408   1.027  -0.334  0.00  0.00    -0.357 OA
ATOM     16  N   UNL     1       1.958   0.314  -0.056  0.00  0.00    -0.262 N 
ATOM     17  N   UNL     1       4.080   1.434  -0.374  0.00  0.00    -0.062 NA
ATOM     18  C   UNL     1       1.138  -0.773   0.208  0.00  0.00    +0.269 C 
ATOM     19  C   UNL     1       3.373   0.331  -0.111  0.00  0.00    +0.176 C 
ATOM     20  C   UNL     1       4.193  -0.791   0.102  0.00  0.00    +0.073 C 
ATOM     21  C   UNL     1       5.463  -0.300  -0.050  0.00  0.00    +0.156 C 
ATOM     22  C   UNL     1       6.800  -0.899   0.031  0.00  0.00    +0.075 C 
ATOM     23  H   UNL     1       1.505   1.171  -0.224  0.00  0.00    +0.157 HD
ENDBRANCH   7  18
BRANCH   8  24
ATOM     24  O   UNL     1      -1.100  -2.536  -0.593  0.00  0.00    -0.504 OA
ATOM     25  H   UNL     1      -1.838  -3.065  -0.823  0.00  0.00    +0.292 HD
ENDBRANCH   8  24
TORSDOF 2
