REMARK  Name = 6918852
REMARK  5 active torsions:
REMARK  status: ('A' for Active; 'I' for Inactive)
REMARK    1  A    between atoms: N_1  and  C_13
REMARK    2  A    between atoms: C_7  and  C_23
REMARK    3  A    between atoms: N_12  and  S_18
REMARK    4  A    between atoms: C_23  and  C_26
REMARK    5  A    between atoms: C_27  and  O_32
REMARK                            x       y       z     vdW  Elec       q    Type
REMARK                         _______ _______ _______ _____ _____    ______ ____
ROOT
ATOM      1  N   UNL     1       1.974   1.175   0.776  0.00  0.00    -0.270 N 
ATOM      2  N   UNL     1       0.700  -0.113  -0.716  0.00  0.00    -0.323 NA
ATOM      3  N   UNL     1      -0.355   1.138   1.054  0.00  0.00    -0.170 NA
ATOM      4  N   UNL     1      -0.609  -1.406  -2.211  0.00  0.00    -0.332 N 
ATOM      5  C   UNL     1       0.736   0.720   0.359  0.00  0.00    +0.146 C 
ATOM      6  C   UNL     1      -0.524  -0.537  -1.095  0.00  0.00    +0.194 C 
ATOM      7  C   UNL     1      -1.693  -0.172  -0.459  0.00  0.00    +0.103 C 
ATOM      8  C   UNL     1      -1.546   0.676   0.620  0.00  0.00    +0.119 C 
ATOM      9  H   UNL     1       2.011   1.779   1.552  0.00  0.00    +0.159 HD
ATOM     10  H   UNL     1       0.210  -1.682  -2.683  0.00  0.00    +0.145 HD
ATOM     11  H   UNL     1      -1.486  -1.734  -2.514  0.00  0.00    +0.145 HD
ENDROOT
BRANCH   1  13
ATOM     12  N   UNL     1       6.018   0.069   0.406  0.00  0.00    -0.159 NA
ATOM     13  C   UNL     1       3.218   0.810   0.132  0.00  0.00    +0.082 C 
ATOM     14  C   UNL     1       4.300   1.837   0.475  0.00  0.00    +0.039 C 
ATOM     15  C   UNL     1       3.647  -0.587   0.588  0.00  0.00    +0.039 C 
ATOM     16  C   UNL     1       5.654   1.427  -0.096  0.00  0.00    +0.097 C 
ATOM     17  C   UNL     1       5.011  -0.961   0.016  0.00  0.00    +0.097 C 
BRANCH  12  18
ATOM     18  S   UNL     1       7.654  -0.382   0.172  0.00  0.00    +0.046 S 
ATOM     19  O   UNL     1       7.810  -1.770   0.546  0.00  0.00    -0.157 OA
ATOM     20  O   UNL     1       8.503   0.654   0.717  0.00  0.00    -0.157 OA
ATOM     21  C   UNL     1       7.726  -0.279  -1.597  0.00  0.00    +0.196 C 
ENDBRANCH  12  18
ENDBRANCH   1  13
BRANCH   7  23
ATOM     22  O   UNL     1      -3.139  -1.390  -1.836  0.00  0.00    -0.286 OA
ATOM     23  C   UNL     1      -3.013  -0.628  -0.866  0.00  0.00    +0.206 C 
BRANCH  23  26
ATOM     24  F   UNL     1      -4.438   1.653  -1.612  0.00  0.00    -0.202 F 
ATOM     25  F   UNL     1      -6.711   2.429  -0.328  0.00  0.00    -0.202 F 
ATOM     26  C   UNL     1      -4.258  -0.214  -0.153  0.00  0.00    +0.103 C 
ATOM     27  C   UNL     1      -4.718  -0.973   0.899  0.00  0.00    +0.144 C 
ATOM     28  C   UNL     1      -4.900   0.925  -0.585  0.00  0.00    +0.173 C 
ATOM     29  C   UNL     1      -5.883  -0.572   1.554  0.00  0.00    +0.039 C 
ATOM     30  C   UNL     1      -6.065   1.325   0.070  0.00  0.00    +0.168 C 
ATOM     31  C   UNL     1      -6.556   0.577   1.139  0.00  0.00    +0.035 C 
BRANCH  27  32
ATOM     32  O   UNL     1      -4.076  -2.099   1.319  0.00  0.00    -0.471 OA
ATOM     33  C   UNL     1      -4.464  -3.330   0.714  0.00  0.00    +0.252 C 
ENDBRANCH  27  32
ENDBRANCH  23  26
ENDBRANCH   7  23
TORSDOF 5
