REMARK  Name = 54736486
REMARK  6 active torsions:
REMARK  status: ('A' for Active; 'I' for Inactive)
REMARK    1  A    between atoms: C_3  and  C_14
REMARK    2  A    between atoms: C_4  and  O_12
REMARK    3  A    between atoms: C_14  and  C_15
REMARK    4  A    between atoms: C_14  and  C_21
REMARK    5  A    between atoms: C_21  and  C_22
REMARK    6  A    between atoms: C_22  and  O_24
REMARK                            x       y       z     vdW  Elec       q    Type
REMARK                         _______ _______ _______ _____ _____    ______ ____
ROOT
ATOM      1  O   UNL     1       2.085   0.459  -1.683  0.00  0.00    -0.421 OA
ATOM      2  O   UNL     1       0.150   1.305  -2.526  0.00  0.00    -0.245 OA
ATOM      3  C   UNL     1       0.021   0.358  -0.346  0.00  0.00    +0.091 A 
ATOM      4  C   UNL     1       0.691  -0.245   0.655  0.00  0.00    +0.139 A 
ATOM      5  C   UNL     1       0.730   0.749  -1.599  0.00  0.00    +0.345 A 
ATOM      6  C   UNL     1       2.122  -0.536   0.534  0.00  0.00    +0.068 A 
ATOM      7  C   UNL     1       2.779  -0.174  -0.637  0.00  0.00    +0.152 A 
ATOM      8  C   UNL     1       2.872  -1.164   1.538  0.00  0.00    +0.006 C 
ATOM      9  C   UNL     1       4.139  -0.416  -0.833  0.00  0.00    +0.038 C 
ATOM     10  C   UNL     1       4.237  -1.413   1.358  0.00  0.00    +0.000 C 
ATOM     11  C   UNL     1       4.869  -1.040   0.173  0.00  0.00    +0.003 C 
ENDROOT
BRANCH   4  12
ATOM     12  O   UNL     1       0.127  -0.636   1.850  0.00  0.00    -0.506 OA
ATOM     13  H   UNL     1      -0.784  -0.487   2.009  0.00  0.00    +0.292 HD
ENDBRANCH   4  12
BRANCH   3  14
ATOM     14  C   UNL     1      -1.446   0.695  -0.339  0.00  0.00    +0.056 C 
BRANCH  14  15
ATOM     15  C   UNL     1      -2.289  -0.562  -0.232  0.00  0.00    -0.018 C 
ATOM     16  C   UNL     1      -1.784  -1.782  -0.680  0.00  0.00    -0.004 C 
ATOM     17  C   UNL     1      -3.571  -0.497   0.316  0.00  0.00    -0.004 C 
ATOM     18  C   UNL     1      -2.559  -2.937  -0.582  0.00  0.00    -0.000 C 
ATOM     19  C   UNL     1      -4.346  -1.652   0.414  0.00  0.00    -0.000 C 
ATOM     20  C   UNL     1      -3.841  -2.872  -0.035  0.00  0.00    -0.000 C 
ENDBRANCH  14  15
BRANCH  14  21
ATOM     21  C   UNL     1      -1.743   1.734   0.768  0.00  0.00    +0.038 C 
BRANCH  21  22
ATOM     22  C   UNL     1      -0.887   3.006   0.672  0.00  0.00    +0.111 C 
ATOM     23  C   UNL     1      -1.228   3.982   1.791  0.00  0.00    +0.032 C 
BRANCH  22  24
ATOM     24  O   UNL     1      -1.129   3.641  -0.580  0.00  0.00    -0.384 OA
ATOM     25  H   UNL     1      -0.914   3.027  -1.300  0.00  0.00    +0.210 HD
ENDBRANCH  22  24
ENDBRANCH  21  22
ENDBRANCH  14  21
ENDBRANCH   3  14
TORSDOF 6
