REMARK  Name = 220535
REMARK  6 active torsions:
REMARK  status: ('A' for Active; 'I' for Inactive)
REMARK    1  A    between atoms: C_2  and  C_6
REMARK    2  A    between atoms: C_3  and  C_12
REMARK    3  A    between atoms: C_4  and  C_19
REMARK    4  A    between atoms: C_5  and  C_23
REMARK    5  A    between atoms: C_19  and  O_20
REMARK    6  A    between atoms: C_23  and  O_24
REMARK                            x       y       z     vdW  Elec       q    Type
REMARK                         _______ _______ _______ _____ _____    ______ ____
ROOT
ATOM      1  O   UNL     1      -0.002  -0.904   0.011  0.00  0.00    -0.453 OA
ATOM      2  C   UNL     1      -1.085  -0.088   0.000  0.00  0.00    +0.152 A 
ATOM      3  C   UNL     1       1.089  -0.095   0.012  0.00  0.00    +0.152 A 
ATOM      4  C   UNL     1      -0.706   1.230  -0.007  0.00  0.00    +0.119 A 
ATOM      5  C   UNL     1       0.709   1.227   0.001  0.00  0.00    +0.119 A 
ENDROOT
BRANCH   2   6
ATOM      6  C   UNL     1      -2.356  -0.770  -0.003  0.00  0.00    +0.035 C 
ATOM      7  C   UNL     1      -2.963  -1.108  -1.213  0.00  0.00    +0.003 C 
ATOM      8  C   UNL     1      -2.979  -1.092   1.203  0.00  0.00    +0.003 C 
ATOM      9  C   UNL     1      -4.193  -1.767  -1.216  0.00  0.00    +0.000 C 
ATOM     10  C   UNL     1      -4.208  -1.751   1.200  0.00  0.00    +0.000 C 
ATOM     11  C   UNL     1      -4.815  -2.088  -0.010  0.00  0.00    +0.000 C 
ENDBRANCH   2   6
BRANCH   3  12
ATOM     12  C   UNL     1       2.353  -0.778   0.024  0.00  0.00    +0.035 C 
ATOM     13  C   UNL     1       2.964  -1.104   1.238  0.00  0.00    +0.003 C 
ATOM     14  C   UNL     1       2.979  -1.121  -1.178  0.00  0.00    +0.003 C 
ATOM     15  C   UNL     1       4.191  -1.767   1.250  0.00  0.00    +0.000 C 
ATOM     16  C   UNL     1       4.207  -1.783  -1.166  0.00  0.00    +0.000 C 
ATOM     17  C   UNL     1       4.812  -2.107   0.049  0.00  0.00    +0.000 C 
ENDBRANCH   3  12
BRANCH   4  19
ATOM     18  O   UNL     1      -1.245   3.544  -0.027  0.00  0.00    -0.245 OA
ATOM     19  C   UNL     1      -1.597   2.354  -0.020  0.00  0.00    +0.341 C 
BRANCH  19  20
ATOM     20  O   UNL     1      -2.932   2.037  -0.025  0.00  0.00    -0.477 OA
ATOM     21  H   UNL     1      -3.200   1.139  -0.020  0.00  0.00    +0.295 HD
ENDBRANCH  19  20
ENDBRANCH   4  19
BRANCH   5  23
ATOM     22  O   UNL     1       1.360   3.458   0.497  0.00  0.00    -0.245 OA
ATOM     23  C   UNL     1       1.605   2.348  -0.002  0.00  0.00    +0.341 C 
BRANCH  23  24
ATOM     24  O   UNL     1       2.812   2.126  -0.616  0.00  0.00    -0.477 OA
ATOM     25  H   UNL     1       2.998   1.288  -0.993  0.00  0.00    +0.295 HD
ENDBRANCH  23  24
ENDBRANCH   5  23
TORSDOF 6
