REMARK  Name = 11987878
REMARK  2 active torsions:
REMARK  status: ('A' for Active; 'I' for Inactive)
REMARK    1  A    between atoms: C_18  and  O_23
REMARK    2  A    between atoms: C_21  and  O_25
REMARK                            x       y       z     vdW  Elec       q    Type
REMARK                         _______ _______ _______ _____ _____    ______ ____
ROOT
ATOM      1 CL   UNL     1       3.519   2.131  -0.589  0.00  0.00    -0.079 Cl
ATOM      2  O   UNL     1      -0.971  -1.886  -0.151  0.00  0.00    -0.445 OA
ATOM      3  O   UNL     1      -1.135   0.711  -2.292  0.00  0.00    -0.296 OA
ATOM      4  O   UNL     1       0.236  -2.340  -2.076  0.00  0.00    -0.245 OA
ATOM      5  C   UNL     1      -1.189   2.148   0.972  0.00  0.00    +0.001 C 
ATOM      6  C   UNL     1      -1.396   2.860  -0.369  0.00  0.00    +0.008 C 
ATOM      7  C   UNL     1      -2.383   2.296   1.923  0.00  0.00    +0.005 C 
ATOM      8  C   UNL     1      -0.193   2.688  -1.297  0.00  0.00    +0.065 C 
ATOM      9  C   UNL     1      -3.655   1.558   1.488  0.00  0.00    +0.026 C 
ATOM     10  C   UNL     1       1.246   0.668  -2.049  0.00  0.00    +0.092 C 
ATOM     11  C   UNL     1      -0.123   1.297  -1.905  0.00  0.00    +0.155 C 
ATOM     12  C   UNL     1       1.728   0.034  -0.769  0.00  0.00    +0.008 C 
ATOM     13  C   UNL     1       1.185  -1.152  -0.245  0.00  0.00    +0.107 C 
ATOM     14  C   UNL     1      -3.456   0.072   1.409  0.00  0.00    -0.031 C 
ATOM     15  C   UNL     1       2.743   0.673  -0.037  0.00  0.00    +0.088 C 
ATOM     16  C   UNL     1      -3.341  -2.124   0.205  0.00  0.00    +0.073 C 
ATOM     17  C   UNL     1      -3.597  -0.645   0.284  0.00  0.00    -0.027 C 
ATOM     18  C   UNL     1       1.644  -1.685   0.967  0.00  0.00    +0.143 C 
ATOM     19  C   UNL     1      -2.171  -2.434  -0.724  0.00  0.00    +0.213 C 
ATOM     20  C   UNL     1       0.121  -1.881  -0.954  0.00  0.00    +0.344 C 
ATOM     21  C   UNL     1       3.201   0.144   1.171  0.00  0.00    +0.147 C 
ATOM     22  C   UNL     1       2.652  -1.033   1.673  0.00  0.00    +0.074 C 
ENDROOT
BRANCH  18  23
ATOM     23  O   UNL     1       1.145  -2.849   1.474  0.00  0.00    -0.505 OA
ATOM     24  H   UNL     1       0.467  -3.306   1.017  0.00  0.00    +0.292 HD
ENDBRANCH  18  23
BRANCH  21  25
ATOM     25  O   UNL     1       4.189   0.749   1.892  0.00  0.00    -0.505 OA
ATOM     26  H   UNL     1       4.578   1.543   1.580  0.00  0.00    +0.292 HD
ENDBRANCH  21  25
TORSDOF 2
