REMARK  Name = 5289329
REMARK  7 active torsions:
REMARK  status: ('A' for Active; 'I' for Inactive)
REMARK    1  A    between atoms: C_1  and  C_2
REMARK    2  A    between atoms: C_1  and  C_9
REMARK    3  A    between atoms: C_2  and  C_3
REMARK    4  A    between atoms: C_9  and  N_10
REMARK    5  A    between atoms: N_10  and  O_11
REMARK    6  A    between atoms: N_10  and  C_13
REMARK    7  A    between atoms: C_13  and  O_14
REMARK                            x       y       z     vdW  Elec       q    Type
REMARK                         _______ _______ _______ _____ _____    ______ ____
ROOT
ATOM      1  C   UNL     1       0.677   0.154  -0.043  0.00  0.00    +0.025 C 
ENDROOT
BRANCH   1   2
ATOM      2  C   UNL     1      -0.442   0.473  -1.037  0.00  0.00    +0.028 C 
BRANCH   2   3
ATOM      3  C   UNL     1      -1.804   0.212  -0.447  0.00  0.00    -0.022 C 
ATOM      4  C   UNL     1      -2.379  -1.042  -0.589  0.00  0.00    -0.004 C 
ATOM      5  C   UNL     1      -2.460   1.229   0.230  0.00  0.00    -0.004 C 
ATOM      6  C   UNL     1      -3.639  -1.284  -0.042  0.00  0.00    -0.000 C 
ATOM      7  C   UNL     1      -3.720   0.987   0.776  0.00  0.00    -0.000 C 
ATOM      8  C   UNL     1      -4.310  -0.269   0.640  0.00  0.00    -0.000 C 
ENDBRANCH   2   3
ENDBRANCH   1   2
BRANCH   1   9
ATOM      9  C   UNL     1       2.052   0.388  -0.668  0.00  0.00    +0.104 C 
BRANCH   9  10
ATOM     10  N   UNL     1       3.104   0.100   0.299  0.00  0.00    -0.141 NA
BRANCH  10  11
ATOM     11  O   UNL     1       3.021  -1.337   0.509  0.00  0.00    -0.309 OA
ATOM     12  H   UNL     1       2.160  -1.557   0.897  0.00  0.00    +0.237 HD
ENDBRANCH  10  11
BRANCH  10  13
ATOM     13  C   UNL     1       4.428   0.318  -0.283  0.00  0.00    +0.241 C 
BRANCH  13  14
ATOM     14  O   UNL     1       5.473   0.072   0.655  0.00  0.00    -0.365 OA
ATOM     15  H   UNL     1       6.331   0.227   0.232  0.00  0.00    +0.212 HD
ENDBRANCH  13  14
ENDBRANCH  10  13
ENDBRANCH   9  10
ENDBRANCH   1   9
TORSDOF 7
