REMARK  Name = 24963046
REMARK  6 active torsions:
REMARK  status: ('A' for Active; 'I' for Inactive)
REMARK    1  A    between atoms: N_1  and  C_27
REMARK    2  A    between atoms: C_4  and  C_16
REMARK    3  A    between atoms: C_13  and  C_22
REMARK    4  A    between atoms: N_21  and  C_24
REMARK    5  A    between atoms: C_27  and  C_28
REMARK    6  A    between atoms: C_28  and  N_30
REMARK                            x       y       z     vdW  Elec       q    Type
REMARK                         _______ _______ _______ _____ _____    ______ ____
ROOT
ATOM      1  N   UNL     1       4.097  -0.420   1.515  0.00  0.00    -0.270 N 
ATOM      2  N   UNL     1       2.218  -0.495   0.149  0.00  0.00    -0.338 NA
ATOM      3  N   UNL     1       2.062  -0.899   2.520  0.00  0.00    -0.170 NA
ATOM      4  C   UNL     1      -1.889  -1.071  -0.270  0.00  0.00    -0.000 C 
ATOM      5  C   UNL     1      -1.299  -1.179   0.986  0.00  0.00    +0.004 C 
ATOM      6  C   UNL     1       0.086  -0.986   1.131  0.00  0.00    +0.050 C 
ATOM      7  C   UNL     1       2.731  -0.614   1.391  0.00  0.00    +0.145 C 
ATOM      8  C   UNL     1      -1.100  -0.770  -1.375  0.00  0.00    +0.003 C 
ATOM      9  C   UNL     1       0.893  -0.682   0.022  0.00  0.00    +0.146 C 
ATOM     10  C   UNL     1       0.276  -0.579  -1.222  0.00  0.00    +0.033 C 
ATOM     11  C   UNL     1       0.737  -1.080   2.357  0.00  0.00    +0.114 C 
ATOM     12  H   UNL     1       4.498  -0.500   2.411  0.00  0.00    +0.159 HD
ENDROOT
BRANCH   4  16
ATOM     13  C   UNL     1      -5.543  -0.341  -0.452  0.00  0.00    +0.053 C 
ATOM     14  C   UNL     1      -4.166  -0.173  -0.307  0.00  0.00    +0.004 C 
ATOM     15  C   UNL     1      -6.067  -1.606  -0.715  0.00  0.00    +0.004 C 
ATOM     16  C   UNL     1      -3.313  -1.270  -0.424  0.00  0.00    -0.004 C 
ATOM     17  C   UNL     1      -3.838  -2.536  -0.687  0.00  0.00    -0.022 C 
ATOM     18  C   UNL     1      -5.215  -2.704  -0.833  0.00  0.00    -0.004 C 
ATOM     19  C   UNL     1      -2.955  -3.736  -0.820  0.00  0.00    +0.031 C 
BRANCH  13  22
ATOM     20  O   UNL     1      -7.523   0.825  -0.929  0.00  0.00    -0.270 OA
ATOM     21  N   UNL     1      -5.996   1.868   0.467  0.00  0.00    -0.302 N 
ATOM     22  C   UNL     1      -6.433   0.803  -0.330  0.00  0.00    +0.246 C 
ATOM     23  H   UNL     1      -5.122   1.789   0.915  0.00  0.00    +0.150 HD
BRANCH  21  24
ATOM     24  C   UNL     1      -6.757   3.071   0.664  0.00  0.00    +0.072 C 
ATOM     25  C   UNL     1      -6.089   4.360   1.042  0.00  0.00    +0.021 C 
ATOM     26  C   UNL     1      -6.694   4.199  -0.322  0.00  0.00    +0.021 C 
ENDBRANCH  21  24
ENDBRANCH  13  22
ENDBRANCH   4  16
BRANCH   1  27
ATOM     27  C   UNL     1       4.966  -0.106   0.406  0.00  0.00    +0.075 C 
BRANCH  27  28
ATOM     28  C   UNL     1       6.404   0.004   0.897  0.00  0.00    -0.055 C 
BRANCH  28  30
ATOM     29  O   UNL     1       9.484   1.716  -1.383  0.00  0.00    -0.358 OA
ATOM     30  N   UNL     1       7.299   0.314  -0.216  0.00  0.00    +0.391 N 
ATOM     31  C   UNL     1       8.691  -0.009   0.129  0.00  0.00    -0.045 C 
ATOM     32  C   UNL     1       7.189   1.729  -0.596  0.00  0.00    -0.045 C 
ATOM     33  C   UNL     1       9.607   0.334  -1.042  0.00  0.00    +0.119 C 
ATOM     34  C   UNL     1       8.140   2.030  -1.751  0.00  0.00    +0.119 C 
ATOM     35  H   UNL     1       7.019  -0.261  -1.011  0.00  0.00    -0.079 HD
ENDBRANCH  28  30
ENDBRANCH  27  28
ENDBRANCH   1  27
TORSDOF 6
