REMARK  Name = 87031
REMARK  3 active torsions:
REMARK  status: ('A' for Active; 'I' for Inactive)
REMARK    1  A    between atoms: C_2  and  S_11
REMARK    2  A    between atoms: C_7  and  O_17
REMARK    3  A    between atoms: S_11  and  N_14
REMARK                            x       y       z     vdW  Elec       q    Type
REMARK                         _______ _______ _______ _____ _____    ______ ____
ROOT
ATOM      1  C   UNL     1       0.174  -0.216  -0.035  0.00  0.00    +0.022 C 
ATOM      2  C   UNL     1      -1.066   0.445  -0.055  0.00  0.00    +0.122 C 
ATOM      3  C   UNL     1       1.365   0.548  -0.002  0.00  0.00    +0.035 C 
ATOM      4  C   UNL     1      -1.130   1.838  -0.043  0.00  0.00    +0.020 C 
ATOM      5  C   UNL     1       0.257  -1.618  -0.046  0.00  0.00    +0.002 C 
ATOM      6  C   UNL     1       1.281   1.950   0.009  0.00  0.00    +0.003 C 
ATOM      7  C   UNL     1       2.604  -0.112   0.018  0.00  0.00    +0.134 C 
ATOM      8  C   UNL     1       0.041   2.589  -0.011  0.00  0.00    +0.001 C 
ATOM      9  C   UNL     1       1.497  -2.257  -0.025  0.00  0.00    +0.003 C 
ATOM     10  C   UNL     1       2.668  -1.506   0.007  0.00  0.00    +0.037 C 
ENDROOT
BRANCH   2  11
ATOM     11  S   UNL     1      -2.600  -0.412  -0.096  0.00  0.00    +0.057 S 
ATOM     12  O   UNL     1      -3.593   0.475  -0.676  0.00  0.00    -0.153 OA
ATOM     13  O   UNL     1      -2.368  -1.726  -0.669  0.00  0.00    -0.153 OA
BRANCH  11  14
ATOM     14  N   UNL     1      -2.910  -0.581   1.574  0.00  0.00    -0.203 NA
ATOM     15  H   UNL     1      -3.793  -1.073   1.708  0.00  0.00    +0.144 HD
ATOM     16  H   UNL     1      -2.967   0.342   2.004  0.00  0.00    +0.144 HD
ENDBRANCH  11  14
ENDBRANCH   2  11
BRANCH   7  17
ATOM     17  O   UNL     1       3.779   0.582   0.050  0.00  0.00    -0.506 OA
ATOM     18  H   UNL     1       3.770   1.519   0.059  0.00  0.00    +0.292 HD
ENDBRANCH   7  17
TORSDOF 3
