REMARK  Name = 24941262
REMARK  4 active torsions:
REMARK  status: ('A' for Active; 'I' for Inactive)
REMARK    1  A    between atoms: N_2  and  C_15
REMARK    2  A    between atoms: C_3  and  C_5
REMARK    3  A    between atoms: C_9  and  N_12
REMARK    4  A    between atoms: C_15  and  C_17
REMARK                            x       y       z     vdW  Elec       q    Type
REMARK                         _______ _______ _______ _____ _____    ______ ____
ROOT
ATOM      1  O   UNL     1       0.856  -1.452   1.092  0.00  0.00    -0.270 OA
ATOM      2  N   UNL     1       0.630  -0.476  -0.998  0.00  0.00    -0.299 N 
ATOM      3  C   UNL     1       1.324  -0.826   0.145  0.00  0.00    +0.246 C 
ATOM      4  H   UNL     1       1.097   0.029  -1.703  0.00  0.00    +0.150 HD
ENDROOT
BRANCH   3   5
ATOM      5  C   UNL     1       2.736  -0.368   0.205  0.00  0.00    +0.051 C 
ATOM      6  C   UNL     1       3.785  -1.281   0.318  0.00  0.00    -0.017 C 
ATOM      7  C   UNL     1       3.005   0.999   0.148  0.00  0.00    +0.018 C 
ATOM      8  C   UNL     1       5.103  -0.826   0.373  0.00  0.00    -0.003 C 
ATOM      9  C   UNL     1       4.323   1.454   0.203  0.00  0.00    +0.042 C 
ATOM     10  C   UNL     1       3.526  -2.751   0.381  0.00  0.00    +0.031 C 
ATOM     11  C   UNL     1       5.372   0.541   0.315  0.00  0.00    +0.014 C 
BRANCH   9  12
ATOM     12  N   UNL     1       4.595   2.837   0.145  0.00  0.00    -0.357 N 
ATOM     13  H   UNL     1       3.855   3.481   0.066  0.00  0.00    +0.142 HD
ATOM     14  H   UNL     1       5.525   3.158   0.184  0.00  0.00    +0.142 HD
ENDBRANCH   9  12
ENDBRANCH   3   5
BRANCH   2  15
ATOM     15  C   UNL     1      -0.764  -0.827  -1.195  0.00  0.00    +0.094 C 
ATOM     16  C   UNL     1      -1.002  -1.138  -2.677  0.00  0.00    +0.026 C 
BRANCH  15  17
ATOM     17  C   UNL     1      -1.690   0.219  -0.656  0.00  0.00    -0.004 C 
ATOM     18  C   UNL     1      -2.934  -0.107  -0.091  0.00  0.00    -0.002 C 
ATOM     19  C   UNL     1      -3.764   0.929   0.400  0.00  0.00    -0.000 C 
ATOM     20  C   UNL     1      -1.270   1.548  -0.736  0.00  0.00    -0.003 C 
ATOM     21  C   UNL     1      -3.373  -1.438  -0.003  0.00  0.00    -0.000 C 
ATOM     22  C   UNL     1      -3.325   2.261   0.312  0.00  0.00    -0.000 C 
ATOM     23  C   UNL     1      -2.086   2.566  -0.252  0.00  0.00    -0.000 C 
ATOM     24  C   UNL     1      -5.007   0.604   0.965  0.00  0.00    -0.000 C 
ATOM     25  C   UNL     1      -4.612  -1.743   0.561  0.00  0.00    -0.000 C 
ATOM     26  C   UNL     1      -5.428  -0.725   1.044  0.00  0.00    -0.000 C 
ENDBRANCH  15  17
ENDBRANCH   2  15
TORSDOF 4
