REMARK  Name = 446756
REMARK  11 active torsions:
REMARK  status: ('A' for Active; 'I' for Inactive)
REMARK    1  A    between atoms: P_1  and  O_3
REMARK    2  A    between atoms: P_1  and  O_5
REMARK    3  A    between atoms: P_1  and  C_15
REMARK    4  A    between atoms: O_5  and  C_6
REMARK    5  A    between atoms: C_11  and  N_14
REMARK    6  A    between atoms: C_15  and  C_16
REMARK    7  A    between atoms: C_16  and  C_17
REMARK    8  A    between atoms: C_17  and  C_20
REMARK    9  A    between atoms: N_19  and  CA_22
REMARK   10  A    between atoms: CA_22  and  C_25
REMARK   11  A    between atoms: C_25  and  O_26
REMARK                            x       y       z     vdW  Elec       q    Type
REMARK                         _______ _______ _______ _____ _____    ______ ____
ROOT
ATOM      1  P   UNL     1       1.119  -2.041  -0.119  0.00  0.00    +0.388 P 
ATOM      2  O   UNL     1       1.288  -2.423   1.313  0.00  0.00    -0.244 OA
ENDROOT
BRANCH   1   3
ATOM      3  O   UNL     1       1.780  -3.034  -1.204  0.00  0.00    -0.315 OA
ATOM      4  H   UNL     1       2.729  -3.125  -1.023  0.00  0.00    +0.221 HD
ENDBRANCH   1   3
BRANCH   1   5
ATOM      5  O   UNL     1       1.613  -0.572  -0.546  0.00  0.00    -0.422 OA
BRANCH   5   6
ATOM      6  C   UNL     1       2.882  -0.096  -0.358  0.00  0.00    +0.147 C 
ATOM      7  C   UNL     1       3.848  -0.904   0.242  0.00  0.00    +0.039 C 
ATOM      8  C   UNL     1       3.209   1.198  -0.764  0.00  0.00    +0.039 C 
ATOM      9  C   UNL     1       5.141  -0.418   0.435  0.00  0.00    +0.027 C 
ATOM     10  C   UNL     1       4.502   1.683  -0.571  0.00  0.00    +0.027 C 
ATOM     11  C   UNL     1       5.468   0.876   0.028  0.00  0.00    +0.143 C 
BRANCH  11  14
ATOM     12  O   UNL     1       7.639   0.626   0.766  0.00  0.00    -0.126 OA
ATOM     13  O   UNL     1       7.059   2.536  -0.148  0.00  0.00    -0.126 OA
ATOM     14  N   UNL     1       6.785   1.370   0.225  0.00  0.00    +0.058 N 
ENDBRANCH  11  14
ENDBRANCH   5   6
ENDBRANCH   1   5
BRANCH   1  15
ATOM     15  C   UNL     1      -0.611  -2.020  -0.638  0.00  0.00    +0.129 C 
BRANCH  15  16
ATOM     16  C   UNL     1      -1.472  -1.041   0.149  0.00  0.00    +0.023 C 
BRANCH  16  17
ATOM     17  C   UNL     1      -2.925  -1.044  -0.322  0.00  0.00    +0.086 C 
BRANCH  17  20
ATOM     18  O   UNL     1      -3.339   0.686   1.320  0.00  0.00    -0.275 OA
ATOM     19  N   UNL     1      -5.094  -0.056  -0.009  0.00  0.00    -0.297 N 
ATOM     20  C   ACE A   0      -3.779  -0.038   0.432  0.00  0.00    +0.223 C 
ATOM     21  H   UNL     1      -5.340  -0.679  -0.730  0.00  0.00    +0.150 HD
BRANCH  19  22
ATOM     22  CA  UNL     1      -6.120   0.799   0.543  0.00  0.00    +0.171 C 
ATOM     23  CB  UNL     1      -6.801   0.116   1.719  0.00  0.00    +0.033 C 
BRANCH  22  25
ATOM     24  OXT UNL     1      -8.070   1.973  -0.272  0.00  0.00    -0.248 OA
ATOM     25  C   UNL     1      -7.147   1.199  -0.504  0.00  0.00    +0.332 C 
BRANCH  25  26
ATOM     26  O   UNL     1      -6.973   0.624  -1.717  0.00  0.00    -0.479 OA
ATOM     27  H   UNL     1      -6.256   0.037  -1.859  0.00  0.00    +0.295 HD
ENDBRANCH  25  26
ENDBRANCH  22  25
ENDBRANCH  19  22
ENDBRANCH  17  20
ENDBRANCH  16  17
ENDBRANCH  15  16
ENDBRANCH   1  15
TORSDOF 11
