REMARK  Name = 780
REMARK  5 active torsions:
REMARK  status: ('A' for Active; 'I' for Inactive)
REMARK    1  A    between atoms: C_1  and  C_11
REMARK    2  A    between atoms: C_2  and  O_7
REMARK    3  A    between atoms: C_4  and  O_9
REMARK    4  A    between atoms: C_11  and  C_13
REMARK    5  A    between atoms: C_13  and  O_14
REMARK                            x       y       z     vdW  Elec       q    Type
REMARK                         _______ _______ _______ _____ _____    ______ ____
ROOT
ATOM      1  C   UNL     1      -0.094   0.059   0.473  0.00  0.00    +0.026 C 
ATOM      2  C   UNL     1       0.351   1.326   0.098  0.00  0.00    +0.130 C 
ATOM      3  C   UNL     1       0.779  -1.028   0.431  0.00  0.00    +0.036 C 
ATOM      4  C   UNL     1       2.098  -0.847   0.014  0.00  0.00    +0.134 C 
ATOM      5  C   UNL     1       1.669   1.507  -0.319  0.00  0.00    +0.039 C 
ATOM      6  C   UNL     1       2.543   0.421  -0.361  0.00  0.00    +0.040 C 
ENDROOT
BRANCH   2   7
ATOM      7  O   UNL     1      -0.489   2.398   0.132  0.00  0.00    -0.506 OA
ATOM      8  H   UNL     1      -1.377   2.289   0.411  0.00  0.00    +0.292 HD
ENDBRANCH   2   7
BRANCH   4   9
ATOM      9  O   UNL     1       2.951  -1.907  -0.025  0.00  0.00    -0.506 OA
ATOM     10  H   UNL     1       2.652  -2.758   0.227  0.00  0.00    +0.292 HD
ENDBRANCH   4   9
BRANCH   1  11
ATOM     11  C   UNL     1      -1.503  -0.154   0.921  0.00  0.00    +0.139 C 
BRANCH  11  13
ATOM     12  O   UNL     1      -2.143  -0.556  -1.394  0.00  0.00    -0.250 OA
ATOM     13  C   UNL     1      -2.450  -0.494  -0.211  0.00  0.00    +0.318 C 
BRANCH  13  14
ATOM     14  O   UNL     1      -3.712  -0.727   0.239  0.00  0.00    -0.480 OA
ATOM     15  H   UNL     1      -3.901  -0.668   1.155  0.00  0.00    +0.295 HD
ENDBRANCH  13  14
ENDBRANCH  11  13
ENDBRANCH   1  11
TORSDOF 5
