REMARK  Name = 9562794
REMARK  7 active torsions:
REMARK  status: ('A' for Active; 'I' for Inactive)
REMARK    1  A    between atoms: N_1  and  C_2
REMARK    2  A    between atoms: N_1  and  N_16
REMARK    3  A    between atoms: C_2  and  C_5
REMARK    4  A    between atoms: C_6  and  O_13
REMARK    5  A    between atoms: C_17  and  C_19
REMARK    6  A    between atoms: C_22  and  O_25
REMARK    7  A    between atoms: C_23  and  O_27
REMARK                            x       y       z     vdW  Elec       q    Type
REMARK                         _______ _______ _______ _____ _____    ______ ____
ROOT
ATOM      1  N   UNL     1      -0.185  -0.531  -0.291  0.00  0.00    -0.126 NA
ENDROOT
BRANCH   1   3
ATOM      2  O   UNL     1       2.111  -1.743  -1.153  0.00  0.00    -0.269 OA
ATOM      3  N   UNL     1       1.039   0.010  -0.086  0.00  0.00    -0.228 N 
ATOM      4  C   UNL     1       2.147  -0.671  -0.555  0.00  0.00    +0.260 C 
ATOM      5  H   UNL     1       1.138   0.868   0.386  0.00  0.00    +0.171 HD
BRANCH   4   6
ATOM      6  C   UNL     1       3.461  -0.034  -0.279  0.00  0.00    +0.058 C 
ATOM      7  C   UNL     1       4.581  -0.834  -0.184  0.00  0.00    +0.044 C 
ATOM      8  C   UNL     1       3.518   1.335  -0.126  0.00  0.00    +0.008 C 
ATOM      9  C   UNL     1       5.815  -0.236   0.077  0.00  0.00    +0.168 C 
ATOM     10  C   UNL     1       5.900   1.147   0.236  0.00  0.00    +0.167 C 
ATOM     11  C   UNL     1       4.752   1.933   0.135  0.00  0.00    +0.040 C 
BRANCH   9  12
ATOM     12  O   UNL     1       6.929  -1.014   0.174  0.00  0.00    -0.503 OA
ATOM     13  H   UNL     1       6.863  -1.942   0.066  0.00  0.00    +0.292 HD
ENDBRANCH   9  12
BRANCH  10  14
ATOM     14  O   UNL     1       7.098   1.742   0.491  0.00  0.00    -0.503 OA
ATOM     15  H   UNL     1       7.874   1.221   0.560  0.00  0.00    +0.292 HD
ENDBRANCH  10  14
ENDBRANCH   4   6
ENDBRANCH   1   3
BRANCH   1  16
ATOM     16  C   UNL     1      -1.166   0.156   0.212  0.00  0.00    +0.141 C 
BRANCH  16  19
ATOM     17  C   UNL     1      -3.611   0.664   0.050  0.00  0.00    +0.000 C 
ATOM     18  C   UNL     1      -4.943   0.200  -0.065  0.00  0.00    -0.000 C 
ATOM     19  C   UNL     1      -2.561  -0.268   0.094  0.00  0.00    +0.031 C 
ATOM     20  C   UNL     1      -2.821  -1.637   0.026  0.00  0.00    +0.136 C 
ATOM     21  C   UNL     1      -5.186  -1.182  -0.132  0.00  0.00    +0.003 C 
ATOM     22  C   UNL     1      -3.368   2.045   0.117  0.00  0.00    -0.000 C 
ATOM     23  C   UNL     1      -4.131  -2.093  -0.086  0.00  0.00    +0.037 C 
ATOM     24  C   UNL     1      -5.993   1.131  -0.108  0.00  0.00    -0.000 C 
ATOM     25  C   UNL     1      -4.423   2.957   0.072  0.00  0.00    -0.000 C 
ATOM     26  C   UNL     1      -5.734   2.501  -0.040  0.00  0.00    -0.000 C 
BRANCH  20  27
ATOM     27  O   UNL     1      -1.808  -2.549   0.068  0.00  0.00    -0.472 OA
ATOM     28  C   UNL     1      -1.420  -3.027   1.354  0.00  0.00    +0.252 C 
ENDBRANCH  20  27
ENDBRANCH  16  19
ENDBRANCH   1  16
TORSDOF 7
