REMARK  Name = 7127816
REMARK  2 active torsions:
REMARK  status: ('A' for Active; 'I' for Inactive)
REMARK    1  A    between atoms: C_9  and  C_13
REMARK    2  A    between atoms: C_13  and  N_14
REMARK                            x       y       z     vdW  Elec       q    Type
REMARK                         _______ _______ _______ _____ _____    ______ ____
ROOT
ATOM      1  N   UNL     1      -1.153   1.637  -0.054  0.00  0.00    -0.303 N 
ATOM      2  N   UNL     1      -2.048  -1.046   0.118  0.00  0.00    -0.303 N 
ATOM      3  C   UNL     1      -2.495   1.328   0.424  0.00  0.00    +0.112 C 
ATOM      4  C   UNL     1      -2.977   0.030  -0.200  0.00  0.00    +0.112 C 
ATOM      5  C   UNL     1      -0.232   0.584  -0.096  0.00  0.00    +0.061 C 
ATOM      6  C   UNL     1      -0.682  -0.767  -0.002  0.00  0.00    +0.061 C 
ATOM      7  C   UNL     1       1.152   0.822  -0.243  0.00  0.00    +0.009 C 
ATOM      8  C   UNL     1       0.282  -1.798  -0.021  0.00  0.00    +0.015 C 
ATOM      9  C   UNL     1       2.078  -0.220  -0.271  0.00  0.00    -0.043 C 
ATOM     10  C   UNL     1      -0.733   3.029  -0.080  0.00  0.00    +0.112 C 
ATOM     11  C   UNL     1      -2.556  -2.408   0.154  0.00  0.00    +0.112 C 
ATOM     12  C   UNL     1       1.643  -1.530  -0.155  0.00  0.00    -0.005 C 
ENDROOT
BRANCH   9  13
ATOM     13  C   UNL     1       3.532   0.075  -0.422  0.00  0.00    -0.059 C 
BRANCH  13  14
ATOM     14  N   UNL     1       4.188   0.262   0.848  0.00  0.00    +0.383 N 
ATOM     15  H   UNL     1       5.176   0.460   0.694  0.00  0.00    -0.089 HD
ATOM     16  H   UNL     1       4.094  -0.587   1.406  0.00  0.00    -0.089 HD
ATOM     17  H   UNL     1       3.757   1.043   1.342  0.00  0.00    -0.089 HD
ENDBRANCH  13  14
ENDBRANCH   9  13
TORSDOF 2
