REMARK  Name = 3689
REMARK  7 active torsions:
REMARK  status: ('A' for Active; 'I' for Inactive)
REMARK    1  A    between atoms: N_1  and  C_8
REMARK    2  A    between atoms: C_2  and  C_21
REMARK    3  A    between atoms: C_8  and  C_10
REMARK    4  A    between atoms: C_10  and  C_11
REMARK    5  A    between atoms: C_10  and  O_19
REMARK    6  A    between atoms: C_16  and  O_17
REMARK    7  A    between atoms: C_21  and  C_22
REMARK                            x       y       z     vdW  Elec       q    Type
REMARK                         _______ _______ _______ _____ _____    ______ ____
ROOT
ATOM      1  N   UNL     1       0.207  -0.462   0.382  0.00  0.00    +0.390 N 
ATOM      2  C   UNL     1      -2.608   0.324   0.605  0.00  0.00    +0.000 C 
ATOM      3  C   UNL     1      -2.176  -1.042   0.062  0.00  0.00    -0.023 C 
ATOM      4  C   UNL     1      -1.523   0.878   1.535  0.00  0.00    -0.023 C 
ATOM      5  C   UNL     1      -0.785  -0.975  -0.572  0.00  0.00    -0.077 C 
ATOM      6  C   UNL     1      -0.154   0.882   0.852  0.00  0.00    -0.077 C 
ATOM      7  H   UNL     1       0.219  -1.085   1.189  0.00  0.00    -0.079 HD
ENDROOT
BRANCH   1   8
ATOM      8  C   UNL     1       1.540  -0.452  -0.222  0.00  0.00    -0.026 C 
ATOM      9  C   UNL     1       1.866  -1.879  -0.670  0.00  0.00    -0.020 C 
BRANCH   8  10
ATOM     10  C   UNL     1       2.566   0.100   0.793  0.00  0.00    +0.114 C 
BRANCH  10  11
ATOM     11  C   UNL     1       3.973   0.200   0.244  0.00  0.00    +0.002 C 
ATOM     12  C   UNL     1       4.395   1.391  -0.318  0.00  0.00    +0.001 C 
ATOM     13  C   UNL     1       4.805  -0.903   0.318  0.00  0.00    +0.001 C 
ATOM     14  C   UNL     1       5.692   1.483  -0.824  0.00  0.00    +0.036 C 
ATOM     15  C   UNL     1       6.102  -0.812  -0.188  0.00  0.00    +0.036 C 
ATOM     16  C   UNL     1       6.545   0.381  -0.759  0.00  0.00    +0.134 C 
BRANCH  16  17
ATOM     17  O   UNL     1       7.810   0.471  -1.253  0.00  0.00    -0.506 OA
ATOM     18  H   UNL     1       8.108   1.273  -1.636  0.00  0.00    +0.292 HD
ENDBRANCH  16  17
ENDBRANCH  10  11
BRANCH  10  19
ATOM     19  O   UNL     1       2.628  -0.756   1.937  0.00  0.00    -0.382 OA
ATOM     20  H   UNL     1       1.742  -0.847   2.322  0.00  0.00    +0.211 HD
ENDBRANCH  10  19
ENDBRANCH   8  10
ENDBRANCH   1   8
BRANCH   2  21
ATOM     21  C   UNL     1      -3.951   0.229   1.324  0.00  0.00    +0.026 C 
BRANCH  21  22
ATOM     22  C   UNL     1      -5.099   0.192   0.353  0.00  0.00    -0.022 C 
ATOM     23  C   UNL     1      -5.689   1.380  -0.057  0.00  0.00    -0.004 C 
ATOM     24  C   UNL     1      -5.554  -1.031  -0.122  0.00  0.00    -0.004 C 
ATOM     25  C   UNL     1      -6.753   1.345  -0.957  0.00  0.00    -0.000 C 
ATOM     26  C   UNL     1      -6.619  -1.066  -1.023  0.00  0.00    -0.000 C 
ATOM     27  C   UNL     1      -7.218   0.122  -1.440  0.00  0.00    -0.000 C 
ENDBRANCH  21  22
ENDBRANCH   2  21
TORSDOF 7
