REMARK  Name = 24901696
REMARK  4 active torsions:
REMARK  status: ('A' for Active; 'I' for Inactive)
REMARK    1  A    between atoms: C_5  and  C_16
REMARK    2  A    between atoms: C_7  and  C_10
REMARK    3  A    between atoms: C_16  and  C_17
REMARK    4  A    between atoms: C_22  and  O_23
REMARK                            x       y       z     vdW  Elec       q    Type
REMARK                         _______ _______ _______ _____ _____    ______ ____
ROOT
ATOM      1  N   UNL     1       0.027   1.706  -0.265  0.00  0.00    -0.195 N 
ATOM      2  N   UNL     1       0.761   0.578  -0.432  0.00  0.00    -0.163 NA
ATOM      3  N   UNL     1      -1.609   3.159  -0.399  0.00  0.00    -0.131 NA
ATOM      4  N   UNL     1      -0.601   3.715   0.363  0.00  0.00    -0.127 NA
ATOM      5  C   UNL     1      -1.217   1.959  -0.764  0.00  0.00    +0.168 A 
ATOM      6  C   UNL     1       0.376   2.836   0.438  0.00  0.00    +0.186 A 
ATOM      7  C   UNL     1       1.924   0.615   0.153  0.00  0.00    +0.101 C 
ATOM      8  C   UNL     1       1.633   2.841   1.075  0.00  0.00    +0.042 C 
ATOM      9  C   UNL     1       2.429   1.769   0.965  0.00  0.00    +0.024 C 
ENDROOT
BRANCH   7  10
ATOM     10  C   UNL     1       2.826  -0.561   0.038  0.00  0.00    +0.019 C 
ATOM     11  C   UNL     1       4.209  -0.387   0.083  0.00  0.00    +0.002 C 
ATOM     12  C   UNL     1       2.288  -1.840  -0.113  0.00  0.00    +0.002 C 
ATOM     13  C   UNL     1       5.055  -1.491  -0.025  0.00  0.00    +0.000 C 
ATOM     14  C   UNL     1       3.134  -2.943  -0.221  0.00  0.00    +0.000 C 
ATOM     15  C   UNL     1       4.518  -2.769  -0.176  0.00  0.00    +0.000 C 
ENDBRANCH   7  10
BRANCH   5  16
ATOM     16  C   UNL     1      -1.966   0.992  -1.587  0.00  0.00    +0.094 C 
BRANCH  16  17
ATOM     17  C   UNL     1      -2.624  -0.133  -0.800  0.00  0.00    -0.014 C 
ATOM     18  C   UNL     1      -2.353  -1.462  -1.124  0.00  0.00    -0.001 C 
ATOM     19  C   UNL     1      -3.499   0.166   0.244  0.00  0.00    -0.001 C 
ATOM     20  C   UNL     1      -2.957  -2.493  -0.403  0.00  0.00    +0.036 C 
ATOM     21  C   UNL     1      -4.103  -0.864   0.965  0.00  0.00    +0.036 C 
ATOM     22  C   UNL     1      -3.832  -2.193   0.641  0.00  0.00    +0.134 C 
BRANCH  22  23
ATOM     23  O   UNL     1      -4.421  -3.199   1.344  0.00  0.00    -0.506 OA
ATOM     24  H   UNL     1      -4.239  -4.092   1.127  0.00  0.00    +0.292 HD
ENDBRANCH  22  23
ENDBRANCH  16  17
ENDBRANCH   5  16
TORSDOF 4
