REMARK  Name = 24755476
REMARK  3 active torsions:
REMARK  status: ('A' for Active; 'I' for Inactive)
REMARK    1  A    between atoms: N_2  and  C_24
REMARK    2  A    between atoms: C_5  and  C_14
REMARK    3  A    between atoms: C_15  and  C_18
REMARK                            x       y       z     vdW  Elec       q    Type
REMARK                         _______ _______ _______ _____ _____    ______ ____
ROOT
ATOM      1  S   UNL     1      -2.485   0.871  -1.406  0.00  0.00    -0.038 S 
ATOM      2  N   UNL     1      -5.013   0.930  -0.599  0.00  0.00    -0.305 N 
ATOM      3  N   UNL     1      -3.497  -0.466   0.554  0.00  0.00    -0.384 NA
ATOM      4  C   UNL     1      -1.428  -0.167  -0.524  0.00  0.00    +0.059 C 
ATOM      5  C   UNL     1       0.586  -1.301   0.141  0.00  0.00    +0.007 C 
ATOM      6  C   UNL     1      -2.152  -0.801   0.491  0.00  0.00    +0.122 C 
ATOM      7  C   UNL     1      -3.779   0.400  -0.391  0.00  0.00    +0.211 C 
ATOM      8  C   UNL     1      -0.057  -0.404  -0.715  0.00  0.00    +0.007 C 
ATOM      9  C   UNL     1      -0.113  -1.943   1.158  0.00  0.00    -0.020 C 
ATOM     10  C   UNL     1      -1.478  -1.703   1.342  0.00  0.00    +0.085 C 
ATOM     11  H   UNL     1      -5.117   1.574  -1.336  0.00  0.00    +0.150 HD
ENDROOT
BRANCH   5  14
ATOM     12  O   UNL     1       2.331  -2.856  -0.293  0.00  0.00    -0.323 OA
ATOM     13  N   UNL     1       4.232  -1.631  -0.247  0.00  0.00    -0.241 NA
ATOM     14  C   UNL     1       1.995  -1.562  -0.032  0.00  0.00    +0.179 C 
ATOM     15  C   UNL     1       3.151  -0.822  -0.005  0.00  0.00    +0.090 C 
ATOM     16  C   UNL     1       3.687  -2.816  -0.409  0.00  0.00    +0.272 C 
BRANCH  15  18
ATOM     17  F   UNL     1       4.244   0.936  -1.892  0.00  0.00    -0.204 F 
ATOM     18  C   UNL     1       3.241   0.584   0.236  0.00  0.00    +0.043 C 
ATOM     19  C   UNL     1       3.791   1.428  -0.729  0.00  0.00    +0.141 C 
ATOM     20  C   UNL     1       2.776   1.112   1.440  0.00  0.00    +0.003 C 
ATOM     21  C   UNL     1       3.875   2.800  -0.490  0.00  0.00    +0.030 C 
ATOM     22  C   UNL     1       2.860   2.484   1.680  0.00  0.00    +0.000 C 
ATOM     23  C   UNL     1       3.410   3.327   0.715  0.00  0.00    +0.002 C 
ENDBRANCH  15  18
ENDBRANCH   5  14
BRANCH   2  24
ATOM     24  C   UNL     1      -6.195   0.610   0.193  0.00  0.00    +0.072 C 
ATOM     25  C   UNL     1      -7.225   1.722   0.043  0.00  0.00    +0.021 C 
ATOM     26  C   UNL     1      -6.756  -0.731  -0.261  0.00  0.00    +0.021 C 
ENDBRANCH   2  24
TORSDOF 3
