REMARK  Name = 691952
REMARK  2 active torsions:
REMARK  status: ('A' for Active; 'I' for Inactive)
REMARK    1  A    between atoms: C_4  and  C_9
REMARK    2  A    between atoms: C_9  and  C_10
REMARK                            x       y       z     vdW  Elec       q    Type
REMARK                         _______ _______ _______ _____ _____    ______ ____
ROOT
ATOM      1  S   UNL     1       1.964   1.110   0.588  0.00  0.00    -0.056 S 
ATOM      2  N   UNL     1       2.957  -0.945  -0.625  0.00  0.00    -0.223 NA
ATOM      3  N   UNL     1       4.218   1.046  -0.822  0.00  0.00    -0.337 N 
ATOM      4  C   UNL     1       1.139  -0.369   0.663  0.00  0.00    +0.033 C 
ATOM      5  C   UNL     1       1.783  -1.345  -0.018  0.00  0.00    +0.103 C 
ATOM      6  C   UNL     1       3.152   0.330  -0.373  0.00  0.00    +0.156 C 
ATOM      7  H   UNL     1       4.301   2.000  -0.595  0.00  0.00    +0.144 HD
ATOM      8  H   UNL     1       4.906   0.609  -1.375  0.00  0.00    +0.144 HD
ENDROOT
BRANCH   4   9
ATOM      9  C   UNL     1      -0.160  -0.458   1.439  0.00  0.00    +0.061 C 
BRANCH   9  10
ATOM     10  C   UNL     1      -1.374  -0.167   0.622  0.00  0.00    -0.017 C 
ATOM     11  C   UNL     1      -2.030  -1.202  -0.045  0.00  0.00    -0.004 C 
ATOM     12  C   UNL     1      -1.852   1.140   0.525  0.00  0.00    -0.004 C 
ATOM     13  C   UNL     1      -3.165  -0.929  -0.809  0.00  0.00    -0.000 C 
ATOM     14  C   UNL     1      -2.987   1.412  -0.239  0.00  0.00    -0.000 C 
ATOM     15  C   UNL     1      -3.644   0.377  -0.906  0.00  0.00    -0.000 C 
ENDBRANCH   9  10
ENDBRANCH   4   9
TORSDOF 2
