REMARK  Name = 16086836
REMARK  8 active torsions:
REMARK  status: ('A' for Active; 'I' for Inactive)
REMARK    1  A    between atoms: C_1  and  C_4
REMARK    2  A    between atoms: C_1  and  C_20
REMARK    3  A    between atoms: N_3  and  C_6
REMARK    4  A    between atoms: C_7  and  O_12
REMARK    5  A    between atoms: C_8  and  O_14
REMARK    6  A    between atoms: C_9  and  C_17
REMARK    7  A    between atoms: C_17  and  O_18
REMARK    8  A    between atoms: C_20  and  C_31
REMARK                            x       y       z     vdW  Elec       q    Type
REMARK                         _______ _______ _______ _____ _____    ______ ____
ROOT
ATOM      1  C   UNL     1       0.316  -1.518   0.594  0.00  0.00    +0.086 C 
ENDROOT
BRANCH   1   4
ATOM      2  O   UNL     1      -1.631  -2.931   0.752  0.00  0.00    -0.275 OA
ATOM      3  N   UNL     1      -1.885  -0.676   0.150  0.00  0.00    -0.279 N 
ATOM      4  C   UNL     1      -1.175  -1.820   0.507  0.00  0.00    +0.226 C 
ATOM      5  H   UNL     1      -1.353   0.140   0.008  0.00  0.00    +0.155 HD
BRANCH   3   6
ATOM      6  C   UNL     1      -3.283  -0.550  -0.032  0.00  0.00    +0.119 C 
ATOM      7  C   UNL     1      -3.899   0.664   0.229  0.00  0.00    +0.156 C 
ATOM      8  C   UNL     1      -4.013  -1.646  -0.468  0.00  0.00    +0.150 C 
ATOM      9  C   UNL     1      -5.277   0.787   0.050  0.00  0.00    +0.110 C 
ATOM     10  C   UNL     1      -5.391  -1.524  -0.647  0.00  0.00    +0.038 C 
ATOM     11  C   UNL     1      -6.023  -0.307  -0.388  0.00  0.00    +0.013 C 
BRANCH   7  12
ATOM     12  O   UNL     1      -3.171   1.737   0.658  0.00  0.00    -0.504 OA
ATOM     13  H   UNL     1      -2.245   1.656   0.779  0.00  0.00    +0.292 HD
ENDBRANCH   7  12
BRANCH   8  14
ATOM     14  O   UNL     1      -3.416  -2.844  -0.726  0.00  0.00    -0.504 OA
ATOM     15  H   UNL     1      -2.492  -2.942  -0.610  0.00  0.00    +0.292 HD
ENDBRANCH   8  14
BRANCH   9  17
ATOM     16  O   UNL     1      -5.608   2.887   1.146  0.00  0.00    -0.245 OA
ATOM     17  C   UNL     1      -5.958   2.046   0.314  0.00  0.00    +0.341 C 
BRANCH  17  18
ATOM     18  O   UNL     1      -7.056   2.216  -0.472  0.00  0.00    -0.477 OA
ATOM     19  H   UNL     1      -7.293   1.557  -1.094  0.00  0.00    +0.295 HD
ENDBRANCH  17  18
ENDBRANCH   9  17
ENDBRANCH   3   6
ENDBRANCH   1   4
BRANCH   1  20
ATOM     20  C   UNL     1       1.068  -1.723  -0.707  0.00  0.00    +0.017 C 
BRANCH  20  31
ATOM     21  O   UNL     1       2.242   2.347   0.069  0.00  0.00    -0.361 OA
ATOM     22  O   UNL     1       2.857  -3.616   0.494  0.00  0.00    -0.296 OA
ATOM     23  C   UNL     1       4.262   0.350   0.394  0.00  0.00    +0.005 C 
ATOM     24  C   UNL     1       2.779   0.013  -0.018  0.00  0.00    +0.034 C 
ATOM     25  C   UNL     1       4.279   2.175  -1.148  0.00  0.00    +0.027 C 
ATOM     26  C   UNL     1       3.658   2.632   0.200  0.00  0.00    +0.093 C 
ATOM     27  C   UNL     1       2.182   1.204  -0.829  0.00  0.00    +0.115 C 
ATOM     28  C   UNL     1       5.079   0.922  -0.782  0.00  0.00    +0.003 C 
ATOM     29  C   UNL     1       4.198   1.641   1.247  0.00  0.00    +0.027 C 
ATOM     30  C   UNL     1       3.062   1.732  -1.947  0.00  0.00    +0.032 C 
ATOM     31  C   UNL     1       2.575  -1.436  -0.545  0.00  0.00    +0.054 C 
ATOM     32  C   UNL     1       4.974  -0.820   1.074  0.00  0.00    +0.008 C 
ATOM     33  C   UNL     1       3.861   4.088   0.554  0.00  0.00    +0.030 C 
ATOM     34  C   UNL     1       3.997  -1.848   1.626  0.00  0.00    +0.064 C 
ATOM     35  C   UNL     1       3.125  -2.412   0.518  0.00  0.00    +0.150 C 
ATOM     36  C   UNL     1       3.272  -1.769  -1.867  0.00  0.00    +0.007 C 
ENDBRANCH  20  31
ENDBRANCH   1  20
TORSDOF 8
