REMARK  Name = 6852129
REMARK  3 active torsions:
REMARK  status: ('A' for Active; 'I' for Inactive)
REMARK    1  A    between atoms: C_5  and  S_10
REMARK    2  A    between atoms: C_8  and  O_16
REMARK    3  A    between atoms: S_10  and  N_13
REMARK                            x       y       z     vdW  Elec       q    Type
REMARK                         _______ _______ _______ _____ _____    ______ ____
ROOT
ATOM      1  S   UNL     1      -0.570   1.501  -0.044  0.00  0.00    -0.033 S 
ATOM      2  N   UNL     1      -0.662  -1.076  -0.038  0.00  0.00    -0.380 NA
ATOM      3  C   UNL     1       0.931   0.653  -0.016  0.00  0.00    +0.062 C 
ATOM      4  C   UNL     1       0.679  -0.722  -0.015  0.00  0.00    +0.122 C 
ATOM      5  C   UNL     1      -1.403   0.007  -0.053  0.00  0.00    +0.282 C 
ATOM      6  C   UNL     1       2.237   1.169   0.005  0.00  0.00    +0.045 C 
ATOM      7  C   UNL     1       1.776  -1.611   0.007  0.00  0.00    +0.089 C 
ATOM      8  C   UNL     1       3.304   0.267   0.027  0.00  0.00    +0.130 C 
ATOM      9  C   UNL     1       3.079  -1.105   0.028  0.00  0.00    +0.018 C 
ENDROOT
BRANCH   5  10
ATOM     10  S   UNL     1      -3.141   0.038  -0.084  0.00  0.00    +0.091 S 
ATOM     11  O   UNL     1      -3.527   1.309  -0.698  0.00  0.00    -0.150 OA
ATOM     12  O   UNL     1      -3.550  -1.223  -0.700  0.00  0.00    -0.150 OA
BRANCH  10  13
ATOM     13  N   UNL     1      -3.737   0.053   1.534  0.00  0.00    -0.201 NA
ATOM     14  H   UNL     1      -4.757   0.071   1.520  0.00  0.00    +0.144 HD
ATOM     15  H   UNL     1      -3.389   0.881   2.017  0.00  0.00    +0.144 HD
ENDBRANCH  10  13
ENDBRANCH   5  10
BRANCH   8  16
ATOM     16  O   UNL     1       4.582   0.741   0.049  0.00  0.00    -0.506 OA
ATOM     17  H   UNL     1       4.739   1.665   0.048  0.00  0.00    +0.292 HD
ENDBRANCH   8  16
TORSDOF 3
