REMARK  Name = 25295
REMARK  5 active torsions:
REMARK  status: ('A' for Active; 'I' for Inactive)
REMARK    1  A    between atoms: N_1  and  C_8
REMARK    2  A    between atoms: N_1  and  C_14
REMARK    3  A    between atoms: C_8  and  C_9
REMARK    4  A    between atoms: C_9  and  N_10
REMARK    5  A    between atoms: C_14  and  C_16
REMARK                            x       y       z     vdW  Elec       q    Type
REMARK                         _______ _______ _______ _____ _____    ______ ____
ROOT
ATOM      1  N   UNL     1       0.606   0.155   0.590  0.00  0.00    -0.291 N 
ATOM      2  N   UNL     1       0.804  -2.170   1.072  0.00  0.00    -0.229 NA
ATOM      3  C   UNL     1       0.968  -1.142   0.198  0.00  0.00    +0.132 C 
ATOM      4  C   UNL     1       1.485  -1.313  -1.083  0.00  0.00    +0.034 C 
ATOM      5  C   UNL     1       1.848  -2.593  -1.486  0.00  0.00    +0.004 C 
ATOM      6  C   UNL     1       1.169  -3.400   0.646  0.00  0.00    +0.100 C 
ATOM      7  C   UNL     1       1.690  -3.662  -0.611  0.00  0.00    +0.021 C 
ENDROOT
BRANCH   1   8
ATOM      8  C   UNL     1       1.292   1.315   0.074  0.00  0.00    +0.070 C 
BRANCH   8   9
ATOM      9  C   UNL     1       2.762   1.260   0.470  0.00  0.00    -0.056 C 
BRANCH   9  10
ATOM     10  N   UNL     1       3.479   2.415  -0.069  0.00  0.00    +0.385 N 
ATOM     11  C   UNL     1       3.359   2.458  -1.526  0.00  0.00    -0.101 C 
ATOM     12  C   UNL     1       4.886   2.374   0.328  0.00  0.00    -0.101 C 
ATOM     13  H   UNL     1       3.060   3.263   0.315  0.00  0.00    -0.080 HD
ENDBRANCH   9  10
ENDBRANCH   8   9
ENDBRANCH   1   8
BRANCH   1  14
ATOM     14  C   UNL     1      -0.479   0.353   1.552  0.00  0.00    +0.119 C 
BRANCH  14  16
ATOM     15 CL   UNL     1      -5.756   0.733  -1.283  0.00  0.00    -0.082 Cl
ATOM     16  C   UNL     1      -1.801   0.448   0.842  0.00  0.00    -0.002 C 
ATOM     17  C   UNL     1      -2.268   1.688   0.425  0.00  0.00    -0.002 C 
ATOM     18  C   UNL     1      -2.540  -0.705   0.612  0.00  0.00    -0.002 C 
ATOM     19  C   UNL     1      -3.494   1.777  -0.233  0.00  0.00    +0.011 C 
ATOM     20  C   UNL     1      -3.767  -0.616  -0.047  0.00  0.00    +0.011 C 
ATOM     21  C   UNL     1      -4.244   0.625  -0.469  0.00  0.00    +0.058 C 
ENDBRANCH  14  16
ENDBRANCH   1  14
TORSDOF 5
