REMARK  Name = 25155578
REMARK  5 active torsions:
REMARK  status: ('A' for Active; 'I' for Inactive)
REMARK    1  A    between atoms: N_2  and  C_18
REMARK    2  A    between atoms: C_7  and  C_12
REMARK    3  A    between atoms: C_18  and  C_19
REMARK    4  A    between atoms: C_19  and  C_26
REMARK    5  A    between atoms: C_22  and  C_29
REMARK                            x       y       z     vdW  Elec       q    Type
REMARK                         _______ _______ _______ _____ _____    ______ ____
ROOT
ATOM      1  O   UNL     1      -0.227   1.083   2.035  0.00  0.00    -0.267 OA
ATOM      2  N   UNL     1      -2.054  -0.152   1.277  0.00  0.00    -0.265 N 
ATOM      3  N   UNL     1      -2.083   1.624  -0.916  0.00  0.00    -0.400 NA
ATOM      4  C   UNL     1      -2.985  -0.351   0.221  0.00  0.00    +0.150 C 
ATOM      5  C   UNL     1      -1.127   0.886   1.226  0.00  0.00    +0.279 C 
ATOM      6  C   UNL     1      -2.961   0.537  -0.860  0.00  0.00    +0.131 C 
ATOM      7  C   UNL     1      -1.240   1.826   0.045  0.00  0.00    +0.184 C 
ATOM      8  C   UNL     1      -3.911  -1.407   0.220  0.00  0.00    +0.000 C 
ATOM      9  C   UNL     1      -3.856   0.358  -1.925  0.00  0.00    +0.030 C 
ATOM     10  C   UNL     1      -4.798  -1.575  -0.846  0.00  0.00    -0.002 C 
ATOM     11  C   UNL     1      -4.770  -0.693  -1.919  0.00  0.00    +0.002 C 
ENDROOT
BRANCH   7  12
ATOM     12  C   UNL     1      -0.358   3.014  -0.032  0.00  0.00    +0.034 C 
ATOM     13  C   UNL     1      -0.402   3.980   0.973  0.00  0.00    +0.003 C 
ATOM     14  C   UNL     1       0.515   3.166  -1.108  0.00  0.00    +0.003 C 
ATOM     15  C   UNL     1       0.429   5.099   0.902  0.00  0.00    +0.000 C 
ATOM     16  C   UNL     1       1.346   4.285  -1.180  0.00  0.00    +0.000 C 
ATOM     17  C   UNL     1       1.302   5.251  -0.175  0.00  0.00    +0.000 C 
ENDBRANCH   7  12
BRANCH   2  18
ATOM     18  C   UNL     1      -2.037  -1.073   2.408  0.00  0.00    +0.104 C 
BRANCH  18  19
ATOM     19  C   UNL     1      -1.394  -2.398   2.058  0.00  0.00    +0.107 C 
BRANCH  19  26
ATOM     20  O   UNL     1       0.842  -1.670   2.429  0.00  0.00    -0.275 OA
ATOM     21  N   UNL     1       0.363  -2.596   0.363  0.00  0.00    -0.273 N 
ATOM     22  C   UNL     1       1.732  -2.613  -0.134  0.00  0.00    +0.152 C 
ATOM     23  C   UNL     1       1.692  -3.533  -1.349  0.00  0.00    +0.031 C 
ATOM     24  C   UNL     1       0.265  -3.374  -1.867  0.00  0.00    +0.024 C 
ATOM     25  C   UNL     1      -0.553  -3.212  -0.595  0.00  0.00    +0.094 C 
ATOM     26  C   UNL     1       0.042  -2.186   1.648  0.00  0.00    +0.228 C 
BRANCH  22  29
ATOM     27  O   UNL     1       1.209  -0.429  -0.904  0.00  0.00    -0.273 OA
ATOM     28  N   UNL     1       3.419  -0.871  -0.395  0.00  0.00    -0.278 N 
ATOM     29  C   UNL     1       2.082  -1.205  -0.512  0.00  0.00    +0.244 C 
ATOM     30  C   UNL     1       3.921   0.454  -0.729  0.00  0.00    +0.094 C 
ATOM     31  C   UNL     1       4.498  -1.739   0.064  0.00  0.00    +0.094 C 
ATOM     32  C   UNL     1       5.329   0.484  -0.156  0.00  0.00    +0.023 C 
ATOM     33  C   UNL     1       5.770  -0.970  -0.267  0.00  0.00    +0.023 C 
ENDBRANCH  22  29
ENDBRANCH  19  26
ENDBRANCH  18  19
ENDBRANCH   2  18
TORSDOF 5
