REMARK  Name = 46937132
REMARK  4 active torsions:
REMARK  status: ('A' for Active; 'I' for Inactive)
REMARK    1  A    between atoms: N_2  and  C_9
REMARK    2  A    between atoms: N_2  and  O_29
REMARK    3  A    between atoms: C_5  and  C_17
REMARK    4  A    between atoms: C_18  and  C_24
REMARK                            x       y       z     vdW  Elec       q    Type
REMARK                         _______ _______ _______ _____ _____    ______ ____
ROOT
ATOM      1  N   UNL     1      -2.839  -0.212  -2.043  0.00  0.00    -0.333 NA
ATOM      2  N   UNL     1      -4.740   0.260  -0.648  0.00  0.00    -0.333 NA
ATOM      3  N   UNL     1      -4.884   0.452  -2.979  0.00  0.00    -0.283 N 
ATOM      4  C   UNL     1       0.197  -0.581   0.041  0.00  0.00    +0.035 C 
ATOM      5  C   UNL     1      -0.690  -0.918  -1.166  0.00  0.00    +0.065 C 
ATOM      6  C   UNL     1      -0.398  -1.209   1.305  0.00  0.00    +0.053 C 
ATOM      7  C   UNL     1      -2.114  -0.489  -0.934  0.00  0.00    +0.126 C 
ATOM      8  C   UNL     1      -1.825  -0.745   1.535  0.00  0.00    +0.090 C 
ATOM      9  C   UNL     1      -2.653  -0.421   0.347  0.00  0.00    +0.068 C 
ATOM     10  C   UNL     1      -3.980  -0.035   0.428  0.00  0.00    +0.126 C 
ATOM     11  C   UNL     1      -4.117   0.151  -1.833  0.00  0.00    +0.195 C 
ATOM     12  C   UNL     1      -4.720   0.083   1.722  0.00  0.00    +0.068 C 
ATOM     13  H   UNL     1      -4.477   0.389  -3.874  0.00  0.00    +0.156 HD
ATOM     14  H   UNL     1      -5.825   0.724  -2.884  0.00  0.00    +0.156 HD
ENDROOT
BRANCH   4  16
ATOM     15  F   UNL     1       5.527  -2.249  -0.785  0.00  0.00    -0.204 F 
ATOM     16  C   UNL     1       1.637  -1.001  -0.180  0.00  0.00    -0.022 C 
ATOM     17  C   UNL     1       2.675  -0.069  -0.194  0.00  0.00    -0.000 C 
ATOM     18  C   UNL     1       1.914  -2.355  -0.372  0.00  0.00    -0.002 C 
ATOM     19  C   UNL     1       3.989  -0.491  -0.398  0.00  0.00    +0.029 C 
ATOM     20  C   UNL     1       3.227  -2.777  -0.577  0.00  0.00    +0.029 C 
ATOM     21  C   UNL     1       4.265  -1.844  -0.590  0.00  0.00    +0.140 C 
BRANCH  17  23
ATOM     22  N   UNL     1       1.896   3.500  -0.960  0.00  0.00    -0.242 NA
ATOM     23  C   UNL     1       2.414   1.343   0.002  0.00  0.00    +0.019 C 
ATOM     24  C   UNL     1       2.425   1.905   1.274  0.00  0.00    +0.003 C 
ATOM     25  C   UNL     1       2.147   2.176  -1.072  0.00  0.00    +0.099 C 
ATOM     26  C   UNL     1       2.171   3.263   1.431  0.00  0.00    +0.021 C 
ATOM     27  C   UNL     1       1.915   4.010   0.292  0.00  0.00    +0.099 C 
ENDBRANCH  17  23
ENDBRANCH   4  16
BRANCH   8  28
ATOM     28  N   UNL     1      -2.245  -0.687   2.757  0.00  0.00    -0.139 NA
BRANCH  28  29
ATOM     29  O   UNL     1      -1.196  -1.059   3.597  0.00  0.00    -0.266 OA
ATOM     30  H   UNL     1      -1.322  -1.075   4.525  0.00  0.00    +0.247 HD
ENDBRANCH  28  29
ENDBRANCH   8  28
TORSDOF 4
