REMARK  Name = 1484819
REMARK  3 active torsions:
REMARK  status: ('A' for Active; 'I' for Inactive)
REMARK    1  A    between atoms: N_2  and  C_8
REMARK    2  A    between atoms: C_5  and  C_16
REMARK    3  A    between atoms: C_16  and  C_17
REMARK                            x       y       z     vdW  Elec       q    Type
REMARK                         _______ _______ _______ _____ _____    ______ ____
ROOT
ATOM      1  S   UNL     1       0.612   0.163   1.495  0.00  0.00    -0.052 S 
ATOM      2  N   UNL     1       3.145  -0.418   0.928  0.00  0.00    -0.307 N 
ATOM      3  N   UNL     1       1.785   0.475  -0.788  0.00  0.00    -0.370 NA
ATOM      4  C   UNL     1       1.950   0.073   0.440  0.00  0.00    +0.209 C 
ATOM      5  C   UNL     1      -0.309   0.809   0.200  0.00  0.00    +0.183 C 
ATOM      6  C   UNL     1       0.478   0.900  -0.928  0.00  0.00    +0.174 C 
ATOM      7  H   UNL     1       3.184  -0.699   1.870  0.00  0.00    +0.150 HD
ATOM      8  N   UNL     1       0.039   1.373  -2.119  0.00  0.00    -0.335 N 
ATOM      9  H   UNL     1       0.651   1.414  -2.889  0.00  0.00    +0.144 HD
ATOM     10  H   UNL     1      -0.893   1.676  -2.215  0.00  0.00    +0.144 HD
ENDROOT
BRANCH   2  11
ATOM     11  C   UNL     1       4.347  -0.541   0.123  0.00  0.00    +0.057 C 
ATOM     12  C   UNL     1       5.475  -1.121   0.984  0.00  0.00    +0.020 C 
ATOM     13  C   UNL     1       4.065  -1.473  -1.060  0.00  0.00    +0.020 C 
ATOM     14  C   UNL     1       4.755   0.844  -0.393  0.00  0.00    +0.020 C 
ENDBRANCH   2  11
BRANCH   5  16
ATOM     15  O   UNL     1      -2.062   2.274   0.799  0.00  0.00    -0.290 OA
ATOM     16  C   UNL     1      -1.678   1.150   0.410  0.00  0.00    +0.191 C 
BRANCH  16  17
ATOM     17  C   UNL     1      -2.774   0.152   0.186  0.00  0.00    +0.036 C 
ATOM     18  C   UNL     1      -2.433  -1.108  -0.241  0.00  0.00    +0.003 C 
ATOM     19  C   UNL     1      -4.069   0.543   0.419  0.00  0.00    +0.003 C 
ATOM     20  C   UNL     1      -3.454  -2.036  -0.447  0.00  0.00    +0.000 C 
ATOM     21  C   UNL     1      -5.090  -0.385   0.212  0.00  0.00    +0.000 C 
ATOM     22  C   UNL     1      -4.782  -1.675  -0.221  0.00  0.00    +0.000 C 
ENDBRANCH  16  17
ENDBRANCH   5  16
TORSDOF 3
