REMARK  Name = 25195339
REMARK  8 active torsions:
REMARK  status: ('A' for Active; 'I' for Inactive)
REMARK    1  A    between atoms: C_3  and  O_8
REMARK    2  A    between atoms: C_4  and  O_10
REMARK    3  A    between atoms: C_5  and  C_25
REMARK    4  A    between atoms: C_7  and  O_12
REMARK    5  A    between atoms: O_12  and  C_13
REMARK    6  A    between atoms: C_14  and  N_21
REMARK    7  A    between atoms: C_18  and  N_24
REMARK    8  A    between atoms: C_25  and  O_26
REMARK                            x       y       z     vdW  Elec       q    Type
REMARK                         _______ _______ _______ _____ _____    ______ ____
ROOT
ATOM      1  F   UNL     1       2.791   1.935  -0.093  0.00  0.00    -0.228 F 
ATOM      2  O   UNL     1       1.441  -0.462   0.351  0.00  0.00    -0.316 OA
ATOM      3  C   UNL     1       3.865  -0.728   0.228  0.00  0.00    +0.170 C 
ATOM      4  C   UNL     1       3.885   0.104  -1.056  0.00  0.00    +0.179 C 
ATOM      5  C   UNL     1       2.505  -1.417   0.399  0.00  0.00    +0.177 C 
ATOM      6  C   UNL     1       2.678   1.028  -1.110  0.00  0.00    +0.259 C 
ATOM      7  C   UNL     1       1.389   0.246  -0.889  0.00  0.00    +0.324 C 
ENDROOT
BRANCH   3   8
ATOM      8  O   UNL     1       4.884  -1.723   0.168  0.00  0.00    -0.379 OA
ATOM      9  H   UNL     1       5.748  -1.295   0.060  0.00  0.00    +0.211 HD
ENDBRANCH   3   8
BRANCH   4  10
ATOM     10  O   UNL     1       5.064   0.899  -1.119  0.00  0.00    -0.379 OA
ATOM     11  H   UNL     1       5.844   0.325  -1.085  0.00  0.00    +0.211 HD
ENDBRANCH   4  10
BRANCH   7  12
ATOM     12  O   UNL     1       0.303   1.167  -0.900  0.00  0.00    -0.449 OA
BRANCH  12  13
ATOM     13  C   UNL     1      -0.951   0.643  -0.731  0.00  0.00    +0.164 C 
ATOM     14  C   UNL     1      -1.757   1.033   0.338  0.00  0.00    +0.178 C 
ATOM     15  C   UNL     1      -1.419  -0.295  -1.652  0.00  0.00    +0.040 C 
ATOM     16  C   UNL     1      -3.031   0.485   0.487  0.00  0.00    +0.051 C 
ATOM     17  C   UNL     1      -2.693  -0.843  -1.502  0.00  0.00    +0.027 C 
ATOM     18  C   UNL     1      -3.499  -0.453  -0.433  0.00  0.00    +0.145 C 
BRANCH  14  21
ATOM     19  O   UNL     1      -0.679   1.586   2.300  0.00  0.00    -0.126 OA
ATOM     20  O   UNL     1      -1.519   3.204   1.077  0.00  0.00    -0.126 OA
ATOM     21  N   UNL     1      -1.295   1.988   1.285  0.00  0.00    +0.061 N 
ENDBRANCH  14  21
BRANCH  18  24
ATOM     22  O   UNL     1      -5.197  -1.853  -1.121  0.00  0.00    -0.126 OA
ATOM     23  O   UNL     1      -5.505  -0.646   0.688  0.00  0.00    -0.126 OA
ATOM     24  N   UNL     1      -4.796  -1.010  -0.281  0.00  0.00    +0.058 N 
ENDBRANCH  18  24
ENDBRANCH  12  13
ENDBRANCH   7  12
BRANCH   5  25
ATOM     25  C   UNL     1       2.407  -2.145   1.736  0.00  0.00    +0.169 C 
BRANCH  25  26
ATOM     26  O   UNL     1       1.128  -2.745   1.830  0.00  0.00    -0.379 OA
ATOM     27  H   UNL     1       1.051  -3.212   2.677  0.00  0.00    +0.211 HD
ENDBRANCH  25  26
ENDBRANCH   5  25
TORSDOF 8
