REMARK  Name = 501640
REMARK  13 active torsions:
REMARK  status: ('A' for Active; 'I' for Inactive)
REMARK    1  A    between atoms: N_1  and  C_14
REMARK    2  A    between atoms: C_2  and  C_23
REMARK    3  A    between atoms: C_3  and  O_8
REMARK    4  A    between atoms: C_4  and  O_10
REMARK    5  A    between atoms: C_6  and  O_12
REMARK    6  A    between atoms: C_14  and  C_15
REMARK    7  A    between atoms: C_15  and  C_16
REMARK    8  A    between atoms: C_16  and  C_17
REMARK    9  A    between atoms: C_17  and  C_18
REMARK   10  A    between atoms: C_18  and  C_19
REMARK   11  A    between atoms: C_19  and  C_20
REMARK   12  A    between atoms: C_20  and  C_21
REMARK   13  A    between atoms: C_23  and  O_24
REMARK                            x       y       z     vdW  Elec       q    Type
REMARK                         _______ _______ _______ _____ _____    ______ ____
ROOT
ATOM      1  N   UNL     1      -1.789  -0.343   0.713  0.00  0.00    +0.393 N 
ATOM      2  C   UNL     1      -2.881  -1.141   0.110  0.00  0.00    +0.002 C 
ATOM      3  C   UNL     1      -3.554  -0.360  -1.045  0.00  0.00    +0.123 C 
ATOM      4  C   UNL     1      -4.021   1.031  -0.613  0.00  0.00    +0.160 C 
ATOM      5  C   UNL     1      -2.290   0.948   1.208  0.00  0.00    -0.045 C 
ATOM      6  C   UNL     1      -2.897   1.784   0.086  0.00  0.00    +0.119 C 
ATOM      7  H   UNL     1      -1.109  -0.188  -0.032  0.00  0.00    -0.079 HD
ENDROOT
BRANCH   3   8
ATOM      8  O   UNL     1      -4.696  -1.097  -1.490  0.00  0.00    -0.384 OA
ATOM      9  H   UNL     1      -4.420  -1.984  -1.768  0.00  0.00    +0.210 HD
ENDBRANCH   3   8
BRANCH   4  10
ATOM     10  O   UNL     1      -4.402   1.783  -1.766  0.00  0.00    -0.380 OA
ATOM     11  H   UNL     1      -5.118   1.323  -2.231  0.00  0.00    +0.211 HD
ENDBRANCH   4  10
BRANCH   6  12
ATOM     12  O   UNL     1      -3.416   2.984   0.658  0.00  0.00    -0.384 OA
ATOM     13  H   UNL     1      -3.808   3.532  -0.040  0.00  0.00    +0.210 HD
ENDBRANCH   6  12
BRANCH   1  14
ATOM     14  C   UNL     1      -1.114  -1.045   1.809  0.00  0.00    -0.077 C 
BRANCH  14  15
ATOM     15  C   UNL     1       0.280  -0.477   2.081  0.00  0.00    -0.023 C 
BRANCH  15  16
ATOM     16  C   UNL     1       1.277  -0.596   0.922  0.00  0.00    -0.002 C 
BRANCH  16  17
ATOM     17  C   UNL     1       2.672  -0.070   1.264  0.00  0.00    -0.000 C 
BRANCH  17  18
ATOM     18  C   UNL     1       3.627  -0.218   0.077  0.00  0.00    -0.000 C 
BRANCH  18  19
ATOM     19  C   UNL     1       5.032   0.278   0.427  0.00  0.00    -0.000 C 
BRANCH  19  20
ATOM     20  C   UNL     1       5.976   0.158  -0.772  0.00  0.00    +0.000 C 
BRANCH  20  21
ATOM     21  C   UNL     1       7.403   0.620  -0.468  0.00  0.00    +0.000 C 
ATOM     22  C   UNL     1       8.339   0.527  -1.663  0.00  0.00    +0.000 C 
ENDBRANCH  20  21
ENDBRANCH  19  20
ENDBRANCH  18  19
ENDBRANCH  17  18
ENDBRANCH  16  17
ENDBRANCH  15  16
ENDBRANCH  14  15
ENDBRANCH   1  14
BRANCH   2  23
ATOM     23  C   UNL     1      -2.382  -2.494  -0.429  0.00  0.00    +0.119 C 
BRANCH  23  24
ATOM     24  O   UNL     1      -1.165  -2.271  -1.107  0.00  0.00    -0.384 OA
ATOM     25  H   UNL     1      -0.830  -3.112  -1.456  0.00  0.00    +0.210 HD
ENDBRANCH  23  24
ENDBRANCH   2  23
TORSDOF 13
