REMARK  Name = 15951529
REMARK  5 active torsions:
REMARK  status: ('A' for Active; 'I' for Inactive)
REMARK    1  A    between atoms: N_3  and  C_11
REMARK    2  A    between atoms: N_4  and  C_22
REMARK    3  A    between atoms: C_16  and  C_19
REMARK    4  A    between atoms: C_25  and  C_31
REMARK    5  A    between atoms: C_27  and  C_33
REMARK                            x       y       z     vdW  Elec       q    Type
REMARK                         _______ _______ _______ _____ _____    ______ ____
ROOT
ATOM      1  S   UNL     1       0.166   1.115   1.411  0.00  0.00    -0.017 S 
ATOM      2  O   UNL     1       1.328  -3.253  -0.853  0.00  0.00    -0.272 OA
ATOM      3  N   UNL     1      -1.121  -1.010   0.164  0.00  0.00    -0.265 N 
ATOM      4  N   UNL     1       1.145  -1.113   0.097  0.00  0.00    -0.218 N 
ATOM      5  C   UNL     1      -0.834  -2.413  -0.143  0.00  0.00    +0.133 C 
ATOM      6  C   UNL     1       0.679  -2.332  -0.367  0.00  0.00    +0.251 C 
ATOM      7  C   UNL     1      -1.028  -3.352   1.056  0.00  0.00    +0.030 C 
ATOM      8  C   UNL     1      -1.487  -2.945  -1.422  0.00  0.00    +0.030 C 
ATOM      9  C   UNL     1       0.076  -0.306   0.509  0.00  0.00    +0.152 C 
ENDROOT
BRANCH   3  11
ATOM     10  F   UNL     1      -5.899  -1.428   0.525  0.00  0.00    -0.204 F 
ATOM     11  C   UNL     1      -2.434  -0.439   0.071  0.00  0.00    +0.055 C 
ATOM     12  C   UNL     1      -3.552  -1.222   0.347  0.00  0.00    +0.045 C 
ATOM     13  C   UNL     1      -2.585   0.897  -0.295  0.00  0.00    +0.015 C 
ATOM     14  C   UNL     1      -4.829  -0.667   0.257  0.00  0.00    +0.146 C 
ATOM     15  C   UNL     1      -3.862   1.452  -0.385  0.00  0.00    +0.008 C 
ATOM     16  C   UNL     1      -4.984   0.670  -0.109  0.00  0.00    +0.081 C 
BRANCH  16  19
ATOM     17  O   UNL     1      -7.293   0.545  -0.494  0.00  0.00    -0.270 OA
ATOM     18  N   UNL     1      -6.427   2.621   0.068  0.00  0.00    -0.299 N 
ATOM     19  C   UNL     1      -6.313   1.253  -0.204  0.00  0.00    +0.248 C 
ATOM     20  C   UNL     1      -7.681   3.340   0.038  0.00  0.00    +0.111 C 
ATOM     21  H   UNL     1      -5.609   3.122   0.291  0.00  0.00    +0.150 HD
ENDBRANCH  16  19
ENDBRANCH   3  11
BRANCH   4  22
ATOM     22  C   UNL     1       2.534  -0.782   0.093  0.00  0.00    +0.060 C 
ATOM     23  C   UNL     1       2.935   0.546  -0.048  0.00  0.00    +0.020 C 
ATOM     24  C   UNL     1       3.491  -1.788   0.231  0.00  0.00    +0.016 C 
ATOM     25  C   UNL     1       4.292   0.869  -0.051  0.00  0.00    +0.082 C 
ATOM     26  C   UNL     1       4.848  -1.465   0.229  0.00  0.00    +0.012 C 
ATOM     27  C   UNL     1       5.248  -0.136   0.087  0.00  0.00    +0.072 C 
BRANCH  25  31
ATOM     28  F   UNL     1       3.619   3.149  -0.326  0.00  0.00    -0.166 F 
ATOM     29  F   UNL     1       5.405   2.785   0.850  0.00  0.00    -0.166 F 
ATOM     30  F   UNL     1       5.455   2.519  -1.308  0.00  0.00    -0.166 F 
ATOM     31  C   UNL     1       4.684   2.304  -0.204  0.00  0.00    +0.419 C 
ENDBRANCH  25  31
BRANCH  27  33
ATOM     32  N   UNL     1       7.779   0.417   0.086  0.00  0.00    -0.191 NA
ATOM     33  C   UNL     1       6.647   0.169   0.087  0.00  0.00    +0.100 C 
ENDBRANCH  27  33
ENDBRANCH   4  22
TORSDOF 5
