REMARK  Name = 12412578
REMARK  1 active torsions:
REMARK  status: ('A' for Active; 'I' for Inactive)
REMARK    1  A    between atoms: C_4  and  C_12
REMARK                            x       y       z     vdW  Elec       q    Type
REMARK                         _______ _______ _______ _____ _____    ______ ____
ROOT
ATOM      1  N   UNL     1       1.587   1.998  -0.001  0.00  0.00    -0.276 N 
ATOM      2  N   UNL     1       0.244   1.976  -0.003  0.00  0.00    -0.173 NA
ATOM      3  C   UNL     1       1.109  -0.143  -0.001  0.00  0.00    +0.036 A 
ATOM      4  C   UNL     1      -0.043   0.672  -0.003  0.00  0.00    +0.102 A 
ATOM      5  C   UNL     1       2.168   0.758   0.000  0.00  0.00    +0.075 A 
ATOM      6  C   UNL     1       1.379  -1.522   0.000  0.00  0.00    +0.003 C 
ATOM      7  C   UNL     1       3.507   0.360   0.001  0.00  0.00    +0.019 C 
ATOM      8  C   UNL     1       2.715  -1.942   0.002  0.00  0.00    +0.000 C 
ATOM      9  C   UNL     1       3.759  -1.016   0.002  0.00  0.00    +0.002 C 
ATOM     10  H   UNL     1       2.108   2.833  -0.001  0.00  0.00    +0.189 HD
ENDROOT
BRANCH   4  12
ATOM     11  N   UNL     1      -4.072  -0.619   0.002  0.00  0.00    -0.242 NA
ATOM     12  C   UNL     1      -1.416   0.234  -0.001  0.00  0.00    +0.022 C 
ATOM     13  C   UNL     1      -2.075   0.026   1.202  0.00  0.00    +0.022 C 
ATOM     14  C   UNL     1      -2.075   0.018  -1.203  0.00  0.00    +0.022 C 
ATOM     15  C   UNL     1      -3.394  -0.397   1.150  0.00  0.00    +0.099 C 
ATOM     16  C   UNL     1      -3.393  -0.404  -1.148  0.00  0.00    +0.099 C 
ENDBRANCH   4  12
TORSDOF 1
