REMARK  Name = 18719622
REMARK  1 active torsions:
REMARK  status: ('A' for Active; 'I' for Inactive)
REMARK    1  A    between atoms: C_5  and  N_16
REMARK                            x       y       z     vdW  Elec       q    Type
REMARK                         _______ _______ _______ _____ _____    ______ ____
ROOT
ATOM      1  N   UNL     1       1.820   2.149   0.000  0.00  0.00    -0.242 NA
ATOM      2  N   UNL     1       2.983  -0.326   0.000  0.00  0.00    -0.242 NA
ATOM      3  C   UNL     1      -0.363   1.151   0.000  0.00  0.00    +0.033 C 
ATOM      4  C   UNL     1       1.046   1.045   0.000  0.00  0.00    +0.100 C 
ATOM      5  C   UNL     1      -1.162   0.004  -0.001  0.00  0.00    +0.052 C 
ATOM      6  C   UNL     1       0.821  -1.369   0.000  0.00  0.00    +0.020 C 
ATOM      7  C   UNL     1       1.638  -0.217   0.000  0.00  0.00    +0.099 C 
ATOM      8  C   UNL     1      -0.573  -1.252  -0.001  0.00  0.00    +0.016 C 
ATOM      9  C   UNL     1      -0.941   2.429   0.000  0.00  0.00    +0.004 C 
ATOM     10  C   UNL     1       1.435  -2.629   0.000  0.00  0.00    +0.003 C 
ATOM     11  C   UNL     1      -0.138   3.558   0.000  0.00  0.00    +0.021 C 
ATOM     12  C   UNL     1       2.817  -2.732   0.000  0.00  0.00    +0.021 C 
ATOM     13  C   UNL     1       1.227   3.365   0.001  0.00  0.00    +0.099 C 
ATOM     14  C   UNL     1       3.540  -1.559   0.000  0.00  0.00    +0.099 C 
ENDROOT
BRANCH   5  16
ATOM     15  O   UNL     1      -3.221  -2.193   0.003  0.00  0.00    -0.275 OA
ATOM     16  N   UNL     1      -2.561   0.069  -0.001  0.00  0.00    -0.284 N 
ATOM     17  C   UNL     1      -3.471  -0.992  -0.001  0.00  0.00    +0.227 C 
ATOM     18  C   UNL     1      -4.897  -0.501   0.000  0.00  0.00    +0.095 C 
ATOM     19  H   UNL     1      -2.951   0.973  -0.001  0.00  0.00    +0.155 HD
ENDBRANCH   5  16
TORSDOF 1
