REMARK  Name = 54746008
REMARK  4 active torsions:
REMARK  status: ('A' for Active; 'I' for Inactive)
REMARK    1  A    between atoms: C_2  and  N_13
REMARK    2  A    between atoms: C_3  and  N_9
REMARK    3  A    between atoms: C_5  and  C_18
REMARK    4  A    between atoms: C_18  and  O_19
REMARK                            x       y       z     vdW  Elec       q    Type
REMARK                         _______ _______ _______ _____ _____    ______ ____
ROOT
ATOM      1  O   UNL     1       0.738  -2.377   0.377  0.00  0.00    -0.285 OA
ATOM      2  C   UNL     1       0.139   1.167   0.294  0.00  0.00    +0.043 C 
ATOM      3  C   UNL     1       0.826  -0.043   0.390  0.00  0.00    +0.101 C 
ATOM      4  C   UNL     1      -1.242   1.172   0.100  0.00  0.00    +0.020 C 
ATOM      5  C   UNL     1      -1.936  -0.034   0.002  0.00  0.00    +0.080 C 
ATOM      6  C   UNL     1       0.132  -1.249   0.292  0.00  0.00    +0.210 C 
ATOM      7  C   UNL     1      -1.249  -1.244   0.098  0.00  0.00    +0.050 C 
ENDROOT
BRANCH   3   9
ATOM      8  O   UNL     1       3.083  -0.002  -1.603  0.00  0.00    -0.275 OA
ATOM      9  N   UNL     1       2.217  -0.018   0.587  0.00  0.00    -0.280 N 
ATOM     10  C   UNL     1       3.219  -0.001  -0.384  0.00  0.00    +0.227 C 
ATOM     11  C   UNL     1       4.591   0.024   0.240  0.00  0.00    +0.095 C 
ATOM     12  H   UNL     1       2.522  -0.011   1.524  0.00  0.00    +0.155 HD
ENDBRANCH   3   9
BRANCH   2  13
ATOM     13  N   UNL     1       0.834   2.436   0.394  0.00  0.00    -0.414 NA
ATOM     14  H   UNL     1       1.809   2.454   0.531  0.00  0.00    +0.121 HD
ATOM     15  H   UNL     1       0.331   3.280   0.324  0.00  0.00    +0.121 HD
ATOM     16  H   UNL     1       1.479   1.795   0.015  0.00  0.00    +0.121 HD
ENDBRANCH   2  13
BRANCH   5  18
ATOM     17  O   UNL     1      -4.089  -1.033  -0.305  0.00  0.00    -0.245 OA
ATOM     18  C   UNL     1      -3.376  -0.029  -0.204  0.00  0.00    +0.338 C 
BRANCH  18  19
ATOM     19  O   UNL     1      -3.887   1.231  -0.278  0.00  0.00    -0.477 OA
ATOM     20  H   UNL     1      -3.319   1.972  -0.197  0.00  0.00    +0.295 HD
ENDBRANCH  18  19
ENDBRANCH   5  18
TORSDOF 4
