REMARK  Name = 398148
REMARK  4 active torsions:
REMARK  status: ('A' for Active; 'I' for Inactive)
REMARK    1  A    between atoms: C_4  and  O_15
REMARK    2  A    between atoms: C_5  and  N_14
REMARK    3  A    between atoms: O_15  and  C_16
REMARK    4  A    between atoms: C_16  and  C_17
REMARK                            x       y       z     vdW  Elec       q    Type
REMARK                         _______ _______ _______ _____ _____    ______ ____
ROOT
ATOM      1  N   UNL     1      -1.365   1.401  -0.086  0.00  0.00    -0.293 NA
ATOM      2  N   UNL     1      -3.708   0.846  -0.172  0.00  0.00    -0.316 NA
ATOM      3  N   UNL     1      -2.980   3.050  -0.510  0.00  0.00    -0.283 N 
ATOM      4  C   UNL     1      -1.106   0.103   0.167  0.00  0.00    +0.292 C 
ATOM      5  C   UNL     1      -2.078  -0.870   0.265  0.00  0.00    +0.261 C 
ATOM      6  C   UNL     1      -3.375  -0.437   0.085  0.00  0.00    +0.196 C 
ATOM      7  C   UNL     1      -2.669   1.699  -0.243  0.00  0.00    +0.200 C 
ATOM      8  H   UNL     1      -2.259   3.718  -0.572  0.00  0.00    +0.156 HD
ATOM      9  H   UNL     1      -3.917   3.325  -0.633  0.00  0.00    +0.156 HD
ATOM     10  N   UNL     1      -4.432  -1.378   0.170  0.00  0.00    -0.334 N 
ATOM     11  H   UNL     1      -5.364  -1.085   0.044  0.00  0.00    +0.144 HD
ATOM     12  H   UNL     1      -4.235  -2.324   0.355  0.00  0.00    +0.144 HD
ENDROOT
BRANCH   5  14
ATOM     13  O   UNL     1      -1.559  -2.857  -0.494  0.00  0.00    -0.099 OA
ATOM     14  N   UNL     1      -1.761  -2.182   0.526  0.00  0.00    -0.030 NA
ENDBRANCH   5  14
BRANCH   4  15
ATOM     15  O   UNL     1       0.219  -0.220   0.330  0.00  0.00    -0.453 OA
BRANCH  15  16
ATOM     16  C   UNL     1       1.157   0.834   0.215  0.00  0.00    +0.208 C 
BRANCH  16  17
ATOM     17  C   UNL     1       2.557   0.262   0.424  0.00  0.00    +0.044 C 
ATOM     18  C   UNL     1       2.862  -0.820  -0.621  0.00  0.00    +0.004 C 
ATOM     19  C   UNL     1       3.611   1.377   0.379  0.00  0.00    +0.004 C 
ATOM     20  C   UNL     1       4.278  -1.371  -0.466  0.00  0.00    +0.000 C 
ATOM     21  C   UNL     1       5.025   0.822   0.533  0.00  0.00    +0.000 C 
ATOM     22  C   UNL     1       5.322  -0.259  -0.502  0.00  0.00    +0.000 C 
ENDBRANCH  16  17
ENDBRANCH  15  16
ENDBRANCH   4  15
TORSDOF 4
