REMARK  Name = 448138
REMARK  6 active torsions:
REMARK  status: ('A' for Active; 'I' for Inactive)
REMARK    1  A    between atoms: C_1  and  O_15
REMARK    2  A    between atoms: C_4  and  C_11
REMARK    3  A    between atoms: O_15  and  C_16
REMARK    4  A    between atoms: C_16  and  C_17
REMARK    5  A    between atoms: C_17  and  C_18
REMARK    6  A    between atoms: C_18  and  C_21
REMARK                            x       y       z     vdW  Elec       q    Type
REMARK                         _______ _______ _______ _____ _____    ______ ____
ROOT
ATOM      1  C   UNL     1      -0.607  -0.135   0.613  0.00  0.00    +0.130 C 
ATOM      2  C   UNL     1      -1.331   1.054   0.699  0.00  0.00    +0.012 C 
ATOM      3  C   UNL     1      -1.263  -1.330   0.312  0.00  0.00    +0.012 C 
ATOM      4  C   UNL     1      -3.364  -0.144   0.182  0.00  0.00    +0.029 C 
ATOM      5  C   UNL     1      -2.709   1.050   0.483  0.00  0.00    +0.001 C 
ATOM      6  C   UNL     1      -2.641  -1.334   0.097  0.00  0.00    +0.001 C 
ATOM      7  C   UNL     1      -0.646   2.343   1.019  0.00  0.00    +0.034 C 
ATOM      8  C   UNL     1      -0.506  -2.613   0.216  0.00  0.00    +0.034 C 
ENDROOT
BRANCH   4  11
ATOM      9  O   UNL     1      -6.881  -0.819  -0.108  0.00  0.00    -0.447 OA
ATOM     10  N   UNL     1      -5.487   0.907  -0.547  0.00  0.00    -0.372 NA
ATOM     11  C   UNL     1      -4.783  -0.148  -0.038  0.00  0.00    +0.156 C 
ATOM     12  C   UNL     1      -5.618  -1.198   0.232  0.00  0.00    +0.266 C 
ATOM     13  C   UNL     1      -6.720   0.453  -0.566  0.00  0.00    +0.253 C 
ATOM     14  C   UNL     1      -7.943   1.135  -1.015  0.00  0.00    +0.110 C 
ENDBRANCH   4  11
BRANCH   1  15
ATOM     15  O   UNL     1       0.740  -0.132   0.824  0.00  0.00    -0.476 OA
BRANCH  15  16
ATOM     16  C   UNL     1       1.572   0.077  -0.315  0.00  0.00    +0.206 C 
BRANCH  16  17
ATOM     17  C   UNL     1       3.029   0.026   0.124  0.00  0.00    +0.055 C 
BRANCH  17  18
ATOM     18  C   UNL     1       3.979   0.259  -1.051  0.00  0.00    +0.071 C 
BRANCH  18  21
ATOM     19  O   UNL     1       5.971   1.318  -0.223  0.00  0.00    -0.358 OA
ATOM     20  N   UNL     1       7.289   1.060   0.132  0.00  0.00    -0.082 NA
ATOM     21  C   UNL     1       5.422   0.163  -0.624  0.00  0.00    +0.154 C 
ATOM     22  C   UNL     1       6.285  -0.863  -0.563  0.00  0.00    +0.054 C 
ATOM     23  C   UNL     1       7.454  -0.249  -0.079  0.00  0.00    +0.101 C 
ATOM     24  C   UNL     1       8.755  -0.879   0.197  0.00  0.00    +0.056 C 
ENDBRANCH  18  21
ENDBRANCH  17  18
ENDBRANCH  16  17
ENDBRANCH  15  16
ENDBRANCH   1  15
TORSDOF 6
