REMARK  Name = 12894
REMARK  3 active torsions:
REMARK  status: ('A' for Active; 'I' for Inactive)
REMARK    1  A    between atoms: S_1  and  N_5
REMARK    2  A    between atoms: S_1  and  C_13
REMARK    3  A    between atoms: C_18  and  N_19
REMARK                            x       y       z     vdW  Elec       q    Type
REMARK                         _______ _______ _______ _____ _____    ______ ____
ROOT
ATOM      1  S   UNL     1      -0.314   1.010   0.069  0.00  0.00    +0.078 S 
ATOM      2  O   UNL     1      -0.233   2.131  -0.859  0.00  0.00    -0.150 OA
ATOM      3  O   UNL     1       0.075   1.200   1.460  0.00  0.00    -0.150 OA
ENDROOT
BRANCH   1   5
ATOM      4  O   UNL     1       2.677   0.771   0.007  0.00  0.00    -0.437 OA
ATOM      5  N   UNL     1       0.545  -0.322  -0.598  0.00  0.00    -0.158 N 
ATOM      6  N   UNL     1       2.691  -1.446  -0.440  0.00  0.00    -0.359 NA
ATOM      7  C   UNL     1       2.002  -0.345  -0.341  0.00  0.00    +0.359 C 
ATOM      8  C   UNL     1       3.954   0.319   0.145  0.00  0.00    +0.217 C 
ATOM      9  C   UNL     1       3.958  -1.026  -0.127  0.00  0.00    +0.132 C 
ATOM     10  C   UNL     1       4.973   1.303   0.525  0.00  0.00    +0.055 C 
ATOM     11  C   UNL     1       5.086  -1.969  -0.117  0.00  0.00    +0.065 C 
ATOM     12  H   UNL     1       0.095  -1.026  -1.119  0.00  0.00    +0.179 HD
ENDBRANCH   1   5
BRANCH   1  13
ATOM     13  C   UNL     1      -1.949   0.397   0.054  0.00  0.00    +0.125 C 
ATOM     14  C   UNL     1      -2.443  -0.299   1.157  0.00  0.00    +0.021 C 
ATOM     15  C   UNL     1      -2.762   0.605  -1.060  0.00  0.00    +0.021 C 
ATOM     16  C   UNL     1      -3.749  -0.789   1.146  0.00  0.00    +0.015 C 
ATOM     17  C   UNL     1      -4.068   0.116  -1.072  0.00  0.00    +0.015 C 
ATOM     18  C   UNL     1      -4.562  -0.581   0.031  0.00  0.00    +0.042 C 
BRANCH  18  19
ATOM     19  N   UNL     1      -5.883  -1.075   0.020  0.00  0.00    -0.357 N 
ATOM     20  H   UNL     1      -6.231  -1.567   0.798  0.00  0.00    +0.142 HD
ATOM     21  H   UNL     1      -6.456  -0.928  -0.767  0.00  0.00    +0.142 HD
ENDBRANCH  18  19
ENDBRANCH   1  13
TORSDOF 3
