REMARK  Name = 1548970
REMARK  7 active torsions:
REMARK  status: ('A' for Active; 'I' for Inactive)
REMARK    1  A    between atoms: C_1  and  C_2
REMARK    2  A    between atoms: C_1  and  O_8
REMARK    3  A    between atoms: C_1  and  C_19
REMARK    4  A    between atoms: O_8  and  C_9
REMARK    5  A    between atoms: C_12  and  C_18
REMARK    6  A    between atoms: C_19  and  C_20
REMARK    7  A    between atoms: C_20  and  N_21
REMARK                            x       y       z     vdW  Elec       q    Type
REMARK                         _______ _______ _______ _____ _____    ______ ____
ROOT
ATOM      1  C   UNL     1       1.826   0.252   0.218  0.00  0.00    +0.186 C 
ENDROOT
BRANCH   1   2
ATOM      2  C   UNL     1       2.089  -1.236   0.192  0.00  0.00    +0.017 C 
ATOM      3  C   UNL     1       2.082  -1.904  -1.021  0.00  0.00    -0.001 C 
ATOM      4  C   UNL     1       2.332  -1.902   1.382  0.00  0.00    -0.001 C 
ATOM      5  C   UNL     1       2.325  -3.277  -1.046  0.00  0.00    -0.000 C 
ATOM      6  C   UNL     1       2.576  -3.276   1.357  0.00  0.00    -0.000 C 
ATOM      7  C   UNL     1       2.572  -3.963   0.143  0.00  0.00    -0.000 C 
ENDBRANCH   1   2
BRANCH   1   8
ATOM      8  O   UNL     1       0.938   0.561  -0.858  0.00  0.00    -0.475 OA
BRANCH   8   9
ATOM      9  C   UNL     1      -0.400   0.469  -0.591  0.00  0.00    +0.139 C 
ATOM     10  C   UNL     1      -1.190  -0.415  -1.320  0.00  0.00    +0.037 C 
ATOM     11  C   UNL     1      -0.962   1.258   0.408  0.00  0.00    +0.037 C 
ATOM     12  C   UNL     1      -3.123   0.279  -0.048  0.00  0.00    +0.072 C 
ATOM     13  C   UNL     1      -2.555  -0.510  -1.048  0.00  0.00    +0.007 C 
ATOM     14  C   UNL     1      -2.327   1.163   0.680  0.00  0.00    +0.007 C 
BRANCH  12  18
ATOM     15  F   UNL     1      -5.236  -0.727  -0.546  0.00  0.00    -0.166 F 
ATOM     16  F   UNL     1      -4.859  -0.203   1.525  0.00  0.00    -0.166 F 
ATOM     17  F   UNL     1      -5.238   1.361   0.063  0.00  0.00    -0.166 F 
ATOM     18  C   UNL     1      -4.582   0.177   0.242  0.00  0.00    +0.419 C 
ENDBRANCH  12  18
ENDBRANCH   8   9
ENDBRANCH   1   8
BRANCH   1  19
ATOM     19  C   UNL     1       3.094   1.111   0.086  0.00  0.00    +0.025 C 
BRANCH  19  20
ATOM     20  C   UNL     1       2.808   2.612   0.151  0.00  0.00    -0.078 C 
BRANCH  20  21
ATOM     21  N   UNL     1       4.047   3.368   0.005  0.00  0.00    +0.382 N 
ATOM     22  C   UNL     1       3.787   4.800   0.025  0.00  0.00    -0.106 C 
ATOM     23  H   UNL     1       4.487   3.120  -0.881  0.00  0.00    -0.085 HD
ATOM     24  H   UNL     1       4.663   3.137   0.785  0.00  0.00    -0.085 HD
ENDBRANCH  20  21
ENDBRANCH  19  20
ENDBRANCH   1  19
TORSDOF 7
