REMARK  Name = 445160
REMARK  9 active torsions:
REMARK  status: ('A' for Active; 'I' for Inactive)
REMARK    1  A    between atoms: C_1  and  C_2
REMARK    2  A    between atoms: C_1  and  C_9
REMARK    3  A    between atoms: C_2  and  S_3
REMARK    4  A    between atoms: C_2  and  C_5
REMARK    5  A    between atoms: C_5  and  C_6
REMARK    6  A    between atoms: C_6  and  S_7
REMARK    7  A    between atoms: C_9  and  C_10
REMARK    8  A    between atoms: C_10  and  C_11
REMARK    9  A    between atoms: C_11  and  C_14
REMARK                            x       y       z     vdW  Elec       q    Type
REMARK                         _______ _______ _______ _____ _____    ______ ____
ROOT
ATOM      1  C   UNL     1       0.821  -0.547   0.174  0.00  0.00    +0.011 C 
ENDROOT
BRANCH   1   2
ATOM      2  C   UNL     1       2.211   0.099   0.003  0.00  0.00    +0.045 C 
BRANCH   2   3
ATOM      3  S   UNL     1       2.353   1.618   1.017  0.00  0.00    -0.169 S 
ATOM      4  H   UNL     1       1.370   2.490   0.667  0.00  0.00    +0.102 HD
ENDBRANCH   2   3
BRANCH   2   5
ATOM      5  C   UNL     1       3.313  -0.917   0.373  0.00  0.00    +0.022 C 
BRANCH   5   6
ATOM      6  C   UNL     1       4.762  -0.420   0.321  0.00  0.00    +0.054 C 
BRANCH   6   7
ATOM      7  S   UNL     1       5.264   0.141  -1.332  0.00  0.00    -0.168 S 
ATOM      8  H   UNL     1       6.555   0.565  -1.294  0.00  0.00    +0.102 HD
ENDBRANCH   6   7
ENDBRANCH   5   6
ENDBRANCH   2   5
ENDBRANCH   1   2
BRANCH   1   9
ATOM      9  C   UNL     1      -0.347   0.386  -0.176  0.00  0.00    +0.001 C 
BRANCH   9  10
ATOM     10  C   UNL     1      -1.694  -0.317   0.028  0.00  0.00    +0.010 C 
BRANCH  10  11
ATOM     11  C   UNL     1      -2.879   0.593  -0.290  0.00  0.00    +0.085 C 
BRANCH  11  14
ATOM     12  O   UNL     1      -4.298  -1.255   0.312  0.00  0.00    -0.275 OA
ATOM     13  N   UNL     1      -5.295   0.709  -0.355  0.00  0.00    -0.329 N 
ATOM     14  C   UNL     1      -4.212  -0.092  -0.075  0.00  0.00    +0.219 C 
ATOM     15  H   UNL     1      -6.208   0.358  -0.247  0.00  0.00    +0.145 HD
ATOM     16  H   UNL     1      -5.157   1.634  -0.663  0.00  0.00    +0.145 HD
ENDBRANCH  11  14
ENDBRANCH  10  11
ENDBRANCH   9  10
ENDBRANCH   1   9
TORSDOF 9
