REMARK  Name = 44563262
REMARK  2 active torsions:
REMARK  status: ('A' for Active; 'I' for Inactive)
REMARK    1  A    between atoms: N_2  and  C_13
REMARK    2  A    between atoms: C_6  and  C_19
REMARK                            x       y       z     vdW  Elec       q    Type
REMARK                         _______ _______ _______ _____ _____    ______ ____
ROOT
ATOM      1  N   UNL     1       1.399   1.143  -0.215  0.00  0.00    -0.243 N 
ATOM      2  N   UNL     1      -2.272   0.786   0.194  0.00  0.00    -0.296 N 
ATOM      3  N   UNL     1      -0.523  -0.720   0.526  0.00  0.00    -0.226 NA
ATOM      4  N   UNL     1       1.271   3.269  -0.863  0.00  0.00    -0.224 NA
ATOM      5  C   UNL     1       0.063   1.472  -0.210  0.00  0.00    +0.108 C 
ATOM      6  C   UNL     1       1.805  -0.137   0.153  0.00  0.00    +0.076 C 
ATOM      7  C   UNL     1      -0.930   0.485   0.180  0.00  0.00    +0.148 C 
ATOM      8  C   UNL     1       0.832  -1.006   0.505  0.00  0.00    +0.115 C 
ATOM      9  C   UNL     1       2.082   2.264  -0.610  0.00  0.00    +0.172 C 
ATOM     10  C   UNL     1       0.011   2.784  -0.616  0.00  0.00    +0.118 C 
ATOM     11  H   UNL     1      -2.513   1.722   0.382  0.00  0.00    +0.154 HD
ENDROOT
BRANCH   2  13
ATOM     12 CL   UNL     1      -4.869   1.425   1.628  0.00  0.00    -0.081 Cl
ATOM     13  C   UNL     1      -3.325  -0.096  -0.031  0.00  0.00    +0.060 C 
ATOM     14  C   UNL     1      -4.569   0.091   0.572  0.00  0.00    +0.071 C 
ATOM     15  C   UNL     1      -3.117  -1.184  -0.878  0.00  0.00    +0.015 C 
ATOM     16  C   UNL     1      -5.605  -0.811   0.328  0.00  0.00    +0.013 C 
ATOM     17  C   UNL     1      -4.153  -2.086  -1.122  0.00  0.00    +0.001 C 
ATOM     18  C   UNL     1      -5.397  -1.899  -0.519  0.00  0.00    +0.001 C 
ENDBRANCH   2  13
BRANCH   6  19
ATOM     19  C   UNL     1       3.214  -0.561   0.159  0.00  0.00    +0.016 C 
ATOM     20  C   UNL     1       3.780  -1.113  -0.990  0.00  0.00    +0.001 C 
ATOM     21  C   UNL     1       3.983  -0.411   1.312  0.00  0.00    +0.001 C 
ATOM     22  C   UNL     1       5.115  -1.516  -0.985  0.00  0.00    +0.000 C 
ATOM     23  C   UNL     1       5.319  -0.813   1.317  0.00  0.00    +0.000 C 
ATOM     24  C   UNL     1       5.885  -1.366   0.168  0.00  0.00    +0.000 C 
ENDBRANCH   6  19
TORSDOF 2
