REMARK  Name = 25134267
REMARK  8 active torsions:
REMARK  status: ('A' for Active; 'I' for Inactive)
REMARK    1  A    between atoms: C_3  and  C_10
REMARK    2  A    between atoms: C_7  and  C_17
REMARK    3  A    between atoms: C_17  and  C_18
REMARK    4  A    between atoms: C_17  and  C_22
REMARK    5  A    between atoms: C_18  and  C_19
REMARK    6  A    between atoms: C_19  and  C_20
REMARK    7  A    between atoms: C_22  and  N_24
REMARK    8  A    between atoms: N_24  and  O_26
REMARK                            x       y       z     vdW  Elec       q    Type
REMARK                         _______ _______ _______ _____ _____    ______ ____
ROOT
ATOM      1  O   UNL     1      -0.889   0.047  -1.792  0.00  0.00    -0.275 OA
ATOM      2  N   UNL     1      -0.918   0.792   0.399  0.00  0.00    -0.272 N 
ATOM      3  C   UNL     1       0.049   1.881   0.216  0.00  0.00    +0.165 C 
ATOM      4  C   UNL     1      -0.096   2.720   1.492  0.00  0.00    +0.032 C 
ATOM      5  C   UNL     1      -1.434   0.764   1.765  0.00  0.00    +0.094 C 
ATOM      6  C   UNL     1      -0.531   1.708   2.545  0.00  0.00    +0.024 C 
ATOM      7  C   UNL     1      -1.350  -0.005  -0.651  0.00  0.00    +0.227 C 
ENDROOT
BRANCH   3  10
ATOM      8  O   UNL     1       1.809   0.222   0.560  0.00  0.00    -0.427 OA
ATOM      9  N   UNL     1       2.431   2.007  -0.691  0.00  0.00    -0.371 NA
ATOM     10  C   UNL     1       1.474   1.413  -0.012  0.00  0.00    +0.275 C 
ATOM     11  C   UNL     1       3.115   0.051   0.202  0.00  0.00    +0.173 C 
ATOM     12  C   UNL     1       3.492   1.145  -0.563  0.00  0.00    +0.151 C 
ATOM     13  C   UNL     1       3.948  -1.013   0.527  0.00  0.00    +0.040 C 
ATOM     14  C   UNL     1       4.803   1.206  -1.057  0.00  0.00    +0.088 C 
ATOM     15  C   UNL     1       5.252  -0.936   0.026  0.00  0.00    -0.001 C 
ATOM     16  C   UNL     1       5.673   0.150  -0.750  0.00  0.00    -0.018 C 
ENDBRANCH   3  10
BRANCH   7  17
ATOM     17  C   UNL     1      -2.447  -0.983  -0.316  0.00  0.00    +0.099 C 
BRANCH  17  18
ATOM     18  C   UNL     1      -1.980  -2.428  -0.546  0.00  0.00    +0.011 C 
BRANCH  18  19
ATOM     19  C   UNL     1      -0.754  -2.784   0.306  0.00  0.00    +0.001 C 
BRANCH  19  20
ATOM     20  C   UNL     1      -0.253  -4.212   0.078  0.00  0.00    +0.000 C 
ATOM     21  C   UNL     1       0.913  -4.597   0.975  0.00  0.00    +0.000 C 
ENDBRANCH  19  20
ENDBRANCH  18  19
ENDBRANCH  17  18
BRANCH  17  22
ATOM     22  C   UNL     1      -3.699  -0.633  -1.126  0.00  0.00    +0.133 C 
BRANCH  22  24
ATOM     23  O   UNL     1      -5.631   0.154   0.875  0.00  0.00    -0.263 OA
ATOM     24  N   UNL     1      -4.200   0.691  -0.866  0.00  0.00    -0.164 N 
ATOM     25  C   UNL     1      -5.117   0.961   0.108  0.00  0.00    +0.327 C 
BRANCH  24  26
ATOM     26  O   UNL     1      -3.661   1.680  -1.703  0.00  0.00    -0.291 OA
ATOM     27  H   UNL     1      -3.032   1.274  -2.319  0.00  0.00    +0.242 HD
ENDBRANCH  24  26
ENDBRANCH  22  24
ENDBRANCH  17  22
ENDBRANCH   7  17
TORSDOF 8
