REMARK  Name = 16129582
REMARK  3 active torsions:
REMARK  status: ('A' for Active; 'I' for Inactive)
REMARK    1  A    between atoms: N_2  and  C_13
REMARK    2  A    between atoms: C_6  and  C_23
REMARK    3  A    between atoms: N_12  and  C_20
REMARK                            x       y       z     vdW  Elec       q    Type
REMARK                         _______ _______ _______ _____ _____    ______ ____
ROOT
ATOM      1 CL   UNL     1       4.575   2.402  -1.236  0.00  0.00    -0.078 Cl
ATOM      2  N   UNL     1      -1.056   2.041   0.162  0.00  0.00    -0.270 N 
ATOM      3  N   UNL     1       1.106   1.145   0.320  0.00  0.00    -0.337 NA
ATOM      4  N   UNL     1       0.689   3.154  -0.943  0.00  0.00    -0.169 NA
ATOM      5  C   UNL     1       0.284   2.115  -0.163  0.00  0.00    +0.145 C 
ATOM      6  C   UNL     1       2.409   1.248  -0.017  0.00  0.00    +0.157 C 
ATOM      7  C   UNL     1       2.920   2.261  -0.802  0.00  0.00    +0.108 C 
ATOM      8  C   UNL     1       2.004   3.196  -1.241  0.00  0.00    +0.126 C 
ATOM      9  H   UNL     1      -1.659   2.740  -0.181  0.00  0.00    +0.159 HD
ENDROOT
BRANCH   2  13
ATOM     10  O   UNL     1      -6.394  -0.088   0.576  0.00  0.00    -0.253 OA
ATOM     11  N   UNL     1      -4.199   0.209  -0.111  0.00  0.00    -0.264 N 
ATOM     12  N   UNL     1      -5.432  -1.715  -0.721  0.00  0.00    -0.289 N 
ATOM     13  C   UNL     1      -1.622   0.988   0.982  0.00  0.00    +0.083 C 
ATOM     14  C   UNL     1      -2.947   1.460   1.594  0.00  0.00    +0.042 C 
ATOM     15  C   UNL     1      -1.805  -0.292   0.155  0.00  0.00    +0.042 C 
ATOM     16  C   UNL     1      -4.084   1.500   0.572  0.00  0.00    +0.097 C 
ATOM     17  C   UNL     1      -2.979  -0.197  -0.820  0.00  0.00    +0.097 C 
ATOM     18  C   UNL     1      -5.409  -0.502  -0.045  0.00  0.00    +0.304 C 
ATOM     19  H   UNL     1      -4.625  -2.008  -1.203  0.00  0.00    +0.151 HD
BRANCH  12  20
ATOM     20  C   UNL     1      -6.604  -2.563  -0.740  0.00  0.00    +0.091 C 
ATOM     21  C   UNL     1      -7.742  -1.954   0.051  0.00  0.00    +0.023 C 
ENDBRANCH  12  20
ENDBRANCH   2  13
BRANCH   6  23
ATOM     22  N   UNL     1       4.568  -0.846   1.948  0.00  0.00    -0.311 N 
ATOM     23  C   UNL     1       3.240   0.202   0.514  0.00  0.00    +0.047 C 
ATOM     24  C   UNL     1       3.582  -1.060  -0.042  0.00  0.00    +0.017 C 
ATOM     25  C   UNL     1       4.417  -1.699   0.877  0.00  0.00    +0.048 C 
ATOM     26  C   UNL     1       3.859   0.306   1.736  0.00  0.00    +0.065 C 
ATOM     27  C   UNL     1       3.263  -1.725  -1.243  0.00  0.00    +0.001 C 
ATOM     28  C   UNL     1       4.950  -2.974   0.656  0.00  0.00    +0.015 C 
ATOM     29  C   UNL     1       3.789  -3.000  -1.479  0.00  0.00    +0.000 C 
ATOM     30  C   UNL     1       4.619  -3.613  -0.542  0.00  0.00    +0.001 C 
ATOM     31  H   UNL     1       5.107  -1.037   2.749  0.00  0.00    +0.152 HD
ENDBRANCH   6  23
TORSDOF 3
