REMARK  Name = 4149241
REMARK  4 active torsions:
REMARK  status: ('A' for Active; 'I' for Inactive)
REMARK    1  A    between atoms: N_2  and  C_7
REMARK    2  A    between atoms: N_3  and  C_13
REMARK    3  A    between atoms: C_13  and  C_15
REMARK    4  A    between atoms: C_15  and  O_16
REMARK                            x       y       z     vdW  Elec       q    Type
REMARK                         _______ _______ _______ _____ _____    ______ ____
ROOT
ATOM      1  O   UNL     1       0.942  -1.122  -1.369  0.00  0.00    -0.253 OA
ATOM      2  N   UNL     1      -0.641  -0.605   0.249  0.00  0.00    -0.291 N 
ATOM      3  N   UNL     1       1.589  -0.627   0.804  0.00  0.00    -0.279 N 
ATOM      4  C   UNL     1       0.655  -0.814  -0.213  0.00  0.00    +0.301 C 
ATOM      5  H   UNL     1      -0.768  -0.360   1.194  0.00  0.00    +0.151 HD
ATOM      6  H   UNL     1       1.266  -0.379   1.700  0.00  0.00    +0.151 HD
ENDROOT
BRANCH   2   7
ATOM      7  C   UNL     1      -1.814  -0.732  -0.595  0.00  0.00    +0.073 C 
ATOM      8  C   UNL     1      -3.007  -1.220   0.233  0.00  0.00    +0.020 C 
ATOM      9  C   UNL     1      -2.115   0.605  -1.282  0.00  0.00    +0.020 C 
ATOM     10  C   UNL     1      -3.534  -0.156   1.196  0.00  0.00    +0.002 C 
ATOM     11  C   UNL     1      -2.645   1.662  -0.313  0.00  0.00    +0.002 C 
ATOM     12  C   UNL     1      -3.847   1.151   0.476  0.00  0.00    +0.000 C 
ENDBRANCH   2   7
BRANCH   3  13
ATOM     13  C   UNL     1       3.010  -0.780   0.599  0.00  0.00    +0.202 C 
BRANCH  13  15
ATOM     14  O   UNL     1       4.884   0.583  -0.053  0.00  0.00    -0.248 OA
ATOM     15  C   UNL     1       3.684   0.501   0.180  0.00  0.00    +0.334 C 
BRANCH  15  16
ATOM     16  O   UNL     1       2.837   1.553   0.086  0.00  0.00    -0.479 OA
ATOM     17  H   UNL     1       1.927   1.439   0.275  0.00  0.00    +0.295 HD
ENDBRANCH  15  16
ENDBRANCH  13  15
ENDBRANCH   3  13
TORSDOF 4
