REMARK  Name = 257630
REMARK  3 active torsions:
REMARK  status: ('A' for Active; 'I' for Inactive)
REMARK    1  A    between atoms: C_10  and  C_22
REMARK    2  A    between atoms: C_22  and  C_23
REMARK    3  A    between atoms: C_23  and  O_24
REMARK                            x       y       z     vdW  Elec       q    Type
REMARK                         _______ _______ _______ _____ _____    ______ ____
ROOT
ATOM      1  O   UNL     1      -5.854   0.636  -1.718  0.00  0.00    -0.296 OA
ATOM      2  C   UNL     1      -0.335  -1.052   0.368  0.00  0.00    +0.000 C 
ATOM      3  C   UNL     1       1.016  -1.092  -0.357  0.00  0.00    +0.000 C 
ATOM      4  C   UNL     1      -0.996   0.335   0.114  0.00  0.00    +0.000 C 
ATOM      5  C   UNL     1       1.990   0.007   0.119  0.00  0.00    +0.007 C 
ATOM      6  C   UNL     1      -2.421   0.471   0.773  0.00  0.00    +0.001 C 
ATOM      7  C   UNL     1      -0.033   1.507   0.454  0.00  0.00    +0.000 C 
ATOM      8  C   UNL     1      -3.320  -0.771   0.434  0.00  0.00    +0.007 C 
ATOM      9  C   UNL     1       1.353   1.367  -0.200  0.00  0.00    +0.000 C 
ATOM     10  C   UNL     1       3.216  -0.353  -0.748  0.00  0.00    +0.060 C 
ATOM     11  C   UNL     1      -1.257  -2.176  -0.114  0.00  0.00    +0.000 C 
ATOM     12  C   UNL     1       1.857  -2.362  -0.291  0.00  0.00    +0.000 C 
ATOM     13  C   UNL     1      -2.602  -2.118   0.593  0.00  0.00    +0.000 C 
ATOM     14  C   UNL     1       3.259  -1.895  -0.724  0.00  0.00    +0.007 C 
ATOM     15  C   UNL     1      -3.095   1.779   0.238  0.00  0.00    +0.008 C 
ATOM     16  C   UNL     1       2.335  -0.071   1.629  0.00  0.00    +0.000 C 
ATOM     17  C   UNL     1      -2.322   0.575   2.314  0.00  0.00    +0.000 C 
ATOM     18  C   UNL     1      -3.967  -0.631  -0.951  0.00  0.00    +0.064 C 
ATOM     19  C   UNL     1      -4.604   1.661   0.053  0.00  0.00    +0.065 C 
ATOM     20  C   UNL     1      -4.899   0.564  -0.947  0.00  0.00    +0.151 C 
ENDROOT
BRANCH  10  22
ATOM     21  O   UNL     1       5.213  -0.296   0.547  0.00  0.00    -0.293 OA
ATOM     22  C   UNL     1       4.502   0.261  -0.287  0.00  0.00    +0.180 C 
BRANCH  22  23
ATOM     23  C   UNL     1       4.866   1.595  -0.903  0.00  0.00    +0.202 C 
BRANCH  23  24
ATOM     24  O   UNL     1       6.100   2.058  -0.396  0.00  0.00    -0.375 OA
ATOM     25  H   UNL     1       6.316   2.912  -0.802  0.00  0.00    +0.211 HD
ENDBRANCH  23  24
ENDBRANCH  22  23
ENDBRANCH  10  22
TORSDOF 3
