REMARK  Name = 44129601
REMARK  3 active torsions:
REMARK  status: ('A' for Active; 'I' for Inactive)
REMARK    1  A    between atoms: C_6  and  C_15
REMARK    2  A    between atoms: C_9  and  C_23
REMARK    3  A    between atoms: N_22  and  C_25
REMARK                            x       y       z     vdW  Elec       q    Type
REMARK                         _______ _______ _______ _____ _____    ______ ____
ROOT
ATOM      1  S   UNL     1      -2.513   2.075   0.026  0.00  0.00    -0.054 S 
ATOM      2  N   UNL     1       1.870   2.170  -0.265  0.00  0.00    -0.332 NA
ATOM      3  N   UNL     1      -0.215   3.406  -0.188  0.00  0.00    -0.326 NA
ATOM      4  N   UNL     1       1.839   4.506  -0.376  0.00  0.00    -0.283 N 
ATOM      5  C   UNL     1      -0.181   0.971  -0.072  0.00  0.00    +0.135 C 
ATOM      6  C   UNL     1       1.214   0.994  -0.165  0.00  0.00    +0.134 C 
ATOM      7  C   UNL     1      -0.818   2.205  -0.091  0.00  0.00    +0.162 C 
ATOM      8  C   UNL     1      -1.133  -0.091   0.041  0.00  0.00    -0.001 C 
ATOM      9  C   UNL     1      -2.431   0.368   0.103  0.00  0.00    +0.081 C 
ATOM     10  C   UNL     1       1.123   3.292  -0.270  0.00  0.00    +0.196 C 
ATOM     11  H   UNL     1       2.821   4.494  -0.439  0.00  0.00    +0.156 HD
ATOM     12  H   UNL     1       1.355   5.363  -0.385  0.00  0.00    +0.156 HD
ENDROOT
BRANCH   6  15
ATOM     13 CL   UNL     1       2.164  -0.054   2.570  0.00  0.00    -0.082 Cl
ATOM     14 CL   UNL     1       4.458  -3.990  -0.282  0.00  0.00    -0.082 Cl
ATOM     15  C   UNL     1       2.001  -0.209  -0.158  0.00  0.00    +0.038 C 
ATOM     16  C   UNL     1       2.481  -0.768   1.027  0.00  0.00    +0.061 C 
ATOM     17  C   UNL     1       2.281  -0.820  -1.381  0.00  0.00    +0.004 C 
ATOM     18  C   UNL     1       3.240  -1.938   0.989  0.00  0.00    +0.023 C 
ATOM     19  C   UNL     1       3.041  -1.989  -1.419  0.00  0.00    +0.012 C 
ATOM     20  C   UNL     1       3.521  -2.548  -0.234  0.00  0.00    +0.059 C 
ENDBRANCH   6  15
BRANCH   9  23
ATOM     21  O   UNL     1      -4.764   0.181   0.244  0.00  0.00    -0.270 OA
ATOM     22  N   UNL     1      -3.543  -1.790   0.281  0.00  0.00    -0.300 N 
ATOM     23  C   UNL     1      -3.639  -0.382   0.219  0.00  0.00    +0.252 C 
ATOM     24  H   UNL     1      -2.643  -2.188   0.258  0.00  0.00    +0.150 HD
BRANCH  22  25
ATOM     25  C   UNL     1      -4.673  -2.685   0.376  0.00  0.00    +0.090 C 
ATOM     26  C   UNL     1      -5.323  -2.903  -0.975  0.00  0.00    +0.023 C 
ENDBRANCH  22  25
ENDBRANCH   9  23
TORSDOF 3
