REMARK  Name = 44224261
REMARK  5 active torsions:
REMARK  status: ('A' for Active; 'I' for Inactive)
REMARK    1  A    between atoms: C_2  and  N_8
REMARK    2  A    between atoms: C_3  and  N_19
REMARK    3  A    between atoms: N_9  and  C_15
REMARK    4  A    between atoms: C_15  and  C_16
REMARK    5  A    between atoms: C_20  and  C_24
REMARK                            x       y       z     vdW  Elec       q    Type
REMARK                         _______ _______ _______ _____ _____    ______ ____
ROOT
ATOM      1 CL   UNL     1      -2.484   3.732   0.137  0.00  0.00    -0.081 Cl
ATOM      2  C   UNL     1      -0.292   2.107   0.026  0.00  0.00    +0.072 C 
ATOM      3  C   UNL     1       1.083   1.886  -0.058  0.00  0.00    +0.065 C 
ATOM      4  C   UNL     1      -0.790   3.409   0.034  0.00  0.00    +0.072 C 
ATOM      5  C   UNL     1       1.960   2.968  -0.132  0.00  0.00    +0.016 C 
ATOM      6  C   UNL     1       0.087   4.492  -0.040  0.00  0.00    +0.013 C 
ATOM      7  C   UNL     1       1.462   4.271  -0.124  0.00  0.00    +0.002 C 
ENDROOT
BRANCH   2   8
ATOM      8  N   UNL     1      -1.164   1.015   0.099  0.00  0.00    -0.310 N 
ATOM      9  N   UNL     1      -3.115  -1.054   0.366  0.00  0.00    +0.397 N 
ATOM     10  C   UNL     1      -1.513   0.499   1.429  0.00  0.00    +0.068 C 
ATOM     11  C   UNL     1      -2.179   0.824  -0.941  0.00  0.00    +0.068 C 
ATOM     12  C   UNL     1      -2.013  -0.944   1.330  0.00  0.00    -0.054 C 
ATOM     13  C   UNL     1      -2.659  -0.629  -0.963  0.00  0.00    -0.054 C 
ATOM     14  H   UNL     1      -3.876  -0.444   0.664  0.00  0.00    -0.078 HD
BRANCH   9  15
ATOM     15  C   UNL     1      -3.621  -2.426   0.320  0.00  0.00    +0.003 C 
BRANCH  15  16
ATOM     16  C   UNL     1      -4.973  -2.466  -0.245  0.00  0.00    -0.101 C 
ATOM     17  C   UNL     1      -6.081  -2.506  -0.707  0.00  0.00    -0.016 C 
ENDBRANCH  15  16
ENDBRANCH   9  15
ENDBRANCH   2   8
BRANCH   3  19
ATOM     18  O   UNL     1       3.930   0.951  -0.157  0.00  0.00    -0.266 OA
ATOM     19  N   UNL     1       1.609   0.590  -0.068  0.00  0.00    -0.277 N 
ATOM     20  C   UNL     1       2.954   0.209  -0.116  0.00  0.00    +0.284 C 
ATOM     21  H   UNL     1       0.952  -0.143  -0.038  0.00  0.00    +0.155 HD
BRANCH  20  24
ATOM     22 BR   UNL     1       1.522  -4.904   0.089  0.00  0.00    -0.008 Br
ATOM     23  O   UNL     1       2.123  -2.082  -0.016  0.00  0.00    -0.442 OA
ATOM     24  C   UNL     1       3.200  -1.257  -0.086  0.00  0.00    +0.199 C 
ATOM     25  C   UNL     1       4.366  -1.986  -0.116  0.00  0.00    +0.046 C 
ATOM     26  C   UNL     1       3.981  -3.347  -0.061  0.00  0.00    +0.048 C 
ATOM     27  C   UNL     1       2.606  -3.352  -0.001  0.00  0.00    +0.179 C 
ENDBRANCH  20  24
ENDBRANCH   3  19
TORSDOF 5
