REMARK  Name = 5289417
REMARK  5 active torsions:
REMARK  status: ('A' for Active; 'I' for Inactive)
REMARK    1  A    between atoms: C_4  and  C_13
REMARK    2  A    between atoms: C_13  and  C_14
REMARK    3  A    between atoms: C_13  and  C_21
REMARK    4  A    between atoms: C_14  and  C_15
REMARK    5  A    between atoms: C_21  and  S_22
REMARK                            x       y       z     vdW  Elec       q    Type
REMARK                         _______ _______ _______ _____ _____    ______ ____
ROOT
ATOM      1  N   UNL     1       0.886   0.351   1.123  0.00  0.00    -0.320 N 
ATOM      2  N   UNL     1       1.132   0.732  -1.054  0.00  0.00    -0.318 N 
ATOM      3  N   UNL     1       3.806  -1.794   0.711  0.00  0.00    -0.327 N 
ATOM      4  C   UNL     1       0.418   1.003   0.016  0.00  0.00    +0.145 C 
ATOM      5  C   UNL     1       1.974  -0.388   0.740  0.00  0.00    +0.056 C 
ATOM      6  C   UNL     1       2.108  -0.135  -0.621  0.00  0.00    +0.058 C 
ATOM      7  C   UNL     1       2.829  -1.227   1.426  0.00  0.00    +0.130 C 
ATOM      8  C   UNL     1       3.149  -0.753  -1.325  0.00  0.00    +0.031 C 
ATOM      9  C   UNL     1       3.990  -1.592  -0.600  0.00  0.00    +0.059 C 
ATOM     10  H   UNL     1       0.509   0.403   2.031  0.00  0.00    +0.148 HD
ATOM     11  H   UNL     1       0.998   1.075  -1.967  0.00  0.00    +0.148 HD
ATOM     12  H   UNL     1       4.429  -2.398   1.177  0.00  0.00    +0.147 HD
ENDROOT
BRANCH   4  13
ATOM     13  C   UNL     1      -0.757   1.891   0.090  0.00  0.00    +0.052 C 
BRANCH  13  14
ATOM     14  C   UNL     1      -1.958   1.418  -0.805  0.00  0.00    +0.031 C 
BRANCH  14  15
ATOM     15  C   UNL     1      -2.492   0.063  -0.399  0.00  0.00    -0.022 C 
ATOM     16  C   UNL     1      -1.957  -1.077  -0.975  0.00  0.00    -0.004 C 
ATOM     17  C   UNL     1      -3.506  -0.011   0.541  0.00  0.00    -0.004 C 
ATOM     18  C   UNL     1      -2.450  -2.327  -0.600  0.00  0.00    -0.000 C 
ATOM     19  C   UNL     1      -3.999  -1.261   0.916  0.00  0.00    -0.000 C 
ATOM     20  C   UNL     1      -3.471  -2.419   0.345  0.00  0.00    -0.000 C 
ENDBRANCH  14  15
ENDBRANCH  13  14
BRANCH  13  21
ATOM     21  C   UNL     1      -0.478   3.379  -0.303  0.00  0.00    +0.057 C 
BRANCH  21  22
ATOM     22  S   UNL     1       0.776   4.146   0.773  0.00  0.00    -0.168 S 
ATOM     23  H   UNL     1       0.978   5.435   0.387  0.00  0.00    +0.102 HD
ENDBRANCH  21  22
ENDBRANCH  13  21
ENDBRANCH   4  13
TORSDOF 5
