REMARK  Name = 3246941
REMARK  11 active torsions:
REMARK  status: ('A' for Active; 'I' for Inactive)
REMARK    1  A    between atoms: C_2  and  C_3
REMARK    2  A    between atoms: C_2  and  C_12
REMARK    3  A    between atoms: C_3  and  C_4
REMARK    4  A    between atoms: C_4  and  C_5
REMARK    5  A    between atoms: C_5  and  C_6
REMARK    6  A    between atoms: C_6  and  C_7
REMARK    7  A    between atoms: C_7  and  C_8
REMARK    8  A    between atoms: C_8  and  C_9
REMARK    9  A    between atoms: C_9  and  C_10
REMARK   10  A    between atoms: C_12  and  C_15
REMARK   11  A    between atoms: N_14  and  C_19
REMARK                            x       y       z     vdW  Elec       q    Type
REMARK                         _______ _______ _______ _____ _____    ______ ____
ROOT
ATOM      1  O   UNL     1       3.439  -2.454  -0.641  0.00  0.00    -0.296 OA
ATOM      2  C   UNL     1       2.684  -2.087   0.259  0.00  0.00    +0.160 C 
ENDROOT
BRANCH   2   3
ATOM      3  C   UNL     1       3.124  -1.126   1.351  0.00  0.00    +0.065 C 
BRANCH   3   4
ATOM      4  C   UNL     1       4.184  -0.128   0.887  0.00  0.00    +0.008 C 
BRANCH   4   5
ATOM      5  C   UNL     1       3.729   0.808  -0.240  0.00  0.00    +0.000 C 
BRANCH   5   6
ATOM      6  C   UNL     1       2.578   1.732   0.167  0.00  0.00    +0.000 C 
BRANCH   6   7
ATOM      7  C   UNL     1       2.142   2.622  -1.000  0.00  0.00    +0.000 C 
BRANCH   7   8
ATOM      8  C   UNL     1       0.987   3.564  -0.650  0.00  0.00    +0.000 C 
BRANCH   8   9
ATOM      9  C   UNL     1      -0.305   2.892  -0.175  0.00  0.00    +0.000 C 
BRANCH   9  10
ATOM     10  C   UNL     1      -1.438   3.879   0.102  0.00  0.00    +0.000 C 
ATOM     11  C   UNL     1      -2.665   3.171   0.658  0.00  0.00    +0.000 C 
ENDBRANCH   9  10
ENDBRANCH   8   9
ENDBRANCH   7   8
ENDBRANCH   6   7
ENDBRANCH   5   6
ENDBRANCH   4   5
ENDBRANCH   3   4
ENDBRANCH   2   3
BRANCH   2  12
ATOM     12  C   UNL     1       1.259  -2.587   0.330  0.00  0.00    +0.149 C 
BRANCH  12  15
ATOM     13  O   UNL     1       0.565  -1.072  -1.407  0.00  0.00    -0.275 OA
ATOM     14  N   UNL     1      -0.986  -1.745   0.188  0.00  0.00    -0.296 N 
ATOM     15  C   UNL     1       0.267  -1.711  -0.402  0.00  0.00    +0.230 C 
ATOM     16  H   UNL     1      -1.110  -2.295   0.995  0.00  0.00    +0.150 HD
BRANCH  14  19
ATOM     17  O   UNL     1      -4.337  -0.770   0.374  0.00  0.00    -0.447 OA
ATOM     18  O   UNL     1      -2.717  -0.258   1.914  0.00  0.00    -0.248 OA
ATOM     19  C   UNL     1      -2.110  -1.019  -0.320  0.00  0.00    +0.175 C 
ATOM     20  C   UNL     1      -3.006  -1.852  -1.206  0.00  0.00    +0.078 C 
ATOM     21  C   UNL     1      -4.353  -1.210  -0.989  0.00  0.00    +0.211 C 
ATOM     22  C   UNL     1      -3.041  -0.648   0.803  0.00  0.00    +0.335 C 
ENDBRANCH  14  19
ENDBRANCH  12  15
ENDBRANCH   2  12
TORSDOF 11
