REMARK  Name = 15574941
REMARK  5 active torsions:
REMARK  status: ('A' for Active; 'I' for Inactive)
REMARK    1  A    between atoms: CA_6  and  C_23
REMARK    2  A    between atoms: CA_7  and  N_12
REMARK    3  A    between atoms: C_13  and  C_15
REMARK    4  A    between atoms: C_15  and  C_16
REMARK    5  A    between atoms: C_23  and  O_24
REMARK                            x       y       z     vdW  Elec       q    Type
REMARK                         _______ _______ _______ _____ _____    ______ ____
ROOT
ATOM      1  S   UNL     1      -1.147   0.826   1.053  0.00  0.00    -0.118 S 
ATOM      2  O   UNL     1      -2.188  -2.432  -1.725  0.00  0.00    -0.273 OA
ATOM      3  N   UNL     1      -2.691  -1.032   0.107  0.00  0.00    -0.260 N 
ATOM      4  C   UNL     1      -1.686  -0.919   1.167  0.00  0.00    +0.151 C 
ATOM      5  C   UNL     1      -2.839   1.350   0.474  0.00  0.00    +0.068 C 
ATOM      6  CA  UNL     1      -3.300   0.175  -0.416  0.00  0.00    +0.184 C 
ATOM      7  CA  UNL     1      -0.852  -1.952   0.396  0.00  0.00    +0.178 C 
ATOM      8  C   UNL     1      -2.001  -1.948  -0.632  0.00  0.00    +0.247 C 
ATOM      9  C   UNL     1      -3.710   1.588   1.715  0.00  0.00    +0.013 C 
ATOM     10  C   UNL     1      -2.710   2.643  -0.332  0.00  0.00    +0.013 C 
ENDROOT
BRANCH   7  12
ATOM     11  O   UNL     1       1.579  -1.427   1.870  0.00  0.00    -0.275 OA
ATOM     12  N   UNL     1       0.440  -1.512  -0.149  0.00  0.00    -0.296 N 
ATOM     13  C   UNL     1       1.562  -1.283   0.649  0.00  0.00    +0.227 C 
ATOM     14  H   UNL     1       0.517  -1.371  -1.120  0.00  0.00    +0.150 HD
BRANCH  13  15
ATOM     15  C   UNL     1       2.784  -0.852  -0.147  0.00  0.00    +0.111 C 
BRANCH  15  16
ATOM     16  C   UNL     1       2.870   0.654  -0.237  0.00  0.00    -0.013 C 
ATOM     17  C   UNL     1       2.255   1.306  -1.294  0.00  0.00    -0.004 C 
ATOM     18  C   UNL     1       3.562   1.353   0.738  0.00  0.00    -0.004 C 
ATOM     19  C   UNL     1       2.334   2.696  -1.377  0.00  0.00    -0.000 C 
ATOM     20  C   UNL     1       3.641   2.744   0.654  0.00  0.00    -0.000 C 
ATOM     21  C   UNL     1       3.027   3.415  -0.403  0.00  0.00    -0.000 C 
ENDBRANCH  15  16
ENDBRANCH  13  15
ENDBRANCH   7  12
BRANCH   6  23
ATOM     22  OXT UNL     1      -5.341  -1.057  -0.041  0.00  0.00    -0.248 OA
ATOM     23  C   UNL     1      -4.777  -0.056  -0.456  0.00  0.00    +0.333 C 
BRANCH  23  24
ATOM     24  O   UNL     1      -5.411   1.001  -1.019  0.00  0.00    -0.479 OA
ATOM     25  H   UNL     1      -4.918   1.740  -1.317  0.00  0.00    +0.295 HD
ENDBRANCH  23  24
ENDBRANCH   6  23
TORSDOF 5
REMARK  Name = 15574941
REMARK  5 active torsions:
REMARK  status: ('A' for Active; 'I' for Inactive)
REMARK    1  A    between atoms: CA_6  and  C_23
REMARK    2  A    between atoms: CA_7  and  N_12
REMARK    3  A    between atoms: C_13  and  C_15
REMARK    4  A    between atoms: C_15  and  C_16
REMARK    5  A    between atoms: C_23  and  O_24
REMARK                            x       y       z     vdW  Elec       q    Type
REMARK                         _______ _______ _______ _____ _____    ______ ____
ROOT
ATOM      1  N   UNL     1       4.889  -1.768  -0.222  0.00  0.00    +0.000 NA
ATOM      2  N   UNL     1       5.760  -2.067  -0.896  0.00  0.00    +0.000 NA
ENDROOT
TORSDOF 0
