REMARK  Name = 44422489
REMARK  2 active torsions:
REMARK  status: ('A' for Active; 'I' for Inactive)
REMARK    1  A    between atoms: N_2  and  C_12
REMARK    2  A    between atoms: C_7  and  C_20
REMARK                            x       y       z     vdW  Elec       q    Type
REMARK                         _______ _______ _______ _____ _____    ______ ____
ROOT
ATOM      1  N   UNL     1      -1.547  -1.190  -0.002  0.00  0.00    -0.243 N 
ATOM      2  N   UNL     1       2.157  -0.947  -0.009  0.00  0.00    -0.297 N 
ATOM      3  N   UNL     1       0.497   0.691   0.011  0.00  0.00    -0.226 NA
ATOM      4  N   UNL     1      -1.550  -3.416  -0.013  0.00  0.00    -0.224 NA
ATOM      5  C   UNL     1      -0.228  -1.581  -0.009  0.00  0.00    +0.108 C 
ATOM      6  C   UNL     1       0.829  -0.584  -0.002  0.00  0.00    +0.148 C 
ATOM      7  C   UNL     1      -1.875   0.163   0.012  0.00  0.00    +0.076 C 
ATOM      8  C   UNL     1      -0.844   1.038   0.017  0.00  0.00    +0.115 C 
ATOM      9  C   UNL     1      -0.257  -2.956  -0.019  0.00  0.00    +0.118 C 
ATOM     10  C   UNL     1      -2.301  -2.335   0.001  0.00  0.00    +0.172 C 
ATOM     11  H   UNL     1       2.351  -1.912  -0.018  0.00  0.00    +0.154 HD
ENDROOT
BRANCH   2  12
ATOM     12  C   UNL     1       3.253  -0.090  -0.004  0.00  0.00    +0.041 C 
ATOM     13  C   UNL     1       3.799   0.351  -1.209  0.00  0.00    -0.009 C 
ATOM     14  C   UNL     1       3.805   0.329   1.207  0.00  0.00    -0.009 C 
ATOM     15  C   UNL     1       4.898   1.210  -1.204  0.00  0.00    -0.003 C 
ATOM     16  C   UNL     1       4.904   1.188   1.212  0.00  0.00    -0.003 C 
ATOM     17  C   UNL     1       3.229  -0.080  -2.521  0.00  0.00    +0.032 C 
ATOM     18  C   UNL     1       3.242  -0.127   2.514  0.00  0.00    +0.032 C 
ATOM     19  C   UNL     1       5.450   1.629   0.006  0.00  0.00    -0.001 C 
ENDBRANCH   2  12
BRANCH   7  20
ATOM     20  C   UNL     1      -3.261   0.653   0.007  0.00  0.00    +0.016 C 
ATOM     21  C   UNL     1      -3.914   0.886  -1.204  0.00  0.00    +0.001 C 
ATOM     22  C   UNL     1      -3.924   0.884   1.212  0.00  0.00    +0.001 C 
ATOM     23  C   UNL     1      -5.229   1.351  -1.209  0.00  0.00    +0.000 C 
ATOM     24  C   UNL     1      -5.239   1.349   1.207  0.00  0.00    +0.000 C 
ATOM     25  C   UNL     1      -5.892   1.582  -0.003  0.00  0.00    +0.000 C 
ENDBRANCH   7  20
TORSDOF 2
