92180
  -OEChem-10051721273D

 28 29  0     0  0  0  0  0  0999 V2000
   -0.8325   -0.0954    0.4413 N   0  0  0  0  0  0  0  0  0  0  0  0
    1.5746    1.8069    0.1987 N   0  0  0  0  0  0  0  0  0  0  0  0
    0.8186   -1.7892    0.0493 N   0  0  0  0  0  0  0  0  0  0  0  0
    3.6628    1.1290   -0.1868 N   0  0  0  0  0  0  0  0  0  0  0  0
    3.1739   -1.2503   -0.2877 N   0  0  0  0  0  0  0  0  0  0  0  0
    1.5114    0.4457    0.1065 C   0  0  0  0  0  0  0  0  0  0  0  0
    0.4788   -0.4802    0.2023 C   0  0  0  0  0  0  0  0  0  0  0  0
   -1.9326   -1.0200    0.5479 C   0  0  0  0  0  0  0  0  0  0  0  0
    2.8199    0.0483   -0.1330 C   0  0  0  0  0  0  0  0  0  0  0  0
   -3.1915   -0.2453    0.7869 C   0  0  0  0  0  0  0  0  0  0  0  0
   -4.0368    0.2580   -0.1328 C   0  0  0  0  0  0  0  0  0  0  0  0
    2.8830    2.1694    0.0164 C   0  0  0  0  0  0  0  0  0  0  0  0
   -5.2889    1.0296    0.1745 C   0  0  0  0  0  0  0  0  0  0  0  0
   -3.7599    0.0809   -1.6020 C   0  0  0  0  0  0  0  0  0  0  0  0
    2.1193   -2.0873   -0.1816 C   0  0  0  0  0  0  0  0  0  0  0  0
   -2.0087   -1.6517   -0.3434 H   0  0  0  0  0  0  0  0  0  0  0  0
   -1.7750   -1.6978    1.3956 H   0  0  0  0  0  0  0  0  0  0  0  0
   -1.0116    0.8977    0.5464 H   0  0  0  0  0  0  0  0  0  0  0  0
   -3.4339   -0.0800    1.8360 H   0  0  0  0  0  0  0  0  0  0  0  0
    0.8006    2.4350    0.3698 H   0  0  0  0  0  0  0  0  0  0  0  0
    3.1976    3.2029    0.0437 H   0  0  0  0  0  0  0  0  0  0  0  0
   -6.1619    0.5248   -0.2513 H   0  0  0  0  0  0  0  0  0  0  0  0
   -5.4497    1.1231    1.2536 H   0  0  0  0  0  0  0  0  0  0  0  0
   -5.2287    2.0395   -0.2435 H   0  0  0  0  0  0  0  0  0  0  0  0
   -3.8362    1.0472   -2.1136 H   0  0  0  0  0  0  0  0  0  0  0  0
   -2.7666   -0.3099   -1.8327 H   0  0  0  0  0  0  0  0  0  0  0  0
   -4.4999   -0.5956   -2.0424 H   0  0  0  0  0  0  0  0  0  0  0  0
    2.3435   -3.1423   -0.2970 H   0  0  0  0  0  0  0  0  0  0  0  0
  1  7  1  0  0  0  0
  1  8  1  0  0  0  0
  1 18  1  0  0  0  0
  2  6  1  0  0  0  0
  2 12  1  0  0  0  0
  2 20  1  0  0  0  0
  3  7  2  0  0  0  0
  3 15  1  0  0  0  0
  4  9  1  0  0  0  0
  4 12  2  0  0  0  0
  5  9  1  0  0  0  0
  5 15  2  0  0  0  0
  6  7  1  0  0  0  0
  6  9  2  0  0  0  0
  8 10  1  0  0  0  0
  8 16  1  0  0  0  0
  8 17  1  0  0  0  0
 10 11  2  0  0  0  0
 10 19  1  0  0  0  0
 11 13  1  0  0  0  0
 11 14  1  0  0  0  0
 12 21  1  0  0  0  0
 13 22  1  0  0  0  0
 13 23  1  0  0  0  0
 13 24  1  0  0  0  0
 14 25  1  0  0  0  0
 14 26  1  0  0  0  0
 14 27  1  0  0  0  0
 15 28  1  0  0  0  0
M  END
> <DATABASE_ID>
DB08768

> <DATABASE_NAME>
drugbank

> <ORIGINAL_SOURCE>
PUBCHEM

> <ORIGINAL_SOURCE_URL>
https://pubchem.ncbi.nlm.nih.gov/rest/pug/compound/inchikey/HYVABZIGRDEKCD-UHFFFAOYSA-N/SDF?record_type=3d

> <SMILES>
CC(C)=CCNC1=C2N=CNC2=NC=N1

> <INCHI_IDENTIFIER>
InChI=1S/C10H13N5/c1-7(2)3-4-11-9-8-10(13-5-12-8)15-6-14-9/h3,5-6H,4H2,1-2H3,(H2,11,12,13,14,15)

> <INCHI_KEY>
HYVABZIGRDEKCD-UHFFFAOYSA-N

> <FORMULA>
C10H13N5

> <MOLECULAR_WEIGHT>
203.2437

> <EXACT_MASS>
203.117095441

> <JCHEM_ACCEPTOR_COUNT>
4

> <JCHEM_AVERAGE_POLARIZABILITY>
22.09617927140926

> <JCHEM_BIOAVAILABILITY>
1

> <JCHEM_DONOR_COUNT>
2

> <JCHEM_FORMAL_CHARGE>
0

> <JCHEM_GHOSE_FILTER>
1

> <JCHEM_IUPAC>
N-(3-methylbut-2-en-1-yl)-9H-purin-6-amine

> <ALOGPS_LOGP>
1.20

> <JCHEM_LOGP>
1.1319374409999998

> <ALOGPS_LOGS>
-3.37

> <JCHEM_MDDR_LIKE_RULE>
0

> <JCHEM_NUMBER_OF_RINGS>
2

> <JCHEM_PHYSIOLOGICAL_CHARGE>
0

> <JCHEM_PKA>
17.703324302184473

> <JCHEM_PKA_STRONGEST_ACIDIC>
9.867982460804072

> <JCHEM_PKA_STRONGEST_BASIC>
5.0589965103549535

> <JCHEM_POLAR_SURFACE_AREA>
66.49000000000001

> <JCHEM_REFRACTIVITY>
61.21089999999999

> <JCHEM_ROTATABLE_BOND_COUNT>
3

> <JCHEM_RULE_OF_FIVE>
1

> <ALOGPS_SOLUBILITY>
8.69e-02 g/l

> <JCHEM_TRADITIONAL_IUPAC>
ipade

> <JCHEM_VEBER_RULE>
0

> <DRUGBANK_ID>
DB08768

> <DRUG_GROUPS>
experimental

> <GENERIC_NAME>
N-(3-METHYLBUT-2-EN-1-YL)-9H-PURIN-6-AMINE

$$$$
