REMARK  Name = 6918881
REMARK  5 active torsions:
REMARK  status: ('A' for Active; 'I' for Inactive)
REMARK    1  A    between atoms: C_1  and  C_3
REMARK    2  A    between atoms: C_1  and  C_9
REMARK    3  A    between atoms: C_1  and  C_14
REMARK    4  A    between atoms: C_9  and  N_10
REMARK    5  A    between atoms: C_14  and  C_17
REMARK                            x       y       z     vdW  Elec       q    Type
REMARK                         _______ _______ _______ _____ _____    ______ ____
ROOT
ATOM      1  C   UNL     1       0.987  -0.192  -0.433  0.00  0.00    +0.012 C 
ENDROOT
BRANCH   1   3
ATOM      2 CL   UNL     1      -4.916   0.505   0.397  0.00  0.00    -0.082 Cl
ATOM      3  C   UNL     1      -0.510  -0.014  -0.221  0.00  0.00    -0.024 C 
ATOM      4  C   UNL     1      -1.112  -0.647   0.846  0.00  0.00    -0.003 C 
ATOM      5  C   UNL     1      -1.218   0.774  -1.105  0.00  0.00    -0.003 C 
ATOM      6  C   UNL     1      -2.484  -0.485   1.039  0.00  0.00    +0.011 C 
ATOM      7  C   UNL     1      -2.591   0.936  -0.912  0.00  0.00    +0.011 C 
ATOM      8  C   UNL     1      -3.223   0.306   0.160  0.00  0.00    +0.058 C 
ENDBRANCH   1   3
BRANCH   1   9
ATOM      9  C   UNL     1       1.474  -1.585   0.002  0.00  0.00    -0.081 C 
BRANCH   9  10
ATOM     10  N   UNL     1       0.773  -2.641  -0.773  0.00  0.00    +0.381 N 
ATOM     11  H   UNL     1       1.106  -3.558  -0.475  0.00  0.00    -0.089 HD
ATOM     12  H   UNL     1       0.964  -2.517  -1.767  0.00  0.00    -0.089 HD
ATOM     13  H   UNL     1      -0.231  -2.574  -0.609  0.00  0.00    -0.089 HD
ENDBRANCH   9  10
ENDBRANCH   1   9
BRANCH   1  14
ATOM     14  C   UNL     1       1.792   0.891   0.311  0.00  0.00    +0.116 C 
BRANCH  14  17
ATOM     15  O   UNL     1       3.811   0.875  -0.908  0.00  0.00    -0.246 OA
ATOM     16  O   UNL     1       3.900   0.531   1.349  0.00  0.00    -0.246 OA
ATOM     17  C   UNL     1       3.318   0.744   0.249  0.00  0.00    +0.365 C 
ENDBRANCH  14  17
ENDBRANCH   1  14
TORSDOF 5
