REMARK  Name = 96876
REMARK  2 active torsions:
REMARK  status: ('A' for Active; 'I' for Inactive)
REMARK    1  A    between atoms: C_8  and  S_10
REMARK    2  A    between atoms: S_10  and  N_13
REMARK                            x       y       z     vdW  Elec       q    Type
REMARK                         _______ _______ _______ _____ _____    ______ ____
ROOT
ATOM      1  C   UNL     1      -3.643   0.654  -0.274  0.00  0.00    +0.009 C 
ATOM      2  C   UNL     1      -2.478   1.565   0.139  0.00  0.00    +0.026 C 
ATOM      3  C   UNL     1      -3.256  -0.774   0.138  0.00  0.00    +0.026 C 
ATOM      4  C   UNL     1      -1.323   0.620   0.043  0.00  0.00    -0.025 C 
ATOM      5  C   UNL     1      -1.764  -0.709   0.042  0.00  0.00    -0.026 C 
ATOM      6  C   UNL     1       0.028   0.924   0.005  0.00  0.00    +0.015 C 
ATOM      7  C   UNL     1      -0.865  -1.760   0.003  0.00  0.00    -0.003 C 
ATOM      8  C   UNL     1       0.942  -0.131  -0.047  0.00  0.00    +0.121 C 
ATOM      9  C   UNL     1       0.499  -1.463  -0.048  0.00  0.00    +0.020 C 
ENDROOT
BRANCH   8  10
ATOM     10  S   UNL     1       2.654   0.210  -0.122  0.00  0.00    +0.057 S 
ATOM     11  O   UNL     1       3.321  -0.926  -0.741  0.00  0.00    -0.153 OA
ATOM     12  O   UNL     1       2.834   1.545  -0.675  0.00  0.00    -0.153 OA
BRANCH  10  13
ATOM     13  N   UNL     1       3.051   0.246   1.539  0.00  0.00    -0.203 NA
ATOM     14  H   UNL     1       4.046   0.441   1.647  0.00  0.00    +0.144 HD
ATOM     15  H   UNL     1       2.833  -0.657   1.960  0.00  0.00    +0.144 HD
ENDBRANCH  10  13
ENDBRANCH   8  10
TORSDOF 2
