REMARK  Name = 1453694
REMARK  4 active torsions:
REMARK  status: ('A' for Active; 'I' for Inactive)
REMARK    1  A    between atoms: C_3  and  C_12
REMARK    2  A    between atoms: C_8  and  C_19
REMARK    3  A    between atoms: C_13  and  C_15
REMARK    4  A    between atoms: C_19  and  C_21
REMARK                            x       y       z     vdW  Elec       q    Type
REMARK                         _______ _______ _______ _____ _____    ______ ____
ROOT
ATOM      1  O   UNL     1       4.299   1.014  -1.805  0.00  0.00    -0.274 OA
ATOM      2  N   UNL     1       2.752   1.610  -0.177  0.00  0.00    -0.279 N 
ATOM      3  C   UNL     1      -0.085   1.946   0.302  0.00  0.00    +0.096 C 
ATOM      4  C   UNL     1       0.508   1.989  -1.119  0.00  0.00    +0.032 C 
ATOM      5  C   UNL     1       0.798   1.091   1.231  0.00  0.00    +0.032 C 
ATOM      6  C   UNL     1       1.967   2.443  -1.089  0.00  0.00    +0.094 C 
ATOM      7  C   UNL     1       2.250   1.567   1.202  0.00  0.00    +0.094 C 
ATOM      8  C   UNL     1       3.889   0.950  -0.643  0.00  0.00    +0.231 C 
ENDROOT
BRANCH   3  12
ATOM      9  O   UNL     1      -2.441   2.372   0.756  0.00  0.00    -0.316 OA
ATOM     10  N   UNL     1      -2.020   0.335  -0.075  0.00  0.00    -0.312 NA
ATOM     11  N   UNL     1      -3.680   1.726   0.662  0.00  0.00    -0.007 NA
ATOM     12  C   UNL     1      -1.532   1.479   0.302  0.00  0.00    +0.293 C 
ATOM     13  C   UNL     1      -3.349   0.531   0.164  0.00  0.00    +0.133 C 
BRANCH  13  15
ATOM     14  S   UNL     1      -6.034  -0.302   0.179  0.00  0.00    -0.075 S 
ATOM     15  C   UNL     1      -4.357  -0.508  -0.108  0.00  0.00    +0.106 C 
ATOM     16  C   UNL     1      -4.073  -1.756  -0.620  0.00  0.00    +0.018 C 
ATOM     17  C   UNL     1      -5.245  -2.551  -0.779  0.00  0.00    +0.008 C 
ATOM     18  C   UNL     1      -6.381  -1.882  -0.381  0.00  0.00    +0.036 C 
ENDBRANCH  13  15
ENDBRANCH   3  12
BRANCH   8  19
ATOM     19  C   UNL     1       4.640   0.110   0.358  0.00  0.00    +0.118 C 
BRANCH  19  21
ATOM     20  S   UNL     1       3.372  -1.949   1.688  0.00  0.00    -0.090 S 
ATOM     21  C   UNL     1       4.096  -1.281   0.296  0.00  0.00    +0.016 C 
ATOM     22  C   UNL     1       4.095  -2.138  -0.770  0.00  0.00    +0.003 C 
ATOM     23  C   UNL     1       3.484  -3.382  -0.441  0.00  0.00    +0.007 C 
ATOM     24  C   UNL     1       3.046  -3.414   0.865  0.00  0.00    +0.035 C 
ENDBRANCH  19  21
ENDBRANCH   8  19
TORSDOF 4
