REMARK  Name = 6419766
REMARK  1 active torsions:
REMARK  status: ('A' for Active; 'I' for Inactive)
REMARK    1  A    between atoms: C_9  and  C_20
REMARK                            x       y       z     vdW  Elec       q    Type
REMARK                         _______ _______ _______ _____ _____    ______ ____
ROOT
ATOM      1  N   UNL     1      -1.951   0.580   0.456  0.00  0.00    -0.274 N 
ATOM      2  N   UNL     1       0.223  -0.295   0.245  0.00  0.00    -0.328 NA
ATOM      3  N   UNL     1       2.103   1.162  -0.136  0.00  0.00    -0.343 NA
ATOM      4  N   UNL     1      -3.559  -2.282  -0.526  0.00  0.00    -0.239 N 
ATOM      5  N   UNL     1      -2.409  -1.591  -0.458  0.00  0.00    -0.166 NA
ATOM      6  C   UNL     1      -0.096   2.094   0.074  0.00  0.00    +0.143 C 
ATOM      7  C   UNL     1      -0.565   0.796   0.252  0.00  0.00    +0.185 C 
ATOM      8  C   UNL     1       1.288   2.231  -0.123  0.00  0.00    +0.133 C 
ATOM      9  C   UNL     1       1.527  -0.043   0.048  0.00  0.00    +0.138 C 
ATOM     10  C   UNL     1      -2.799  -0.494   0.141  0.00  0.00    +0.152 C 
ATOM     11  C   UNL     1      -0.940   3.219   0.086  0.00  0.00    -0.011 C 
ATOM     12  C   UNL     1       1.794   3.515  -0.305  0.00  0.00    +0.029 C 
ATOM     13  C   UNL     1      -4.142  -0.427   0.470  0.00  0.00    +0.048 C 
ATOM     14  C   UNL     1      -4.628  -1.629   0.015  0.00  0.00    +0.046 C 
ATOM     15  C   UNL     1      -0.406   4.490  -0.099  0.00  0.00    -0.004 C 
ATOM     16  C   UNL     1       0.962   4.639  -0.295  0.00  0.00    +0.002 C 
ATOM     17  C   UNL     1      -5.977  -2.217   0.039  0.00  0.00    +0.049 C 
ATOM     18  H   UNL     1      -2.407   1.327   0.906  0.00  0.00    +0.156 HD
ATOM     19  H   UNL     1      -3.625  -3.177  -0.930  0.00  0.00    +0.174 HD
ENDROOT
BRANCH   9  20
ATOM     20  C   UNL     1       2.407  -1.182   0.033  0.00  0.00    +0.086 C 
ATOM     21  C   UNL     1       3.733  -1.054   0.456  0.00  0.00    +0.012 C 
ATOM     22  C   UNL     1       1.941  -2.426  -0.404  0.00  0.00    +0.012 C 
ATOM     23  C   UNL     1       4.585  -2.158   0.443  0.00  0.00    +0.001 C 
ATOM     24  C   UNL     1       2.792  -3.530  -0.417  0.00  0.00    +0.001 C 
ATOM     25  C   UNL     1       4.115  -3.397   0.007  0.00  0.00    +0.000 C 
ENDBRANCH   9  20
TORSDOF 1
