REMARK  Name = 1122713
REMARK  5 active torsions:
REMARK  status: ('A' for Active; 'I' for Inactive)
REMARK    1  A    between atoms: C_3  and  C_8
REMARK    2  A    between atoms: C_4  and  C_16
REMARK    3  A    between atoms: C_5  and  C_25
REMARK    4  A    between atoms: C_13  and  O_14
REMARK    5  A    between atoms: C_21  and  O_22
REMARK                            x       y       z     vdW  Elec       q    Type
REMARK                         _______ _______ _______ _____ _____    ______ ____
ROOT
ATOM      1  N   UNL     1      -1.886   1.110  -0.016  0.00  0.00    -0.314 N 
ATOM      2  N   UNL     1      -1.990  -1.109  -0.013  0.00  0.00    -0.314 N 
ATOM      3  C   UNL     1      -0.592   0.674  -0.072  0.00  0.00    +0.059 C 
ATOM      4  C   UNL     1      -0.685  -0.696  -0.069  0.00  0.00    +0.059 C 
ATOM      5  C   UNL     1      -2.689   0.004   0.018  0.00  0.00    +0.174 C 
ATOM      6  H   UNL     1      -2.184   2.048  -0.002  0.00  0.00    +0.149 HD
ATOM      7  H   UNL     1      -2.329  -2.033   0.000  0.00  0.00    +0.149 HD
ENDROOT
BRANCH   3   8
ATOM      8  C   UNL     1       0.532   1.576  -0.120  0.00  0.00    +0.015 C 
ATOM      9  C   UNL     1       1.024   2.013  -1.350  0.00  0.00    +0.004 C 
ATOM     10  C   UNL     1       1.128   2.012   1.064  0.00  0.00    +0.004 C 
ATOM     11  C   UNL     1       2.112   2.886  -1.396  0.00  0.00    +0.037 C 
ATOM     12  C   UNL     1       2.215   2.884   1.018  0.00  0.00    +0.037 C 
ATOM     13  C   UNL     1       2.708   3.321  -0.212  0.00  0.00    +0.139 C 
BRANCH  13  14
ATOM     14  O   UNL     1       3.769   4.172  -0.257  0.00  0.00    -0.471 OA
ATOM     15  C   UNL     1       4.329   4.578   0.991  0.00  0.00    +0.252 C 
ENDBRANCH  13  14
ENDBRANCH   3   8
BRANCH   4  16
ATOM     16  C   UNL     1       0.425  -1.606  -0.117  0.00  0.00    +0.015 C 
ATOM     17  C   UNL     1       1.016  -2.048   1.066  0.00  0.00    +0.004 C 
ATOM     18  C   UNL     1       0.912  -2.047  -1.347  0.00  0.00    +0.004 C 
ATOM     19  C   UNL     1       2.094  -2.932   1.020  0.00  0.00    +0.037 C 
ATOM     20  C   UNL     1       1.990  -2.931  -1.394  0.00  0.00    +0.037 C 
ATOM     21  C   UNL     1       2.581  -3.373  -0.211  0.00  0.00    +0.139 C 
BRANCH  21  22
ATOM     22  O   UNL     1       3.632  -4.237  -0.256  0.00  0.00    -0.471 OA
ATOM     23  C   UNL     1       4.188  -4.650   0.991  0.00  0.00    +0.252 C 
ENDBRANCH  21  22
ENDBRANCH   4  16
BRANCH   5  25
ATOM     24  S   UNL     1      -5.052  -1.351   0.117  0.00  0.00    -0.087 S 
ATOM     25  C   UNL     1      -4.100   0.075   0.079  0.00  0.00    +0.044 C 
ATOM     26  C   UNL     1      -4.881   1.213   0.114  0.00  0.00    +0.006 C 
ATOM     27  C   UNL     1      -6.272   0.910   0.173  0.00  0.00    +0.007 C 
ATOM     28  C   UNL     1      -6.506  -0.448   0.181  0.00  0.00    +0.035 C 
ENDBRANCH   5  25
TORSDOF 5
