REMARK  Name = 9804302
REMARK  7 active torsions:
REMARK  status: ('A' for Active; 'I' for Inactive)
REMARK    1  A    between atoms: C_5  and  O_21
REMARK    2  A    between atoms: C_17  and  O_19
REMARK    3  A    between atoms: C_18  and  O_28
REMARK    4  A    between atoms: O_21  and  S_22
REMARK    5  A    between atoms: S_22  and  N_25
REMARK    6  A    between atoms: O_28  and  S_29
REMARK    7  A    between atoms: S_29  and  N_32
REMARK                            x       y       z     vdW  Elec       q    Type
REMARK                         _______ _______ _______ _____ _____    ______ ____
ROOT
ATOM      1  C   UNL     1       3.031   0.238   0.148  0.00  0.00    +0.027 C 
ATOM      2  C   UNL     1       2.315  -1.067  -0.256  0.00  0.00    +0.003 C 
ATOM      3  C   UNL     1       0.857  -1.090   0.200  0.00  0.00    +0.004 C 
ATOM      4  C   UNL     1       0.100   0.087  -0.487  0.00  0.00    +0.022 C 
ATOM      5  C   UNL     1       4.443  -0.079  -0.380  0.00  0.00    +0.144 C 
ATOM      6  C   UNL     1       2.327   1.405  -0.554  0.00  0.00    +0.003 C 
ATOM      7  C   UNL     1       3.267  -2.158   0.226  0.00  0.00    +0.003 C 
ATOM      8  C   UNL     1       0.820   1.440  -0.236  0.00  0.00    +0.004 C 
ATOM      9  C   UNL     1       4.667  -1.552   0.015  0.00  0.00    +0.032 C 
ATOM     10  C   UNL     1       0.153  -2.403  -0.147  0.00  0.00    +0.005 C 
ATOM     11  C   UNL     1       3.075   0.509   1.673  0.00  0.00    +0.002 C 
ATOM     12  C   UNL     1      -1.385   0.069  -0.137  0.00  0.00    -0.023 C 
ATOM     13  C   UNL     1      -1.247  -2.417   0.459  0.00  0.00    +0.026 C 
ATOM     14  C   UNL     1      -2.012  -1.130   0.267  0.00  0.00    -0.023 C 
ATOM     15  C   UNL     1      -2.183   1.217  -0.291  0.00  0.00    +0.036 C 
ATOM     16  C   UNL     1      -3.389  -1.139   0.553  0.00  0.00    +0.038 C 
ATOM     17  C   UNL     1      -3.551   1.192  -0.012  0.00  0.00    +0.175 C 
ATOM     18  C   UNL     1      -4.154   0.015   0.414  0.00  0.00    +0.206 C 
ENDROOT
BRANCH  17  19
ATOM     19  O   UNL     1      -4.286   2.329  -0.166  0.00  0.00    -0.468 OA
ATOM     20  C   UNL     1      -4.399   3.186   0.968  0.00  0.00    +0.253 C 
ENDBRANCH  17  19
BRANCH   5  21
ATOM     21  O   UNL     1       5.439   0.766   0.161  0.00  0.00    -0.232 OA
BRANCH  21  22
ATOM     22  S   UNL     1       7.014   0.529  -0.227  0.00  0.00    +0.045 S 
ATOM     23  O   UNL     1       7.429  -0.757   0.303  0.00  0.00    -0.056 OA
ATOM     24  O   UNL     1       7.161   0.812  -1.643  0.00  0.00    -0.056 OA
BRANCH  22  25
ATOM     25  N   UNL     1       7.844   1.755   0.637  0.00  0.00    -0.204 NA
ATOM     26  H   UNL     1       7.759   1.583   1.639  0.00  0.00    +0.144 HD
ATOM     27  H   UNL     1       7.438   2.664   0.413  0.00  0.00    +0.144 HD
ENDBRANCH  22  25
ENDBRANCH  21  22
ENDBRANCH   5  21
BRANCH  18  28
ATOM     28  O   UNL     1      -5.486  -0.023   0.694  0.00  0.00    -0.346 OA
BRANCH  28  29
ATOM     29  S   UNL     1      -6.634  -0.379  -0.422  0.00  0.00    +0.086 S 
ATOM     30  O   UNL     1      -6.465  -1.763  -0.826  0.00  0.00    -0.046 OA
ATOM     31  O   UNL     1      -6.657   0.686  -1.409  0.00  0.00    -0.046 OA
BRANCH  29  32
ATOM     32  N   UNL     1      -8.094  -0.280   0.474  0.00  0.00    -0.194 NA
ATOM     33  H   UNL     1      -8.111  -1.017   1.179  0.00  0.00    +0.145 HD
ATOM     34  H   UNL     1      -8.888  -0.395  -0.156  0.00  0.00    +0.145 HD
ENDBRANCH  29  32
ENDBRANCH  28  29
ENDBRANCH  18  28
TORSDOF 7
