REMARK  Name = 10389239
REMARK  2 active torsions:
REMARK  status: ('A' for Active; 'I' for Inactive)
REMARK    1  A    between atoms: C_2  and  C_14
REMARK    2  A    between atoms: C_4  and  C_20
REMARK                            x       y       z     vdW  Elec       q    Type
REMARK                         _______ _______ _______ _____ _____    ______ ____
ROOT
ATOM      1  N   UNL     1      -1.311   2.345  -0.535  0.00  0.00    -0.244 NA
ATOM      2  C   UNL     1       1.208   1.175  -0.228  0.00  0.00    +0.016 C 
ATOM      3  C   UNL     1       0.062   0.393  -0.145  0.00  0.00    +0.020 C 
ATOM      4  C   UNL     1      -1.163   1.021  -0.304  0.00  0.00    +0.083 C 
ATOM      5  C   UNL     1       1.098   2.541  -0.463  0.00  0.00    +0.022 C 
ATOM      6  C   UNL     1      -0.174   3.072  -0.609  0.00  0.00    +0.099 C 
ENDROOT
BRANCH   2  14
ATOM      7  O   UNL     1       4.929  -3.018  -0.402  0.00  0.00    -0.270 OA
ATOM      8  N   UNL     1       3.573   1.265   0.456  0.00  0.00    -0.316 N 
ATOM      9  N   UNL     1       6.573  -1.505   0.188  0.00  0.00    -0.300 N 
ATOM     10  C   UNL     1       4.663   0.444   0.487  0.00  0.00    +0.031 C 
ATOM     11  C   UNL     1       6.006   0.793   1.007  0.00  0.00    +0.063 C 
ATOM     12  C   UNL     1       4.306  -0.785  -0.027  0.00  0.00    +0.064 C 
ATOM     13  C   UNL     1       7.028  -0.115   0.314  0.00  0.00    +0.096 C 
ATOM     14  C   UNL     1       2.510   0.572  -0.070  0.00  0.00    +0.048 C 
ATOM     15  C   UNL     1       2.936  -0.706  -0.373  0.00  0.00    +0.020 C 
ATOM     16  C   UNL     1       5.262  -1.873  -0.111  0.00  0.00    +0.247 C 
ATOM     17  H   UNL     1       3.552   2.201   0.760  0.00  0.00    +0.152 HD
ATOM     18  H   UNL     1       7.235  -2.221   0.323  0.00  0.00    +0.150 HD
ENDBRANCH   2  14
BRANCH   4  20
ATOM     19  N   UNL     1      -3.575  -1.807  -0.564  0.00  0.00    -0.244 NA
ATOM     20  C   UNL     1      -2.396   0.274  -0.231  0.00  0.00    +0.037 C 
ATOM     21  C   UNL     1      -3.568   0.863   0.220  0.00  0.00    +0.005 C 
ATOM     22  C   UNL     1      -4.753   0.117   0.282  0.00  0.00    +0.018 C 
ATOM     23  C   UNL     1      -4.711  -1.233  -0.126  0.00  0.00    +0.081 C 
ATOM     24  C   UNL     1      -2.453  -1.053  -0.609  0.00  0.00    +0.100 C 
ATOM     25  C   UNL     1      -5.957   0.684   0.735  0.00  0.00    +0.001 C 
ATOM     26  C   UNL     1      -5.888  -1.973  -0.064  0.00  0.00    +0.019 C 
ATOM     27  C   UNL     1      -7.120  -0.080   0.786  0.00  0.00    +0.000 C 
ATOM     28  C   UNL     1      -7.085  -1.410   0.386  0.00  0.00    +0.002 C 
ENDBRANCH   4  20
TORSDOF 2
