REMARK  Name = 2475
REMARK  7 active torsions:
REMARK  status: ('A' for Active; 'I' for Inactive)
REMARK    1  A    between atoms: C_1  and  O_2
REMARK    2  A    between atoms: C_1  and  C_4
REMARK    3  A    between atoms: C_1  and  C_12
REMARK    4  A    between atoms: C_4  and  N_5
REMARK    5  A    between atoms: N_5  and  C_8
REMARK    6  A    between atoms: C_12  and  O_13
REMARK    7  A    between atoms: O_13  and  C_15
REMARK                            x       y       z     vdW  Elec       q    Type
REMARK                         _______ _______ _______ _____ _____    ______ ____
ROOT
ATOM      1  C   UNL     1      -1.556  -2.175  -0.308  0.00  0.00    +0.133 C 
ENDROOT
BRANCH   1   2
ATOM      2  O   UNL     1      -1.625  -3.152   0.733  0.00  0.00    -0.383 OA
ATOM      3  H   UNL     1      -2.554  -3.352   0.928  0.00  0.00    +0.210 HD
ENDBRANCH   1   2
BRANCH   1   4
ATOM      4  C   UNL     1      -2.348  -0.944   0.138  0.00  0.00    -0.048 C 
BRANCH   4   5
ATOM      5  N   UNL     1      -2.385   0.084  -0.888  0.00  0.00    +0.388 N 
ATOM      6  H   UNL     1      -1.431   0.373  -1.108  0.00  0.00    -0.084 HD
ATOM      7  H   UNL     1      -2.837  -0.297  -1.719  0.00  0.00    -0.084 HD
BRANCH   5   8
ATOM      8  C   UNL     1      -3.147   1.248  -0.425  0.00  0.00    -0.046 C 
ATOM      9  C   UNL     1      -3.166   2.296  -1.543  0.00  0.00    -0.022 C 
ATOM     10  C   UNL     1      -4.576   0.798  -0.102  0.00  0.00    -0.022 C 
ATOM     11  C   UNL     1      -2.481   1.827   0.828  0.00  0.00    -0.022 C 
ENDBRANCH   5   8
ENDBRANCH   4   5
ENDBRANCH   1   4
BRANCH   1  12
ATOM     12  C   UNL     1      -0.087  -1.875  -0.600  0.00  0.00    +0.232 C 
BRANCH  12  13
ATOM     13  O   UNL     1       0.515  -1.338   0.574  0.00  0.00    -0.472 OA
BRANCH  13  15
ATOM     14 CL   UNL     1       0.831   0.760   2.704  0.00  0.00    -0.079 Cl
ATOM     15  C   UNL     1       1.557  -0.469   0.388  0.00  0.00    +0.149 C 
ATOM     16  C   UNL     1       2.360  -0.625  -0.738  0.00  0.00    +0.034 C 
ATOM     17  C   UNL     1       1.813   0.549   1.302  0.00  0.00    +0.091 C 
ATOM     18  C   UNL     1       3.429   0.245  -0.952  0.00  0.00    -0.019 C 
ATOM     19  C   UNL     1       3.690   1.267  -0.040  0.00  0.00    -0.003 C 
ATOM     20  C   UNL     1       2.882   1.419   1.087  0.00  0.00    +0.014 C 
ATOM     21  C   UNL     1       4.293   0.083  -2.157  0.00  0.00    +0.031 C 
ENDBRANCH  13  15
ENDBRANCH  12  13
ENDBRANCH   1  12
TORSDOF 7
