REMARK  Name = 24865390
REMARK  3 active torsions:
REMARK  status: ('A' for Active; 'I' for Inactive)
REMARK    1  A    between atoms: N_1  and  C_10
REMARK    2  A    between atoms: C_7  and  C_17
REMARK    3  A    between atoms: C_17  and  C_18
REMARK                            x       y       z     vdW  Elec       q    Type
REMARK                         _______ _______ _______ _____ _____    ______ ____
ROOT
ATOM      1  N   UNL     1       1.985  -0.701   0.284  0.00  0.00    -0.202 N 
ATOM      2  N   UNL     1       0.918  -1.061   1.021  0.00  0.00    -0.185 NA
ATOM      3  N   UNL     1       2.834   1.214  -0.931  0.00  0.00    -0.232 NA
ATOM      4  N   UNL     1       1.305   3.111  -0.808  0.00  0.00    -0.234 NA
ATOM      5  C   UNL     1       1.922   0.581  -0.176  0.00  0.00    +0.136 C 
ATOM      6  C   UNL     1       0.727   1.097   0.294  0.00  0.00    +0.146 C 
ATOM      7  C   UNL     1       0.155   0.038   1.023  0.00  0.00    +0.072 C 
ATOM      8  C   UNL     1       0.428   2.412  -0.047  0.00  0.00    +0.111 C 
ATOM      9  C   UNL     1       2.437   2.477  -1.197  0.00  0.00    +0.252 C 
ATOM     10  N   UNL     1      -0.763   3.022   0.384  0.00  0.00    -0.346 N 
ATOM     11  H   UNL     1      -0.958   3.954   0.134  0.00  0.00    +0.143 HD
ATOM     12  H   UNL     1      -1.402   2.517   0.937  0.00  0.00    +0.143 HD
ENDROOT
BRANCH   1  13
ATOM     13  C   UNL     1       3.116  -1.714   0.041  0.00  0.00    +0.081 C 
ATOM     14  C   UNL     1       4.441  -1.159   0.608  0.00  0.00    +0.022 C 
ATOM     15  C   UNL     1       3.276  -1.961  -1.474  0.00  0.00    +0.022 C 
ATOM     16  C   UNL     1       2.877  -3.089   0.706  0.00  0.00    +0.022 C 
ENDBRANCH   1  13
BRANCH   7  17
ATOM     17  C   UNL     1      -1.128   0.022   1.748  0.00  0.00    +0.070 C 
BRANCH  17  18
ATOM     18  C   UNL     1      -2.354  -0.142   0.860  0.00  0.00    -0.017 C 
ATOM     19  C   UNL     1      -2.446  -1.229  -0.009  0.00  0.00    -0.008 C 
ATOM     20  C   UNL     1      -3.385   0.795   0.915  0.00  0.00    -0.004 C 
ATOM     21  C   UNL     1      -3.568  -1.379  -0.823  0.00  0.00    -0.022 C 
ATOM     22  C   UNL     1      -4.508   0.646   0.102  0.00  0.00    -0.001 C 
ATOM     23  C   UNL     1      -4.600  -0.441  -0.767  0.00  0.00    -0.004 C 
ATOM     24  C   UNL     1      -3.667  -2.541  -1.753  0.00  0.00    +0.031 C 
ENDBRANCH  17  18
ENDBRANCH   7  17
TORSDOF 3
