REMARK  Name = 73571
REMARK  4 active torsions:
REMARK  status: ('A' for Active; 'I' for Inactive)
REMARK    1  A    between atoms: C_3  and  C_12
REMARK    2  A    between atoms: C_8  and  O_20
REMARK    3  A    between atoms: C_10  and  O_22
REMARK    4  A    between atoms: C_17  and  O_18
REMARK                            x       y       z     vdW  Elec       q    Type
REMARK                         _______ _______ _______ _____ _____    ______ ____
ROOT
ATOM      1  O   UNL     1      -0.178  -0.672  -0.159  0.00  0.00    -0.474 OA
ATOM      2  O   UNL     1       1.251   3.172  -0.057  0.00  0.00    -0.291 OA
ATOM      3  C   UNL     1      -0.970   0.391   0.393  0.00  0.00    +0.196 C 
ATOM      4  C   UNL     1      -0.647   1.722  -0.282  0.00  0.00    +0.117 C 
ATOM      5  C   UNL     1       1.716   0.858  -0.027  0.00  0.00    +0.103 C 
ATOM      6  C   UNL     1       0.816   2.027  -0.094  0.00  0.00    +0.183 C 
ATOM      7  C   UNL     1       1.169  -0.427  -0.086  0.00  0.00    +0.148 C 
ATOM      8  C   UNL     1       3.100   1.032   0.050  0.00  0.00    +0.142 C 
ATOM      9  C   UNL     1       2.011  -1.540  -0.102  0.00  0.00    +0.074 C 
ATOM     10  C   UNL     1       3.393  -1.368  -0.027  0.00  0.00    +0.145 C 
ATOM     11  C   UNL     1       3.936  -0.086   0.054  0.00  0.00    +0.074 C 
ENDROOT
BRANCH   3  12
ATOM     12  C   UNL     1      -2.433   0.035   0.226  0.00  0.00    +0.018 C 
ATOM     13  C   UNL     1      -3.236  -0.155   1.350  0.00  0.00    +0.002 C 
ATOM     14  C   UNL     1      -2.974  -0.103  -1.051  0.00  0.00    +0.002 C 
ATOM     15  C   UNL     1      -4.583  -0.484   1.196  0.00  0.00    +0.036 C 
ATOM     16  C   UNL     1      -4.321  -0.432  -1.205  0.00  0.00    +0.036 C 
ATOM     17  C   UNL     1      -5.125  -0.623  -0.081  0.00  0.00    +0.134 C 
BRANCH  17  18
ATOM     18  O   UNL     1      -6.440  -0.943  -0.230  0.00  0.00    -0.506 OA
ATOM     19  H   UNL     1      -6.980  -1.070   0.525  0.00  0.00    +0.292 HD
ENDBRANCH  17  18
ENDBRANCH   3  12
BRANCH   8  20
ATOM     20  O   UNL     1       3.685   2.261   0.114  0.00  0.00    -0.505 OA
ATOM     21  H   UNL     1       3.154   3.033   0.113  0.00  0.00    +0.292 HD
ENDBRANCH   8  20
BRANCH  10  22
ATOM     22  O   UNL     1       4.214  -2.455  -0.031  0.00  0.00    -0.471 OA
ATOM     23  C   UNL     1       5.617  -2.208   0.049  0.00  0.00    +0.252 C 
ENDBRANCH  10  22
TORSDOF 4
