9883933
  -OEChem-10051723593D

 50 50  0     1  0  0  0  0  0999 V2000
   -5.5430    1.1475   -0.3845 O   0  0  0  0  0  0  0  0  0  0  0  0
   -3.9503    2.6244    0.2957 O   0  0  0  0  0  0  0  0  0  0  0  0
    1.1802    1.8329   -0.0126 O   0  0  0  0  0  0  0  0  0  0  0  0
    0.8771   -0.0208    1.3101 O   0  0  0  0  0  0  0  0  0  0  0  0
    3.1298    0.5210   -0.3632 O   0  0  0  0  0  0  0  0  0  0  0  0
    5.0623    0.7013    0.8847 O   0  0  0  0  0  0  0  0  0  0  0  0
   -0.9098    1.0952    0.3410 N   0  0  0  0  0  0  0  0  0  0  0  0
   -2.7798   -0.3898   -0.2819 C   0  0  0  0  0  0  0  0  0  0  0  0
   -3.9326   -1.2448    0.2920 C   0  0  0  0  0  0  0  0  0  0  0  0
   -1.8664   -1.2667   -1.1685 C   0  0  0  0  0  0  0  0  0  0  0  0
   -3.4559   -2.5229    0.9820 C   0  0  0  0  0  0  0  0  0  0  0  0
   -1.3932   -2.5448   -0.4763 C   0  0  0  0  0  0  0  0  0  0  0  0
   -2.5630   -3.3562    0.0695 C   0  0  0  0  0  0  0  0  0  0  0  0
   -1.9682    0.2586    0.8562 C   0  0  0  0  0  0  0  0  0  0  0  0
   -3.3756    0.7408   -1.1417 C   0  0  0  0  0  0  0  0  0  0  0  0
   -4.2732    1.6254   -0.3291 C   0  0  0  0  0  0  0  0  0  0  0  0
    0.4253    0.8812    0.6125 C   0  0  0  0  0  0  0  0  0  0  0  0
    2.6096    1.7526    0.1745 C   0  0  1  0  0  0  0  0  0  0  0  0
    3.2252    2.9212   -0.5818 C   0  0  0  0  0  0  0  0  0  0  0  0
    4.7185   -1.2004   -0.5946 C   0  0  0  0  0  0  0  0  0  0  0  0
    4.3581    0.1143    0.0742 C   0  0  0  0  0  0  0  0  0  0  0  0
    4.1980   -2.3624    0.2431 C   0  0  0  0  0  0  0  0  0  0  0  0
    6.2271   -1.3077   -0.8012 C   0  0  0  0  0  0  0  0  0  0  0  0
   -4.5176   -0.6780    1.0257 H   0  0  0  0  0  0  0  0  0  0  0  0
   -4.6202   -1.5286   -0.5159 H   0  0  0  0  0  0  0  0  0  0  0  0
   -2.4232   -1.5615   -2.0690 H   0  0  0  0  0  0  0  0  0  0  0  0
   -0.9973   -0.7061   -1.5317 H   0  0  0  0  0  0  0  0  0  0  0  0
   -2.9154   -2.2765    1.9030 H   0  0  0  0  0  0  0  0  0  0  0  0
   -4.3253   -3.1191    1.2829 H   0  0  0  0  0  0  0  0  0  0  0  0
   -0.8298   -3.1565   -1.1907 H   0  0  0  0  0  0  0  0  0  0  0  0
   -0.7006   -2.3014    0.3369 H   0  0  0  0  0  0  0  0  0  0  0  0
   -2.1846   -4.2264    0.6177 H   0  0  0  0  0  0  0  0  0  0  0  0
   -3.1586   -3.7422   -0.7670 H   0  0  0  0  0  0  0  0  0  0  0  0
   -1.5305   -0.5023    1.5099 H   0  0  0  0  0  0  0  0  0  0  0  0
   -2.5866    0.8821    1.5092 H   0  0  0  0  0  0  0  0  0  0  0  0
   -2.6136    1.3667   -1.6193 H   0  0  0  0  0  0  0  0  0  0  0  0
   -3.9561    0.3287   -1.9786 H   0  0  0  0  0  0  0  0  0  0  0  0
   -1.1527    1.9252   -0.1904 H   0  0  0  0  0  0  0  0  0  0  0  0
   -6.1640    1.6983    0.1380 H   0  0  0  0  0  0  0  0  0  0  0  0
    2.8243    1.8344    1.2476 H   0  0  0  0  0  0  0  0  0  0  0  0
    2.8086    3.8722   -0.2347 H   0  0  0  0  0  0  0  0  0  0  0  0
    4.3130    2.9472   -0.4703 H   0  0  0  0  0  0  0  0  0  0  0  0
    3.0084    2.8410   -1.6531 H   0  0  0  0  0  0  0  0  0  0  0  0
    4.2474   -1.2226   -1.5854 H   0  0  0  0  0  0  0  0  0  0  0  0
    4.6448   -2.3629    1.2435 H   0  0  0  0  0  0  0  0  0  0  0  0
    4.4245   -3.3214   -0.2340 H   0  0  0  0  0  0  0  0  0  0  0  0
    3.1118   -2.2952    0.3696 H   0  0  0  0  0  0  0  0  0  0  0  0
    6.4817   -2.2254   -1.3414 H   0  0  0  0  0  0  0  0  0  0  0  0
    6.6004   -0.4569   -1.3816 H   0  0  0  0  0  0  0  0  0  0  0  0
    6.7634   -1.3161    0.1542 H   0  0  0  0  0  0  0  0  0  0  0  0
  1 16  1  0  0  0  0
  1 39  1  0  0  0  0
  2 16  2  0  0  0  0
  3 17  1  0  0  0  0
  3 18  1  0  0  0  0
  4 17  2  0  0  0  0
  5 18  1  0  0  0  0
  5 21  1  0  0  0  0
  6 21  2  0  0  0  0
  7 14  1  0  0  0  0
  7 17  1  0  0  0  0
  7 38  1  0  0  0  0
  8  9  1  0  0  0  0
  8 10  1  0  0  0  0
  8 14  1  0  0  0  0
  8 15  1  0  0  0  0
  9 11  1  0  0  0  0
  9 24  1  0  0  0  0
  9 25  1  0  0  0  0
 10 12  1  0  0  0  0
 10 26  1  0  0  0  0
 10 27  1  0  0  0  0
 11 13  1  0  0  0  0
 11 28  1  0  0  0  0
 11 29  1  0  0  0  0
 12 13  1  0  0  0  0
 12 30  1  0  0  0  0
 12 31  1  0  0  0  0
 13 32  1  0  0  0  0
 13 33  1  0  0  0  0
 14 34  1  0  0  0  0
 14 35  1  0  0  0  0
 15 16  1  0  0  0  0
 15 36  1  0  0  0  0
 15 37  1  0  0  0  0
 18 19  1  0  0  0  0
 18 40  1  0  0  0  0
 19 41  1  0  0  0  0
 19 42  1  0  0  0  0
 19 43  1  0  0  0  0
 20 21  1  0  0  0  0
 20 22  1  0  0  0  0
 20 23  1  0  0  0  0
 20 44  1  0  0  0  0
 22 45  1  0  0  0  0
 22 46  1  0  0  0  0
 22 47  1  0  0  0  0
 23 48  1  0  0  0  0
 23 49  1  0  0  0  0
 23 50  1  0  0  0  0
M  END
> <DATABASE_ID>
DB08872

> <DATABASE_NAME>
drugbank

> <ORIGINAL_SOURCE>
PUBCHEM

> <ORIGINAL_SOURCE_URL>
https://pubchem.ncbi.nlm.nih.gov/rest/pug/compound/inchikey/TZDUHAJSIBHXDL-UHFFFAOYSA-N/SDF?record_type=3d

> <SMILES>
CC(C)C(=O)OC(C)OC(=O)NCC1(CC(O)=O)CCCCC1

> <INCHI_IDENTIFIER>
InChI=1S/C16H27NO6/c1-11(2)14(20)22-12(3)23-15(21)17-10-16(9-13(18)19)7-5-4-6-8-16/h11-12H,4-10H2,1-3H3,(H,17,21)(H,18,19)

> <INCHI_KEY>
TZDUHAJSIBHXDL-UHFFFAOYSA-N

> <FORMULA>
C16H27NO6

> <MOLECULAR_WEIGHT>
329.393

> <EXACT_MASS>
329.183837593

> <JCHEM_ACCEPTOR_COUNT>
4

> <JCHEM_ATOM_COUNT>
50

> <JCHEM_AVERAGE_POLARIZABILITY>
34.37975228649671

> <JCHEM_BIOAVAILABILITY>
1

> <JCHEM_DONOR_COUNT>
2

> <JCHEM_FORMAL_CHARGE>
0

> <JCHEM_GHOSE_FILTER>
1

> <JCHEM_IUPAC>
2-(1-{[({1-[(2-methylpropanoyl)oxy]ethoxy}carbonyl)amino]methyl}cyclohexyl)acetic acid

> <ALOGPS_LOGP>
2.45

> <JCHEM_LOGP>
2.7634692416666664

> <ALOGPS_LOGS>
-3.01

> <JCHEM_MDDR_LIKE_RULE>
0

> <JCHEM_NUMBER_OF_RINGS>
1

> <JCHEM_PHYSIOLOGICAL_CHARGE>
-1

> <JCHEM_PKA>
15.000695674166991

> <JCHEM_PKA_STRONGEST_ACIDIC>
4.352854024691864

> <JCHEM_PKA_STRONGEST_BASIC>
-7.146365794149963

> <JCHEM_POLAR_SURFACE_AREA>
101.93

> <JCHEM_REFRACTIVITY>
81.69269999999999

> <JCHEM_ROTATABLE_BOND_COUNT>
9

> <JCHEM_RULE_OF_FIVE>
1

> <ALOGPS_SOLUBILITY>
3.25e-01 g/l

> <JCHEM_TRADITIONAL_IUPAC>
gabapentin enacarbil

> <JCHEM_VEBER_RULE>
0

> <DRUGBANK_ID>
DB08872

> <SECONDARY_ACCESSION_NUMBERS>
DB04922

> <DRUG_GROUPS>
approved; investigational

> <GENERIC_NAME>
Gabapentin enacarbil

> <SYNONYMS>
Gabapentin enacarbil; Gabapentina enacarbilo; Gabapentine enacarbil; Gabapentinum enacarbilum

> <PRODUCTS>
Horizant

$$$$
