REMARK  Name = 3364665
REMARK  5 active torsions:
REMARK  status: ('A' for Active; 'I' for Inactive)
REMARK    1  A    between atoms: C_1  and  N_8
REMARK    2  A    between atoms: C_2  and  N_14
REMARK    3  A    between atoms: C_3  and  O_15
REMARK    4  A    between atoms: C_4  and  C_18
REMARK    5  A    between atoms: C_18  and  O_19
REMARK                            x       y       z     vdW  Elec       q    Type
REMARK                         _______ _______ _______ _____ _____    ______ ____
ROOT
ATOM      1  C   UNL     1       0.669   0.368  -0.357  0.00  0.00    +0.107 C 
ATOM      2  C   UNL     1       0.080  -0.884  -0.184  0.00  0.00    +0.159 C 
ATOM      3  C   UNL     1      -0.120   1.518  -0.345  0.00  0.00    +0.149 C 
ATOM      4  C   UNL     1      -2.088   0.164   0.012  0.00  0.00    +0.080 C 
ATOM      5  C   UNL     1      -1.299  -0.986   0.001  0.00  0.00    +0.032 C 
ATOM      6  C   UNL     1      -1.499   1.416  -0.161  0.00  0.00    +0.044 C 
ENDROOT
BRANCH   1   8
ATOM      7  O   UNL     1       2.889   0.703   1.649  0.00  0.00    -0.275 OA
ATOM      8  N   UNL     1       2.052   0.484  -0.543  0.00  0.00    -0.280 N 
ATOM      9  C   UNL     1       3.041   0.640   0.433  0.00  0.00    +0.227 C 
ATOM     10  C   UNL     1       4.417   0.727  -0.179  0.00  0.00    +0.095 C 
ATOM     11  H   UNL     1       2.367   0.451  -1.475  0.00  0.00    +0.155 HD
ENDBRANCH   1   8
BRANCH   2  14
ATOM     12  O   UNL     1       0.285  -3.176  -0.029  0.00  0.00    -0.126 OA
ATOM     13  O   UNL     1       2.099  -1.984  -0.356  0.00  0.00    -0.126 OA
ATOM     14  N   UNL     1       0.860  -2.074  -0.190  0.00  0.00    +0.059 N 
ENDBRANCH   2  14
BRANCH   3  15
ATOM     15  O   UNL     1       0.434   2.753  -0.512  0.00  0.00    -0.504 OA
ATOM     16  H   UNL     1       1.359   2.838  -0.638  0.00  0.00    +0.292 HD
ENDBRANCH   3  15
BRANCH   4  18
ATOM     17  O   UNL     1      -4.151  -0.996   0.367  0.00  0.00    -0.245 OA
ATOM     18  C   UNL     1      -3.526   0.058   0.205  0.00  0.00    +0.338 C 
BRANCH  18  19
ATOM     19  O   UNL     1      -4.144   1.270   0.191  0.00  0.00    -0.477 OA
ATOM     20  H   UNL     1      -3.641   2.051   0.066  0.00  0.00    +0.295 HD
ENDBRANCH  18  19
ENDBRANCH   4  18
TORSDOF 5
