REMARK  Name = 51
REMARK  6 active torsions:
REMARK  status: ('A' for Active; 'I' for Inactive)
REMARK    1  A    between atoms: C_1  and  C_3
REMARK    2  A    between atoms: C_1  and  C_8
REMARK    3  A    between atoms: C_3  and  C_5
REMARK    4  A    between atoms: C_5  and  O_6
REMARK    5  A    between atoms: C_8  and  C_10
REMARK    6  A    between atoms: C_10  and  O_11
REMARK                            x       y       z     vdW  Elec       q    Type
REMARK                         _______ _______ _______ _____ _____    ______ ____
ROOT
ATOM      1  C   UNL     1       0.152   0.306  -0.030  0.00  0.00    +0.088 C 
ENDROOT
BRANCH   1   3
ATOM      2  O   UNL     1      -1.269  -1.669  -0.021  0.00  0.00    -0.284 OA
ATOM      3  C   UNL     1      -1.159  -0.452  -0.011  0.00  0.00    +0.248 C 
BRANCH   3   5
ATOM      4  O   UNL     1      -2.387   1.609   0.022  0.00  0.00    -0.242 OA
ATOM      5  C   UNL     1      -2.414   0.395   0.013  0.00  0.00    +0.373 C 
BRANCH   5   6
ATOM      6  O   UNL     1      -3.504  -0.386   0.022  0.00  0.00    -0.475 OA
ATOM      7  H   UNL     1      -3.412  -1.319   0.013  0.00  0.00    +0.295 HD
ENDBRANCH   5   6
ENDBRANCH   3   5
ENDBRANCH   1   3
BRANCH   1   8
ATOM      8  C   UNL     1       1.370  -0.614  -0.036  0.00  0.00    +0.118 C 
BRANCH   8  10
ATOM      9  O   UNL     1       2.794   1.364  -0.028  0.00  0.00    -0.250 OA
ATOM     10  C   UNL     1       2.678   0.146   0.002  0.00  0.00    +0.314 C 
BRANCH  10  11
ATOM     11  O   UNL     1       3.740  -0.698   0.067  0.00  0.00    -0.480 OA
ATOM     12  H   UNL     1       3.602  -1.624   0.088  0.00  0.00    +0.295 HD
ENDBRANCH  10  11
ENDBRANCH   8  10
ENDBRANCH   1   8
TORSDOF 6
