REMARK  Name = 44629554
REMARK  5 active torsions:
REMARK  status: ('A' for Active; 'I' for Inactive)
REMARK    1  A    between atoms: C_5  and  C_30
REMARK    2  A    between atoms: C_6  and  N_18
REMARK    3  A    between atoms: C_7  and  C_12
REMARK    4  A    between atoms: N_18  and  C_20
REMARK    5  A    between atoms: C_20  and  C_24
REMARK                            x       y       z     vdW  Elec       q    Type
REMARK                         _______ _______ _______ _____ _____    ______ ____
ROOT
ATOM      1  N   UNL     1       0.149  -1.722   0.243  0.00  0.00    -0.152 N 
ATOM      2  N   UNL     1       2.437  -0.971   0.224  0.00  0.00    -0.389 NA
ATOM      3  N   UNL     1      -0.563  -2.879   0.355  0.00  0.00    -0.174 NA
ATOM      4  C   UNL     1       1.521  -1.972   0.311  0.00  0.00    +0.189 C 
ATOM      5  C   UNL     1       1.665  -3.331   0.469  0.00  0.00    +0.112 C 
ATOM      6  C   UNL     1      -0.348  -0.420   0.074  0.00  0.00    +0.126 C 
ATOM      7  C   UNL     1       1.977   0.239   0.082  0.00  0.00    +0.140 C 
ATOM      8  C   UNL     1       0.527   0.596  -0.015  0.00  0.00    +0.064 C 
ATOM      9  C   UNL     1       0.358  -3.831   0.490  0.00  0.00    +0.100 C 
ENDROOT
BRANCH   7  12
ATOM     10  F   UNL     1       1.986   2.394   1.904  0.00  0.00    -0.204 F 
ATOM     11  F   UNL     1       3.947   0.395  -1.933  0.00  0.00    -0.204 F 
ATOM     12  C   UNL     1       2.942   1.366  -0.012  0.00  0.00    +0.085 C 
ATOM     13  C   UNL     1       2.897   2.402   0.920  0.00  0.00    +0.145 C 
ATOM     14  C   UNL     1       3.894   1.386  -1.031  0.00  0.00    +0.145 C 
ATOM     15  C   UNL     1       3.803   3.460   0.833  0.00  0.00    +0.030 C 
ATOM     16  C   UNL     1       4.800   2.443  -1.119  0.00  0.00    +0.030 C 
ATOM     17  C   UNL     1       4.754   3.480  -0.187  0.00  0.00    +0.005 C 
ENDBRANCH   7  12
BRANCH   6  18
ATOM     18  N   UNL     1      -1.704  -0.267   0.002  0.00  0.00    -0.316 N 
ATOM     19  H   UNL     1      -2.269  -1.069   0.077  0.00  0.00    +0.148 HD
BRANCH  18  20
ATOM     20  C   UNL     1      -2.347   1.008  -0.178  0.00  0.00    +0.114 C 
BRANCH  20  24
ATOM     21  N   UNL     1      -5.866   0.190  -1.305  0.00  0.00    -0.181 NA
ATOM     22  N   UNL     1      -5.963   1.061   0.939  0.00  0.00    -0.204 NA
ATOM     23  N   UNL     1      -7.916   0.411  -0.185  0.00  0.00    -0.303 N 
ATOM     24  C   UNL     1      -3.842   0.847  -0.180  0.00  0.00    +0.020 C 
ATOM     25  C   UNL     1      -4.526   0.347  -1.269  0.00  0.00    +0.106 C 
ATOM     26  C   UNL     1      -4.620   1.192   0.907  0.00  0.00    +0.163 C 
ATOM     27  C   UNL     1      -6.512   0.561  -0.184  0.00  0.00    +0.084 C 
ATOM     28  H   UNL     1      -8.372   0.050  -0.980  0.00  0.00    +0.154 HD
ATOM     29  H   UNL     1      -8.440   0.667   0.608  0.00  0.00    +0.154 HD
ENDBRANCH  20  24
ENDBRANCH  18  20
ENDBRANCH   6  18
BRANCH   5  30
ATOM     30  C   UNL     1       2.918  -4.094   0.592  0.00  0.00    +0.015 C 
ATOM     31  C   UNL     1       3.634  -4.292  -0.750  0.00  0.00    +0.001 C 
ENDBRANCH   5  30
TORSDOF 5
