REMARK  Name = 30768
REMARK  2 active torsions:
REMARK  status: ('A' for Active; 'I' for Inactive)
REMARK    1  A    between atoms: N_4  and  C_21
REMARK    2  A    between atoms: C_5  and  C_15
REMARK                            x       y       z     vdW  Elec       q    Type
REMARK                         _______ _______ _______ _____ _____    ______ ____
ROOT
ATOM      1 CL   UNL     1      -3.139   3.821  -0.025  0.00  0.00    -0.083 Cl
ATOM      2  O   UNL     1       1.112  -1.018   0.603  0.00  0.00    -0.443 OA
ATOM      3  N   UNL     1       2.042   0.965  -0.258  0.00  0.00    -0.359 NA
ATOM      4  N   UNL     1       3.301  -0.997   0.077  0.00  0.00    -0.278 N 
ATOM      5  C   UNL     1      -0.200  -0.439   0.878  0.00  0.00    +0.165 C 
ATOM      6  C   UNL     1      -0.329   0.978   0.343  0.00  0.00    +0.116 C 
ATOM      7  C   UNL     1      -0.270  -0.388   2.418  0.00  0.00    +0.049 C 
ATOM      8  C   UNL     1       0.800   1.605  -0.195  0.00  0.00    +0.121 C 
ATOM      9  C   UNL     1      -1.547   1.677   0.395  0.00  0.00    -0.004 C 
ATOM     10  C   UNL     1       2.143  -0.272   0.121  0.00  0.00    +0.340 C 
ATOM     11  C   UNL     1       0.696   2.915  -0.682  0.00  0.00    +0.029 C 
ATOM     12  C   UNL     1      -1.640   2.980  -0.094  0.00  0.00    +0.054 C 
ATOM     13  C   UNL     1      -0.518   3.598  -0.634  0.00  0.00    +0.013 C 
ATOM     14  H   UNL     1       3.283  -1.936   0.372  0.00  0.00    +0.152 HD
ENDROOT
BRANCH   5  15
ATOM     15  C   UNL     1      -1.201  -1.391   0.219  0.00  0.00    +0.014 C 
ATOM     16  C   UNL     1      -1.167  -1.585  -1.159  0.00  0.00    -0.001 C 
ATOM     17  C   UNL     1      -2.139  -2.058   1.002  0.00  0.00    -0.001 C 
ATOM     18  C   UNL     1      -2.079  -2.453  -1.759  0.00  0.00    -0.000 C 
ATOM     19  C   UNL     1      -3.051  -2.927   0.401  0.00  0.00    -0.000 C 
ATOM     20  C   UNL     1      -3.020  -3.124  -0.979  0.00  0.00    -0.000 C 
ENDBRANCH   5  15
BRANCH   4  21
ATOM     21  C   UNL     1       4.538  -0.440  -0.382  0.00  0.00    +0.092 C 
ATOM     22  C   UNL     1       5.667  -1.446  -0.289  0.00  0.00    +0.023 C 
ENDBRANCH   4  21
TORSDOF 2
