REMARK  Name = 14611919
REMARK  5 active torsions:
REMARK  status: ('A' for Active; 'I' for Inactive)
REMARK    1  A    between atoms: C_3  and  C_11
REMARK    2  A    between atoms: C_5  and  C_19
REMARK    3  A    between atoms: C_7  and  S_24
REMARK    4  A    between atoms: N_18  and  N_21
REMARK    5  A    between atoms: S_24  and  N_27
REMARK                            x       y       z     vdW  Elec       q    Type
REMARK                         _______ _______ _______ _____ _____    ______ ____
ROOT
ATOM      1  N   UNL     1      -0.674  -2.279   0.003  0.00  0.00    -0.350 N 
ATOM      2  C   UNL     1       0.569  -0.427   0.027  0.00  0.00    +0.018 A 
ATOM      3  C   UNL     1      -0.806  -0.063   0.011  0.00  0.00    +0.022 A 
ATOM      4  C   UNL     1       0.625  -1.822   0.022  0.00  0.00    +0.057 A 
ATOM      5  C   UNL     1      -1.546  -1.224  -0.005  0.00  0.00    +0.112 A 
ATOM      6  C   UNL     1       1.777   0.299   0.047  0.00  0.00    +0.021 C 
ATOM      7  C   UNL     1       2.991  -0.396   0.060  0.00  0.00    +0.122 C 
ATOM      8  C   UNL     1       1.832  -2.531   0.035  0.00  0.00    +0.018 C 
ATOM      9  C   UNL     1       3.016  -1.789   0.054  0.00  0.00    +0.021 C 
ATOM     10  H   UNL     1      -0.938  -3.228  -0.005  0.00  0.00    +0.166 HD
ENDROOT
BRANCH   3  11
ATOM     11  C   UNL     1      -1.397   1.247   0.009  0.00  0.00    +0.002 C 
ATOM     12  C   UNL     1      -1.667   1.887  -1.200  0.00  0.00    +0.000 C 
ATOM     13  C   UNL     1      -1.700   1.876   1.215  0.00  0.00    +0.000 C 
ATOM     14  C   UNL     1      -2.241   3.159  -1.202  0.00  0.00    +0.000 C 
ATOM     15  C   UNL     1      -2.273   3.147   1.214  0.00  0.00    +0.000 C 
ATOM     16  C   UNL     1      -2.544   3.789   0.005  0.00  0.00    +0.000 C 
ENDBRANCH   3  11
BRANCH   5  19
ATOM     17  O   UNL     1      -3.780  -0.436  -0.012  0.00  0.00    -0.267 OA
ATOM     18  N   UNL     1      -3.453  -2.712  -0.038  0.00  0.00    -0.248 N 
ATOM     19  C   UNL     1      -2.967  -1.391  -0.026  0.00  0.00    +0.274 C 
ATOM     20  H   UNL     1      -2.821  -3.466  -0.049  0.00  0.00    +0.169 HD
BRANCH  18  21
ATOM     21  N   UNL     1      -4.815  -2.957  -0.034  0.00  0.00    -0.254 NA
ATOM     22  H   UNL     1      -5.319  -2.070  -0.022  0.00  0.00    +0.140 HD
ATOM     23  H   UNL     1      -5.060  -3.499   0.794  0.00  0.00    +0.140 HD
ENDBRANCH  18  21
ENDBRANCH   5  19
BRANCH   7  24
ATOM     24  S   UNL     1       4.494   0.496   0.086  0.00  0.00    +0.057 S 
ATOM     25  O   UNL     1       4.236   1.811   0.656  0.00  0.00    -0.153 OA
ATOM     26  O   UNL     1       5.525  -0.354   0.663  0.00  0.00    -0.153 OA
BRANCH  24  27
ATOM     27  N   UNL     1       4.797   0.669  -1.586  0.00  0.00    -0.203 NA
ATOM     28  H   UNL     1       5.667   1.185  -1.723  0.00  0.00    +0.144 HD
ATOM     29  H   UNL     1       4.028   1.179  -2.021  0.00  0.00    +0.144 HD
ENDBRANCH  24  27
ENDBRANCH   7  24
TORSDOF 5
