REMARK  Name = 3000663
REMARK  8 active torsions:
REMARK  status: ('A' for Active; 'I' for Inactive)
REMARK    1  A    between atoms: C_1  and  C_4
REMARK    2  A    between atoms: C_2  and  N_17
REMARK    3  A    between atoms: C_5  and  O_15
REMARK    4  A    between atoms: C_6  and  O_13
REMARK    5  A    between atoms: C_7  and  C_11
REMARK    6  A    between atoms: N_17  and  C_20
REMARK    7  A    between atoms: C_20  and  N_21
REMARK    8  A    between atoms: C_27  and  C_30
REMARK                            x       y       z     vdW  Elec       q    Type
REMARK                         _______ _______ _______ _____ _____    ______ ____
ROOT
ATOM      1  C   UNL     1      -2.980  -1.138  -0.234  0.00  0.00    +0.048 C 
ATOM      2  C   UNL     1      -2.079  -2.329  -0.304  0.00  0.00    +0.075 C 
ATOM      3  C   UNL     1      -2.798  -1.854  -1.533  0.00  0.00    +0.026 C 
ENDROOT
BRANCH   1   4
ATOM      4  C   UNL     1      -2.377   0.219  -0.060  0.00  0.00    +0.047 C 
ATOM      5  C   UNL     1      -1.531   0.475   1.019  0.00  0.00    +0.135 C 
ATOM      6  C   UNL     1      -2.661   1.229  -0.979  0.00  0.00    +0.138 C 
ATOM      7  C   UNL     1      -0.969   1.742   1.179  0.00  0.00    +0.068 C 
ATOM      8  C   UNL     1      -2.099   2.495  -0.819  0.00  0.00    +0.037 C 
ATOM      9  C   UNL     1      -1.254   2.752   0.260  0.00  0.00    +0.009 C 
BRANCH   7  11
ATOM     10  O   UNL     1      -0.203   1.447   3.390  0.00  0.00    -0.291 OA
ATOM     11  C   UNL     1      -0.083   2.033   2.297  0.00  0.00    +0.176 C 
ATOM     12  C   UNL     1       1.021   3.074   2.150  0.00  0.00    +0.077 C 
ENDBRANCH   7  11
BRANCH   6  13
ATOM     13  O   UNL     1      -3.485   0.998  -2.040  0.00  0.00    -0.472 OA
ATOM     14  C   UNL     1      -4.876   1.244  -1.845  0.00  0.00    +0.252 C 
ENDBRANCH   6  13
BRANCH   5  15
ATOM     15  O   UNL     1      -1.252  -0.513   1.918  0.00  0.00    -0.506 OA
ATOM     16  H   UNL     1      -1.630  -1.364   1.810  0.00  0.00    +0.292 HD
ENDBRANCH   5  15
ENDBRANCH   1   4
BRANCH   2  17
ATOM     17  N   UNL     1      -0.669  -2.184  -0.174  0.00  0.00    -0.317 N 
ATOM     18  H   UNL     1      -0.273  -1.361  -0.542  0.00  0.00    +0.148 HD
BRANCH  17  20
ATOM     19  S   UNL     1      -0.257  -4.585   1.037  0.00  0.00    -0.019 S 
ATOM     20  C   UNL     1       0.207  -3.087   0.419  0.00  0.00    +0.136 C 
BRANCH  20  21
ATOM     21  N   UNL     1       1.550  -2.767   0.449  0.00  0.00    -0.281 N 
ATOM     22  N   UNL     1       1.549  -0.689  -0.680  0.00  0.00    -0.228 NA
ATOM     23  C   UNL     1       2.252  -1.635  -0.034  0.00  0.00    +0.133 C 
ATOM     24  C   UNL     1       3.609  -1.597   0.201  0.00  0.00    +0.035 C 
ATOM     25  C   UNL     1       4.307  -0.489  -0.269  0.00  0.00    +0.015 C 
ATOM     26  C   UNL     1       2.261   0.372  -1.122  0.00  0.00    +0.111 C 
ATOM     27  C   UNL     1       3.627   0.518  -0.944  0.00  0.00    +0.088 C 
ATOM     28  H   UNL     1       2.120  -3.444   0.882  0.00  0.00    +0.155 HD
BRANCH  27  30
ATOM     29  N   UNL     1       4.876   2.604  -1.841  0.00  0.00    -0.191 NA
ATOM     30  C   UNL     1       4.315   1.667  -1.438  0.00  0.00    +0.102 C 
ENDBRANCH  27  30
ENDBRANCH  20  21
ENDBRANCH  17  20
ENDBRANCH   2  17
TORSDOF 8
