REMARK  Name = 3034048
REMARK  7 active torsions:
REMARK  status: ('A' for Active; 'I' for Inactive)
REMARK    1  A    between atoms: C_3  and  C_9
REMARK    2  A    between atoms: C_4  and  S_17
REMARK    3  A    between atoms: C_7  and  C_12
REMARK    4  A    between atoms: C_9  and  O_10
REMARK    5  A    between atoms: C_12  and  C_14
REMARK    6  A    between atoms: C_14  and  S_15
REMARK    7  A    between atoms: S_17  and  C_18
REMARK                            x       y       z     vdW  Elec       q    Type
REMARK                         _______ _______ _______ _____ _____    ______ ____
ROOT
ATOM      1  O   UNL     1       3.478  -1.284   0.151  0.00  0.00    -0.275 OA
ATOM      2  N   UNL     1       1.619   0.094   0.214  0.00  0.00    -0.271 N 
ATOM      3  C   UNL     1       0.737  -0.858   0.873  0.00  0.00    +0.175 C 
ATOM      4  C   UNL     1      -0.508   1.160   0.331  0.00  0.00    +0.074 C 
ATOM      5  C   UNL     1      -0.503  -0.056   1.264  0.00  0.00    +0.044 C 
ATOM      6  C   UNL     1       0.972   1.393   0.040  0.00  0.00    +0.105 C 
ATOM      7  C   UNL     1       2.962  -0.176  -0.005  0.00  0.00    +0.226 C 
ENDROOT
BRANCH   3   9
ATOM      8  O   UNL     1       0.808  -2.065  -1.220  0.00  0.00    -0.248 OA
ATOM      9  C   UNL     1       0.401  -1.972  -0.072  0.00  0.00    +0.332 C 
BRANCH   9  10
ATOM     10  O   UNL     1      -0.424  -2.870   0.521  0.00  0.00    -0.479 OA
ATOM     11  H   UNL     1      -0.700  -2.739   1.407  0.00  0.00    +0.295 HD
ENDBRANCH   9  10
ENDBRANCH   3   9
BRANCH   7  12
ATOM     12  C   UNL     1       3.793   0.990  -0.478  0.00  0.00    +0.087 C 
ATOM     13  C   UNL     1       3.675   1.053  -1.996  0.00  0.00    +0.010 C 
BRANCH  12  14
ATOM     14  C   UNL     1       5.250   0.828  -0.050  0.00  0.00    +0.062 C 
BRANCH  14  15
ATOM     15  S   UNL     1       5.417   0.717   1.760  0.00  0.00    -0.167 S 
ATOM     16  H   UNL     1       6.730   0.575   2.085  0.00  0.00    +0.102 HD
ENDBRANCH  14  15
ENDBRANCH  12  14
ENDBRANCH   7  12
BRANCH   4  17
ATOM     17  S   UNL     1      -1.460   0.863  -1.198  0.00  0.00    -0.113 S 
BRANCH  17  18
ATOM     18  C   UNL     1      -3.096   0.582  -0.537  0.00  0.00    +0.025 C 
ATOM     19  C   UNL     1      -3.722   1.579   0.207  0.00  0.00    +0.006 C 
ATOM     20  C   UNL     1      -3.738  -0.631  -0.769  0.00  0.00    +0.006 C 
ATOM     21  C   UNL     1      -5.000   1.360   0.724  0.00  0.00    +0.001 C 
ATOM     22  C   UNL     1      -5.016  -0.850  -0.253  0.00  0.00    +0.001 C 
ATOM     23  C   UNL     1      -5.646   0.146   0.494  0.00  0.00    +0.000 C 
ENDBRANCH  17  18
ENDBRANCH   4  17
TORSDOF 7
