446515
  -OEChem-10051721243D

 51 53  0     0  0  0  0  0  0999 V2000
   -1.8756    0.0974    0.5990 O   0  0  0  0  0  0  0  0  0  0  0  0
    3.1084    3.5030   -0.3130 O   0  0  0  0  0  0  0  0  0  0  0  0
   -0.2779    2.3627    2.5342 O   0  0  0  0  0  0  0  0  0  0  0  0
    0.3343    0.8186    0.8898 N   0  0  0  0  0  0  0  0  0  0  0  0
    1.4189    2.8989    1.1117 N   0  0  0  0  0  0  0  0  0  0  0  0
    2.1305    1.3518   -0.6159 C   0  0  0  0  0  0  0  0  0  0  0  0
    1.1687    0.5012   -0.1931 C   0  0  0  0  0  0  0  0  0  0  0  0
    3.1195    1.0902   -1.7194 C   0  0  0  0  0  0  0  0  0  0  0  0
    0.9314   -0.8301   -0.8733 C   0  0  0  0  0  0  0  0  0  0  0  0
    2.2790    2.6755    0.0576 C   0  0  0  0  0  0  0  0  0  0  0  0
    2.9360    2.1079   -2.8381 C   0  0  0  0  0  0  0  0  0  0  0  0
    4.5445    1.1182   -1.1794 C   0  0  0  0  0  0  0  0  0  0  0  0
   -0.6749   -0.1537    1.3136 C   0  0  0  0  0  0  0  0  0  0  0  0
    0.4344    2.0375    1.5809 C   0  0  0  0  0  0  0  0  0  0  0  0
    1.7540   -1.9235   -0.2646 C   0  0  0  0  0  0  0  0  0  0  0  0
    2.6050   -1.6383    0.7993 C   0  0  0  0  0  0  0  0  0  0  0  0
    1.6629   -3.2185   -0.7667 C   0  0  0  0  0  0  0  0  0  0  0  0
   -2.9107   -0.7948    0.9894 C   0  0  0  0  0  0  0  0  0  0  0  0
    3.3715   -2.6567    1.3660 C   0  0  0  0  0  0  0  0  0  0  0  0
    2.4293   -4.2369   -0.2000 C   0  0  0  0  0  0  0  0  0  0  0  0
   -4.1496   -0.4817    0.2030 C   0  0  0  0  0  0  0  0  0  0  0  0
    3.2836   -3.9559    0.8663 C   0  0  0  0  0  0  0  0  0  0  0  0
   -5.0657    0.4393    0.6989 C   0  0  0  0  0  0  0  0  0  0  0  0
   -4.3709   -1.1157   -1.0145 C   0  0  0  0  0  0  0  0  0  0  0  0
   -6.2176    0.7301   -0.0320 C   0  0  0  0  0  0  0  0  0  0  0  0
   -5.5229   -0.8248   -1.7454 C   0  0  0  0  0  0  0  0  0  0  0  0
   -6.4462    0.0981   -1.2541 C   0  0  0  0  0  0  0  0  0  0  0  0
    2.9807    0.0992   -2.1582 H   0  0  0  0  0  0  0  0  0  0  0  0
    1.1737   -0.7623   -1.9407 H   0  0  0  0  0  0  0  0  0  0  0  0
   -0.1275   -1.1094   -0.8899 H   0  0  0  0  0  0  0  0  0  0  0  0
    1.8840    2.1920   -3.1343 H   0  0  0  0  0  0  0  0  0  0  0  0
    3.4927    1.7809   -3.7248 H   0  0  0  0  0  0  0  0  0  0  0  0
    3.3067    3.1086   -2.6017 H   0  0  0  0  0  0  0  0  0  0  0  0
    5.2323    0.7243   -1.9374 H   0  0  0  0  0  0  0  0  0  0  0  0
    4.6509    0.4864   -0.2908 H   0  0  0  0  0  0  0  0  0  0  0  0
    4.9080    2.1187   -0.9301 H   0  0  0  0  0  0  0  0  0  0  0  0
   -0.8733    0.0079    2.3806 H   0  0  0  0  0  0  0  0  0  0  0  0
   -0.3458   -1.1919    1.2244 H   0  0  0  0  0  0  0  0  0  0  0  0
    1.5068    3.7910    1.5904 H   0  0  0  0  0  0  0  0  0  0  0  0
    2.7215   -0.6576    1.2456 H   0  0  0  0  0  0  0  0  0  0  0  0
    1.0001   -3.4465   -1.5969 H   0  0  0  0  0  0  0  0  0  0  0  0
   -3.1096   -0.6936    2.0637 H   0  0  0  0  0  0  0  0  0  0  0  0
   -2.6003   -1.8315    0.8079 H   0  0  0  0  0  0  0  0  0  0  0  0
    4.0358   -2.4394    2.1973 H   0  0  0  0  0  0  0  0  0  0  0  0
    2.3609   -5.2487   -0.5888 H   0  0  0  0  0  0  0  0  0  0  0  0
    3.8801   -4.7490    1.3078 H   0  0  0  0  0  0  0  0  0  0  0  0
   -4.8965    0.9391    1.6486 H   0  0  0  0  0  0  0  0  0  0  0  0
   -3.6572   -1.8343   -1.4076 H   0  0  0  0  0  0  0  0  0  0  0  0
   -6.9363    1.4492    0.3502 H   0  0  0  0  0  0  0  0  0  0  0  0
   -5.7006   -1.3164   -2.6975 H   0  0  0  0  0  0  0  0  0  0  0  0
   -7.3429    0.3247   -1.8233 H   0  0  0  0  0  0  0  0  0  0  0  0
  1 13  1  0  0  0  0
  1 18  1  0  0  0  0
  2 10  2  0  0  0  0
  3 14  2  0  0  0  0
  4  7  1  0  0  0  0
  4 13  1  0  0  0  0
  4 14  1  0  0  0  0
  5 10  1  0  0  0  0
  5 14  1  0  0  0  0
  5 39  1  0  0  0  0
  6  7  2  0  0  0  0
  6  8  1  0  0  0  0
  6 10  1  0  0  0  0
  7  9  1  0  0  0  0
  8 11  1  0  0  0  0
  8 12  1  0  0  0  0
  8 28  1  0  0  0  0
  9 15  1  0  0  0  0
  9 29  1  0  0  0  0
  9 30  1  0  0  0  0
 11 31  1  0  0  0  0
 11 32  1  0  0  0  0
 11 33  1  0  0  0  0
 12 34  1  0  0  0  0
 12 35  1  0  0  0  0
 12 36  1  0  0  0  0
 13 37  1  0  0  0  0
 13 38  1  0  0  0  0
 15 16  2  0  0  0  0
 15 17  1  0  0  0  0
 16 19  1  0  0  0  0
 16 40  1  0  0  0  0
 17 20  2  0  0  0  0
 17 41  1  0  0  0  0
 18 21  1  0  0  0  0
 18 42  1  0  0  0  0
 18 43  1  0  0  0  0
 19 22  2  0  0  0  0
 19 44  1  0  0  0  0
 20 22  1  0  0  0  0
 20 45  1  0  0  0  0
 21 23  2  0  0  0  0
 21 24  1  0  0  0  0
 22 46  1  0  0  0  0
 23 25  1  0  0  0  0
 23 47  1  0  0  0  0
 24 26  2  0  0  0  0
 24 48  1  0  0  0  0
 25 27  2  0  0  0  0
 25 49  1  0  0  0  0
 26 27  1  0  0  0  0
 26 50  1  0  0  0  0
 27 51  1  0  0  0  0
M  END
> <DATABASE_ID>
DB08634

> <DATABASE_NAME>
drugbank

> <ORIGINAL_SOURCE>
PUBCHEM

> <ORIGINAL_SOURCE_URL>
https://pubchem.ncbi.nlm.nih.gov/rest/pug/compound/inchikey/KSAAUHMSLCPIEX-UHFFFAOYSA-N/SDF?record_type=3d

> <SMILES>
CC(C)C1=C(CC2=CC=CC=C2)N(COCC2=CC=CC=C2)C(=O)NC1=O

> <INCHI_IDENTIFIER>
InChI=1S/C22H24N2O3/c1-16(2)20-19(13-17-9-5-3-6-10-17)24(22(26)23-21(20)25)15-27-14-18-11-7-4-8-12-18/h3-12,16H,13-15H2,1-2H3,(H,23,25,26)

> <INCHI_KEY>
KSAAUHMSLCPIEX-UHFFFAOYSA-N

> <FORMULA>
C22H24N2O3

> <MOLECULAR_WEIGHT>
364.4376

> <EXACT_MASS>
364.178692644

> <JCHEM_ACCEPTOR_COUNT>
3

> <JCHEM_AVERAGE_POLARIZABILITY>
39.59550950537084

> <JCHEM_BIOAVAILABILITY>
1

> <JCHEM_DONOR_COUNT>
1

> <JCHEM_FORMAL_CHARGE>
0

> <JCHEM_GHOSE_FILTER>
1

> <JCHEM_IUPAC>
6-benzyl-1-[(benzyloxy)methyl]-5-(propan-2-yl)-1,2,3,4-tetrahydropyrimidine-2,4-dione

> <ALOGPS_LOGP>
3.42

> <JCHEM_LOGP>
4.141520945333333

> <ALOGPS_LOGS>
-4.67

> <JCHEM_MDDR_LIKE_RULE>
1

> <JCHEM_NUMBER_OF_RINGS>
3

> <JCHEM_PHYSIOLOGICAL_CHARGE>
0

> <JCHEM_PKA_STRONGEST_ACIDIC>
10.232513384272698

> <JCHEM_PKA_STRONGEST_BASIC>
-3.8729143825959667

> <JCHEM_POLAR_SURFACE_AREA>
58.64

> <JCHEM_REFRACTIVITY>
105.27640000000002

> <JCHEM_ROTATABLE_BOND_COUNT>
7

> <JCHEM_RULE_OF_FIVE>
1

> <ALOGPS_SOLUBILITY>
7.88e-03 g/l

> <JCHEM_TRADITIONAL_IUPAC>
6-benzyl-1-[(benzyloxy)methyl]-5-isopropyl-3H-pyrimidine-2,4-dione

> <JCHEM_VEBER_RULE>
0

> <DRUGBANK_ID>
DB08634

> <DRUG_GROUPS>
experimental

> <GENERIC_NAME>
6-BENZYL-1-BENZYLOXYMETHYL-5-ISOPROPYL URACIL

$$$$
