REMARK  Name = 5288850
REMARK  5 active torsions:
REMARK  status: ('A' for Active; 'I' for Inactive)
REMARK    1  A    between atoms: S_1  and  C_7
REMARK    2  A    between atoms: S_1  and  N_16
REMARK    3  A    between atoms: C_17  and  C_21
REMARK    4  A    between atoms: C_21  and  O_22
REMARK    5  A    between atoms: O_22  and  C_23
REMARK                            x       y       z     vdW  Elec       q    Type
REMARK                         _______ _______ _______ _____ _____    ______ ____
ROOT
ATOM      1  S   UNL     1       0.495  -0.789  -1.242  0.00  0.00    +0.063 S 
ATOM      2  O   UNL     1       0.665  -1.926  -2.127  0.00  0.00    -0.153 OA
ATOM      3  O   UNL     1       0.988   0.521  -1.621  0.00  0.00    -0.153 OA
ENDROOT
BRANCH   1   7
ATOM      4  O   UNL     1      -3.608   2.929   0.338  0.00  0.00    -0.282 OA
ATOM      5  O   UNL     1      -6.279   1.944   0.590  0.00  0.00    -0.266 OA
ATOM      6  N   UNL     1      -5.252  -0.098  -0.062  0.00  0.00    -0.251 N 
ATOM      7  C   UNL     1      -1.232  -0.634  -0.900  0.00  0.00    +0.122 C 
ATOM      8  C   UNL     1      -1.734   0.603  -0.527  0.00  0.00    +0.024 C 
ATOM      9  C   UNL     1      -2.046  -1.767  -1.015  0.00  0.00    +0.021 C 
ATOM     10  C   UNL     1      -3.088   0.657  -0.274  0.00  0.00    +0.059 C 
ATOM     11  C   UNL     1      -3.927  -0.451  -0.378  0.00  0.00    +0.058 C 
ATOM     12  C   UNL     1      -3.418  -1.681  -0.751  0.00  0.00    +0.016 C 
ATOM     13  C   UNL     1      -3.925   1.783   0.133  0.00  0.00    +0.250 C 
ATOM     14  C   UNL     1      -5.345   1.244   0.263  0.00  0.00    +0.292 C 
ATOM     15  C   UNL     1      -6.349  -1.035  -0.082  0.00  0.00    +0.120 C 
ENDBRANCH   1   7
BRANCH   1  16
ATOM     16  N   UNL     1       1.079  -1.184   0.304  0.00  0.00    -0.153 NA
ATOM     17  C   UNL     1       1.132  -0.099   1.336  0.00  0.00    +0.123 C 
ATOM     18  C   UNL     1       0.560  -0.736   2.605  0.00  0.00    +0.023 C 
ATOM     19  C   UNL     1       0.558  -2.424   0.943  0.00  0.00    +0.096 C 
ATOM     20  C   UNL     1       0.831  -2.218   2.423  0.00  0.00    +0.021 C 
BRANCH  17  21
ATOM     21  C   UNL     1       2.579   0.346   1.501  0.00  0.00    +0.223 C 
BRANCH  21  22
ATOM     22  O   UNL     1       3.026   0.912   0.280  0.00  0.00    -0.474 OA
BRANCH  22  23
ATOM     23  C   UNL     1       4.364   0.799  -0.003  0.00  0.00    +0.139 C 
ATOM     24  C   UNL     1       5.284   0.754   1.036  0.00  0.00    +0.037 C 
ATOM     25  C   UNL     1       4.782   0.730  -1.327  0.00  0.00    +0.037 C 
ATOM     26  C   UNL     1       6.644   0.639   0.748  0.00  0.00    +0.003 C 
ATOM     27  C   UNL     1       6.141   0.614  -1.615  0.00  0.00    +0.003 C 
ATOM     28  C   UNL     1       7.073   0.568  -0.577  0.00  0.00    +0.000 C 
ENDBRANCH  22  23
ENDBRANCH  21  22
ENDBRANCH  17  21
ENDBRANCH   1  16
TORSDOF 5
