REMARK  Name = 448137
REMARK  6 active torsions:
REMARK  status: ('A' for Active; 'I' for Inactive)
REMARK    1  A    between atoms: C_1  and  O_15
REMARK    2  A    between atoms: C_4  and  N_9
REMARK    3  A    between atoms: O_15  and  C_16
REMARK    4  A    between atoms: C_16  and  C_17
REMARK    5  A    between atoms: C_17  and  C_18
REMARK    6  A    between atoms: C_18  and  C_21
REMARK                            x       y       z     vdW  Elec       q    Type
REMARK                         _______ _______ _______ _____ _____    ______ ____
ROOT
ATOM      1  C   UNL     1      -0.637   0.145   0.582  0.00  0.00    +0.131 C 
ATOM      2  C   UNL     1      -1.314   1.349   0.383  0.00  0.00    +0.013 C 
ATOM      3  C   UNL     1      -1.337  -1.061   0.554  0.00  0.00    +0.013 C 
ATOM      4  C   UNL     1      -3.390   0.141   0.129  0.00  0.00    +0.093 C 
ATOM      5  C   UNL     1      -2.690   1.347   0.157  0.00  0.00    +0.017 C 
ATOM      6  C   UNL     1      -2.714  -1.063   0.328  0.00  0.00    +0.017 C 
ATOM      7  C   UNL     1      -0.581   2.650   0.410  0.00  0.00    +0.034 C 
ATOM      8  C   UNL     1      -0.631  -2.360   0.764  0.00  0.00    +0.034 C 
ENDROOT
BRANCH   4   9
ATOM      9  N   UNL     1      -4.755   0.138  -0.094  0.00  0.00    -0.093 N 
ATOM     10  N   UNL     1      -5.473  -0.997  -0.130  0.00  0.00    -0.106 NA
ATOM     11  N   UNL     1      -5.449   1.272  -0.288  0.00  0.00    -0.014 NA
ATOM     12  N   UNL     1      -6.703   0.875  -0.465  0.00  0.00    -0.090 NA
ATOM     13  C   UNL     1      -6.684  -0.485  -0.365  0.00  0.00    +0.052 C 
ATOM     14  C   UNL     1      -7.884  -1.314  -0.502  0.00  0.00    +0.118 C 
ENDBRANCH   4   9
BRANCH   1  15
ATOM     15  O   UNL     1       0.709   0.147   0.802  0.00  0.00    -0.476 OA
BRANCH  15  16
ATOM     16  C   UNL     1       1.552   0.057  -0.344  0.00  0.00    +0.206 C 
BRANCH  16  17
ATOM     17  C   UNL     1       3.004   0.054   0.113  0.00  0.00    +0.055 C 
BRANCH  17  18
ATOM     18  C   UNL     1       3.966  -0.025  -1.073  0.00  0.00    +0.071 C 
BRANCH  18  21
ATOM     19  O   UNL     1       5.889  -1.304  -0.406  0.00  0.00    -0.358 OA
ATOM     20  N   UNL     1       7.210  -1.173   0.006  0.00  0.00    -0.082 NA
ATOM     21  C   UNL     1       5.403  -0.073  -0.617  0.00  0.00    +0.154 C 
ATOM     22  C   UNL     1       6.311   0.885  -0.373  0.00  0.00    +0.054 C 
ATOM     23  C   UNL     1       7.439   0.143   0.018  0.00  0.00    +0.101 C 
ATOM     24  C   UNL     1       8.762   0.653   0.413  0.00  0.00    +0.056 C 
ENDBRANCH  18  21
ENDBRANCH  17  18
ENDBRANCH  16  17
ENDBRANCH  15  16
ENDBRANCH   1  15
TORSDOF 6
