REMARK  Name = 449026
REMARK  9 active torsions:
REMARK  status: ('A' for Active; 'I' for Inactive)
REMARK    1  A    between atoms: C_1  and  C_2
REMARK    2  A    between atoms: C_1  and  C_16
REMARK    3  A    between atoms: C_2  and  C_6
REMARK    4  A    between atoms: C_16  and  C_17
REMARK    5  A    between atoms: C_17  and  O_18
REMARK    6  A    between atoms: O_18  and  C_19
REMARK    7  A    between atoms: C_24  and  C_26
REMARK    8  A    between atoms: C_26  and  O_27
REMARK    9  A    between atoms: O_27  and  C_28
REMARK                            x       y       z     vdW  Elec       q    Type
REMARK                         _______ _______ _______ _____ _____    ______ ____
ROOT
ATOM      1  C   UNL     1       0.367  -1.402   0.492  0.00  0.00    +0.004 C 
ENDROOT
BRANCH   1   2
ATOM      2  C   UNL     1       1.572  -1.903  -0.301  0.00  0.00    +0.000 C 
BRANCH   2   6
ATOM      3  N   UNL     1       5.514  -0.190  -0.024  0.00  0.00    -0.292 N 
ATOM      4  N   UNL     1       7.081   1.428   0.722  0.00  0.00    -0.133 NA
ATOM      5  N   UNL     1       8.314   1.997   0.649  0.00  0.00    -0.151 NA
ATOM      6  C   UNL     1       2.877  -1.348   0.265  0.00  0.00    +0.003 C 
ATOM      7  C   UNL     1       3.073   0.114  -0.149  0.00  0.00    +0.022 C 
ATOM      8  C   UNL     1       4.074  -2.178  -0.210  0.00  0.00    +0.022 C 
ATOM      9  C   UNL     1       4.394   0.672   0.378  0.00  0.00    +0.092 C 
ATOM     10  C   UNL     1       5.394  -1.612   0.312  0.00  0.00    +0.092 C 
ATOM     11  C   UNL     1       6.784   0.396  -0.097  0.00  0.00    +0.153 C 
ATOM     12  C   UNL     1       7.679  -0.116  -1.015  0.00  0.00    +0.037 C 
ATOM     13  C   UNL     1       8.934   0.463  -1.088  0.00  0.00    +0.019 C 
ATOM     14  C   UNL     1       9.210   1.516  -0.239  0.00  0.00    +0.081 C 
ATOM     15  C   UNL     1      10.546   2.175  -0.278  0.00  0.00    +0.054 C 
ENDBRANCH   2   6
ENDBRANCH   1   2
BRANCH   1  16
ATOM     16  C   UNL     1      -0.938  -1.933  -0.096  0.00  0.00    +0.047 C 
BRANCH  16  17
ATOM     17  C   UNL     1      -2.150  -1.406   0.659  0.00  0.00    +0.205 C 
BRANCH  17  18
ATOM     18  O   UNL     1      -3.328  -1.924   0.056  0.00  0.00    -0.475 OA
BRANCH  18  19
ATOM     19  C   UNL     1      -4.458  -1.153   0.145  0.00  0.00    +0.139 C 
ATOM     20  C   UNL     1      -4.643  -0.311   1.241  0.00  0.00    +0.037 C 
ATOM     21  C   UNL     1      -5.424  -1.214  -0.859  0.00  0.00    +0.037 C 
ATOM     22  C   UNL     1      -5.795   0.471   1.333  0.00  0.00    +0.010 C 
ATOM     23  C   UNL     1      -6.575  -0.432  -0.767  0.00  0.00    +0.010 C 
ATOM     24  C   UNL     1      -6.761   0.410   0.329  0.00  0.00    +0.076 C 
BRANCH  24  26
ATOM     25  O   UNL     1      -8.209   1.999   1.360  0.00  0.00    -0.245 OA
ATOM     26  C   UNL     1      -7.961   1.226   0.425  0.00  0.00    +0.341 C 
BRANCH  26  27
ATOM     27  O   UNL     1      -8.787   1.034  -0.648  0.00  0.00    -0.445 OA
BRANCH  27  28
ATOM     28  C   UNL     1     -10.006   1.784  -0.669  0.00  0.00    +0.209 C 
ATOM     29  C   UNL     1     -10.777   1.438  -1.925  0.00  0.00    +0.051 C 
ENDBRANCH  27  28
ENDBRANCH  26  27
ENDBRANCH  24  26
ENDBRANCH  18  19
ENDBRANCH  17  18
ENDBRANCH  16  17
ENDBRANCH   1  16
TORSDOF 9
