REMARK  Name = 5326929
REMARK  3 active torsions:
REMARK  status: ('A' for Active; 'I' for Inactive)
REMARK    1  A    between atoms: C_7  and  C_21
REMARK    2  A    between atoms: C_21  and  C_22
REMARK    3  A    between atoms: C_22  and  C_23
REMARK                            x       y       z     vdW  Elec       q    Type
REMARK                         _______ _______ _______ _____ _____    ______ ____
ROOT
ATOM      1  O   UNL     1       5.082  -1.374   0.394  0.00  0.00    -0.209 OA
ATOM      2  N   UNL     1       1.161  -1.814  -0.294  0.00  0.00    -0.275 N 
ATOM      3  N   UNL     1       2.893   3.393   0.093  0.00  0.00    -0.315 N 
ATOM      4  N   UNL     1       0.722   3.116  -0.290  0.00  0.00    -0.316 N 
ATOM      5  N   UNL     1       3.306  -2.781   0.063  0.00  0.00    -0.302 NA
ATOM      6  N   UNL     1       1.399  -4.095  -0.291  0.00  0.00    -0.320 N 
ATOM      7  C   UNL     1       0.796   0.597  -0.317  0.00  0.00    +0.007 C 
ATOM      8  C   UNL     1       1.651  -0.509  -0.187  0.00  0.00    +0.060 C 
ATOM      9  C   UNL     1       1.339   1.889  -0.202  0.00  0.00    +0.056 C 
ATOM     10  C   UNL     1       2.701   2.036   0.037  0.00  0.00    +0.060 C 
ATOM     11  C   UNL     1       3.021  -0.320   0.054  0.00  0.00    +0.109 C 
ATOM     12  C   UNL     1       3.581   0.961   0.173  0.00  0.00    +0.029 C 
ATOM     13  C   UNL     1       3.883  -1.530   0.184  0.00  0.00    +0.208 C 
ATOM     14  C   UNL     1       1.681   3.994  -0.108  0.00  0.00    +0.182 C 
ATOM     15  C   UNL     1       2.022  -2.879  -0.162  0.00  0.00    +0.248 C 
ATOM     16  H   UNL     1       0.204  -1.970  -0.462  0.00  0.00    +0.156 HD
ATOM     17  H   UNL     1       3.749   3.852   0.250  0.00  0.00    +0.148 HD
ATOM     18  H   UNL     1      -0.232   3.296  -0.453  0.00  0.00    +0.148 HD
ATOM     19  H   UNL     1       0.429  -4.136  -0.460  0.00  0.00    +0.146 HD
ATOM     20  H   UNL     1       1.920  -4.926  -0.214  0.00  0.00    +0.146 HD
ENDROOT
BRANCH   7  21
ATOM     21  C   UNL     1      -0.665   0.403  -0.575  0.00  0.00    +0.034 C 
BRANCH  21  22
ATOM     22  C   UNL     1      -1.515   0.299   0.705  0.00  0.00    +0.031 C 
BRANCH  22  23
ATOM     23  C   UNL     1      -2.981   0.072   0.430  0.00  0.00    -0.022 C 
ATOM     24  C   UNL     1      -3.823   1.164   0.282  0.00  0.00    -0.005 C 
ATOM     25  C   UNL     1      -3.461  -1.224   0.329  0.00  0.00    -0.005 C 
ATOM     26  C   UNL     1      -5.675  -0.346  -0.075  0.00  0.00    -0.022 C 
ATOM     27  C   UNL     1      -5.178   0.953   0.028  0.00  0.00    -0.005 C 
ATOM     28  C   UNL     1      -4.816  -1.435   0.075  0.00  0.00    -0.005 C 
ATOM     29  C   UNL     1      -7.123  -0.571  -0.348  0.00  0.00    +0.031 C 
ENDBRANCH  22  23
ENDBRANCH  21  22
ENDBRANCH   7  21
TORSDOF 3
