REMARK  Name = 5289197
REMARK  2 active torsions:
REMARK  status: ('A' for Active; 'I' for Inactive)
REMARK    1  A    between atoms: C_2  and  C_11
REMARK    2  A    between atoms: N_10  and  C_13
REMARK                            x       y       z     vdW  Elec       q    Type
REMARK                         _______ _______ _______ _____ _____    ______ ____
ROOT
ATOM      1  N   UNL     1      -1.849  -1.201  -0.196  0.00  0.00    +0.391 N 
ATOM      2  C   UNL     1      -1.019  -0.006  -0.349  0.00  0.00    +0.017 C 
ATOM      3  C   UNL     1      -1.583   1.179   0.437  0.00  0.00    -0.013 C 
ATOM      4  C   UNL     1      -3.029   1.462   0.041  0.00  0.00    -0.004 C 
ATOM      5  C   UNL     1      -3.867   0.191   0.138  0.00  0.00    -0.023 C 
ATOM      6  C   UNL     1      -3.223  -0.957  -0.637  0.00  0.00    -0.081 C 
ATOM      7  H   UNL     1      -1.859  -1.475   0.787  0.00  0.00    -0.084 HD
ATOM      8  H   UNL     1      -1.453  -1.943  -0.773  0.00  0.00    -0.084 HD
ENDROOT
BRANCH   2  11
ATOM      9  O   UNL     1       0.485  -1.169   1.090  0.00  0.00    -0.277 OA
ATOM     10  N   UNL     1       1.347   0.324  -0.474  0.00  0.00    -0.309 N 
ATOM     11  C   UNL     1       0.336  -0.365   0.174  0.00  0.00    +0.202 C 
ATOM     12  H   UNL     1       1.101   0.945  -1.197  0.00  0.00    +0.149 HD
BRANCH  10  13
ATOM     13  C   UNL     1       2.745   0.174  -0.141  0.00  0.00    +0.057 C 
ATOM     14  C   UNL     1       3.571   1.082  -1.057  0.00  0.00    +0.020 C 
ATOM     15  C   UNL     1       2.941   0.576   1.323  0.00  0.00    +0.020 C 
ATOM     16  C   UNL     1       3.148  -1.289  -0.349  0.00  0.00    +0.020 C 
ENDBRANCH  10  13
ENDBRANCH   2  11
TORSDOF 2
