REMARK  Name = 5328969
REMARK  5 active torsions:
REMARK  status: ('A' for Active; 'I' for Inactive)
REMARK    1  A    between atoms: N_1  and  C_14
REMARK    2  A    between atoms: C_7  and  N_21
REMARK    3  A    between atoms: C_22  and  C_25
REMARK    4  A    between atoms: C_24  and  C_26
REMARK    5  A    between atoms: C_26  and  N_27
REMARK                            x       y       z     vdW  Elec       q    Type
REMARK                         _______ _______ _______ _____ _____    ______ ____
ROOT
ATOM      1  N   UNL     1       2.725  -0.503   0.710  0.00  0.00    -0.301 N 
ATOM      2  N   UNL     1       2.171   3.571   0.229  0.00  0.00    -0.248 NA
ATOM      3  N   UNL     1       3.603   1.679   0.650  0.00  0.00    -0.233 NA
ATOM      4  C   UNL     1       1.235   1.363   0.281  0.00  0.00    +0.117 C 
ATOM      5  C   UNL     1       1.108   2.753   0.127  0.00  0.00    +0.067 C 
ATOM      6  C   UNL     1       2.518   0.889   0.542  0.00  0.00    +0.115 C 
ATOM      7  C   UNL     1      -1.139   1.056  -0.090  0.00  0.00    +0.047 C 
ATOM      8  C   UNL     1       0.117   0.518   0.173  0.00  0.00    +0.001 C 
ATOM      9  C   UNL     1      -0.161   3.265  -0.135  0.00  0.00    +0.016 C 
ATOM     10  C   UNL     1      -1.278   2.431  -0.244  0.00  0.00    +0.016 C 
ATOM     11  C   UNL     1       3.360   2.989   0.485  0.00  0.00    +0.251 C 
ATOM     12  H   UNL     1       1.947  -0.978   1.082  0.00  0.00    +0.153 HD
ENDROOT
BRANCH   1  14
ATOM     13 BR   UNL     1       6.996  -1.430  -2.253  0.00  0.00    -0.049 Br
ATOM     14  C   UNL     1       3.824  -1.335   0.447  0.00  0.00    +0.050 C 
ATOM     15  C   UNL     1       4.710  -1.026  -0.590  0.00  0.00    +0.021 C 
ATOM     16  C   UNL     1       4.041  -2.479   1.221  0.00  0.00    +0.015 C 
ATOM     17  C   UNL     1       5.803  -1.853  -0.850  0.00  0.00    +0.036 C 
ATOM     18  C   UNL     1       5.134  -3.306   0.961  0.00  0.00    +0.002 C 
ATOM     19  C   UNL     1       6.014  -2.994  -0.075  0.00  0.00    +0.007 C 
ENDBRANCH   1  14
BRANCH   7  21
ATOM     20  O   UNL     1      -4.015   1.718  -0.642  0.00  0.00    -0.270 OA
ATOM     21  N   UNL     1      -2.252   0.223  -0.200  0.00  0.00    -0.281 N 
ATOM     22  C   UNL     1      -3.581   0.586  -0.461  0.00  0.00    +0.249 C 
ATOM     23  H   UNL     1      -2.084  -0.740  -0.080  0.00  0.00    +0.155 HD
BRANCH  22  25
ATOM     24  C   UNL     1      -5.792  -0.460  -0.736  0.00  0.00    -0.044 C 
ATOM     25  C   UNL     1      -4.481  -0.605  -0.501  0.00  0.00    +0.051 C 
BRANCH  24  26
ATOM     26  C   UNL     1      -6.748  -1.614  -0.798  0.00  0.00    -0.050 C 
BRANCH  26  27
ATOM     27  N   UNL     1      -7.830  -1.466   0.169  0.00  0.00    +0.387 N 
ATOM     28  C   UNL     1      -7.297  -1.398   1.531  0.00  0.00    -0.100 C 
ATOM     29  C   UNL     1      -8.782  -2.571   0.050  0.00  0.00    -0.100 C 
ATOM     30  H   UNL     1      -8.321  -0.594  -0.030  0.00  0.00    -0.079 HD
ENDBRANCH  26  27
ENDBRANCH  24  26
ENDBRANCH  22  25
ENDBRANCH   7  21
TORSDOF 5
