REMARK  Name = 29088
REMARK  8 active torsions:
REMARK  status: ('A' for Active; 'I' for Inactive)
REMARK    1  A    between atoms: N_2  and  C_19
REMARK    2  A    between atoms: N_2  and  C_23
REMARK    3  A    between atoms: C_5  and  C_7
REMARK    4  A    between atoms: C_6  and  C_13
REMARK    5  A    between atoms: C_19  and  C_20
REMARK    6  A    between atoms: C_20  and  O_21
REMARK    7  A    between atoms: C_23  and  C_24
REMARK    8  A    between atoms: C_24  and  O_25
REMARK                            x       y       z     vdW  Elec       q    Type
REMARK                         _______ _______ _______ _____ _____    ______ ____
ROOT
ATOM      1  O   UNL     1       0.970  -0.902   0.125  0.00  0.00    -0.433 OA
ATOM      2  N   UNL     1       2.970   0.219  -0.009  0.00  0.00    -0.248 N 
ATOM      3  N   UNL     1       0.846   1.336  -0.173  0.00  0.00    -0.355 NA
ATOM      4  C   UNL     1       1.619   0.284  -0.028  0.00  0.00    +0.344 C 
ATOM      5  C   UNL     1      -0.346  -0.555   0.069  0.00  0.00    +0.244 C 
ATOM      6  C   UNL     1      -0.412   0.801  -0.112  0.00  0.00    +0.158 C 
ENDROOT
BRANCH   5   7
ATOM      7  C   UNL     1      -1.284  -1.632   0.205  0.00  0.00    +0.024 C 
ATOM      8  C   UNL     1      -2.541  -1.404   0.774  0.00  0.00    -0.000 C 
ATOM      9  C   UNL     1      -0.950  -2.919  -0.231  0.00  0.00    -0.000 C 
ATOM     10  C   UNL     1      -3.453  -2.451   0.908  0.00  0.00    -0.000 C 
ATOM     11  C   UNL     1      -1.862  -3.966  -0.098  0.00  0.00    -0.000 C 
ATOM     12  C   UNL     1      -3.114  -3.732   0.472  0.00  0.00    -0.000 C 
ENDBRANCH   5   7
BRANCH   6  13
ATOM     13  C   UNL     1      -1.617   1.574  -0.223  0.00  0.00    +0.029 C 
ATOM     14  C   UNL     1      -2.211   2.109   0.920  0.00  0.00    +0.002 C 
ATOM     15  C   UNL     1      -2.193   1.791  -1.475  0.00  0.00    +0.002 C 
ATOM     16  C   UNL     1      -3.381   2.860   0.812  0.00  0.00    +0.000 C 
ATOM     17  C   UNL     1      -3.363   2.542  -1.583  0.00  0.00    +0.000 C 
ATOM     18  C   UNL     1      -3.957   3.077  -0.440  0.00  0.00    +0.000 C 
ENDBRANCH   6  13
BRANCH   2  19
ATOM     19  C   UNL     1       3.823   1.418  -0.162  0.00  0.00    +0.128 C 
BRANCH  19  20
ATOM     20  C   UNL     1       3.955   2.155   1.161  0.00  0.00    +0.159 C 
BRANCH  20  21
ATOM     21  O   UNL     1       4.529   1.275   2.119  0.00  0.00    -0.380 OA
ATOM     22  H   UNL     1       4.618   1.735   2.968  0.00  0.00    +0.211 HD
ENDBRANCH  20  21
ENDBRANCH  19  20
ENDBRANCH   2  19
BRANCH   2  23
ATOM     23  C   UNL     1       3.699  -1.055   0.180  0.00  0.00    +0.128 C 
BRANCH  23  24
ATOM     24  C   UNL     1       3.796  -1.817  -1.131  0.00  0.00    +0.159 C 
BRANCH  24  25
ATOM     25  O   UNL     1       4.477  -1.008  -2.081  0.00  0.00    -0.380 OA
ATOM     26  H   UNL     1       4.544  -1.485  -2.923  0.00  0.00    +0.211 HD
ENDBRANCH  24  25
ENDBRANCH  23  24
ENDBRANCH   2  23
TORSDOF 8
