REMARK  Name = 667639
REMARK  6 active torsions:
REMARK  status: ('A' for Active; 'I' for Inactive)
REMARK    1  A    between atoms: C_1  and  C_3
REMARK    2  A    between atoms: C_2  and  C_13
REMARK    3  A    between atoms: C_6  and  O_9
REMARK    4  A    between atoms: C_7  and  O_11
REMARK    5  A    between atoms: C_16  and  O_19
REMARK    6  A    between atoms: C_18  and  O_21
REMARK                            x       y       z     vdW  Elec       q    Type
REMARK                         _______ _______ _______ _____ _____    ______ ____
ROOT
ATOM      1  C   UNL     1       0.591  -0.567  -0.078  0.00  0.00    +0.000 C 
ATOM      2  C   UNL     1      -0.393   0.360   0.005  0.00  0.00    +0.000 C 
ENDROOT
BRANCH   1   3
ATOM      3  C   UNL     1       2.035  -0.278  -0.038  0.00  0.00    +0.006 C 
ATOM      4  C   UNL     1       2.479   1.003  -0.324  0.00  0.00    +0.037 C 
ATOM      5  C   UNL     1       2.921  -1.293   0.285  0.00  0.00    +0.037 C 
ATOM      6  C   UNL     1       4.288  -1.019   0.323  0.00  0.00    +0.137 C 
ATOM      7  C   UNL     1       3.846   1.276  -0.286  0.00  0.00    +0.137 C 
ATOM      8  C   UNL     1       4.751   0.265   0.037  0.00  0.00    +0.073 C 
BRANCH   6   9
ATOM      9  O   UNL     1       5.172  -2.006   0.639  0.00  0.00    -0.505 OA
ATOM     10  H   UNL     1       4.861  -2.869   0.831  0.00  0.00    +0.292 HD
ENDBRANCH   6   9
BRANCH   7  11
ATOM     11  O   UNL     1       4.297   2.530  -0.565  0.00  0.00    -0.505 OA
ATOM     12  H   UNL     1       3.690   3.209  -0.782  0.00  0.00    +0.292 HD
ENDBRANCH   7  11
ENDBRANCH   1   3
BRANCH   2  13
ATOM     13  C   UNL     1      -1.819   0.077  -0.054  0.00  0.00    +0.003 C 
ATOM     14  C   UNL     1      -2.735   1.002   0.447  0.00  0.00    +0.040 C 
ATOM     15  C   UNL     1      -2.270  -1.120  -0.610  0.00  0.00    +0.003 C 
ATOM     16  C   UNL     1      -4.102   0.730   0.391  0.00  0.00    +0.167 C 
ATOM     17  C   UNL     1      -3.636  -1.392  -0.665  0.00  0.00    +0.040 C 
ATOM     18  C   UNL     1      -4.553  -0.467  -0.165  0.00  0.00    +0.167 C 
BRANCH  16  19
ATOM     19  O   UNL     1      -4.987   1.642   0.882  0.00  0.00    -0.503 OA
ATOM     20  H   UNL     1      -4.676   2.444   1.254  0.00  0.00    +0.292 HD
ENDBRANCH  16  19
BRANCH  18  21
ATOM     21  O   UNL     1      -5.885  -0.743  -0.226  0.00  0.00    -0.503 OA
ATOM     22  H   UNL     1      -6.507  -0.127   0.107  0.00  0.00    +0.292 HD
ENDBRANCH  18  21
ENDBRANCH   2  13
TORSDOF 6
