REMARK  Name = 243556
REMARK  2 active torsions:
REMARK  status: ('A' for Active; 'I' for Inactive)
REMARK    1  A    between atoms: C_3  and  C_9
REMARK    2  A    between atoms: C_8  and  O_15
REMARK                            x       y       z     vdW  Elec       q    Type
REMARK                         _______ _______ _______ _____ _____    ______ ____
ROOT
ATOM      1 BR   UNL     1       2.904   2.872  -0.001  0.00  0.00    -0.046 Br
ATOM      2 BR   UNL     1       2.903  -2.872   0.000  0.00  0.00    -0.046 Br
ATOM      3  C   UNL     1      -0.099   0.000   0.000  0.00  0.00    +0.001 C 
ATOM      4  C   UNL     1       0.599  -1.208   0.000  0.00  0.00    +0.010 C 
ATOM      5  C   UNL     1       0.599   1.208   0.000  0.00  0.00    +0.010 C 
ATOM      6  C   UNL     1       1.994   1.208   0.000  0.00  0.00    +0.069 C 
ATOM      7  C   UNL     1       1.994  -1.208   0.000  0.00  0.00    +0.069 C 
ATOM      8  C   UNL     1       2.691   0.000   0.000  0.00  0.00    +0.146 C 
ENDROOT
BRANCH   3   9
ATOM      9  C   UNL     1      -1.546   0.000   0.000  0.00  0.00    +0.000 C 
ATOM     10  C   UNL     1      -2.243   0.000  -1.208  0.00  0.00    +0.000 C 
ATOM     11  C   UNL     1      -2.243   0.001   1.208  0.00  0.00    +0.000 C 
ATOM     12  C   UNL     1      -3.638   0.000  -1.208  0.00  0.00    +0.000 C 
ATOM     13  C   UNL     1      -3.638   0.000   1.208  0.00  0.00    +0.000 C 
ATOM     14  C   UNL     1      -4.335   0.000   0.000  0.00  0.00    +0.000 C 
ENDBRANCH   3   9
BRANCH   8  15
ATOM     15  O   UNL     1       4.057   0.000   0.000  0.00  0.00    -0.505 OA
ATOM     16  H   UNL     1       4.525   0.811   0.000  0.00  0.00    +0.292 HD
ENDBRANCH   8  15
TORSDOF 2
