REMARK  Name = 6597
REMARK  2 active torsions:
REMARK  status: ('A' for Active; 'I' for Inactive)
REMARK    1  A    between atoms: C_2  and  C_5
REMARK    2  A    between atoms: C_2  and  O_6
REMARK                            x       y       z     vdW  Elec       q    Type
REMARK                         _______ _______ _______ _____ _____    ______ ____
ROOT
ATOM      1  O   UNL     1      -1.073   0.951  -0.858  0.00  0.00    -0.248 OA
ATOM      2  C   UNL     1      -0.772   0.118  -0.013  0.00  0.00    +0.345 C 
ENDROOT
BRANCH   2   5
ATOM      3 CL   UNL     1       1.640   1.250   0.365  0.00  0.00    -0.085 Cl
ATOM      4 CL   UNL     1       1.282  -1.481  -0.577  0.00  0.00    -0.085 Cl
ATOM      5  C   UNL     1       0.625  -0.201   0.453  0.00  0.00    +0.256 C 
ENDBRANCH   2   5
BRANCH   2   6
ATOM      6  O   UNL     1      -1.703  -0.638   0.630  0.00  0.00    -0.478 OA
ATOM      7  H   UNL     1      -1.434  -1.266   1.272  0.00  0.00    +0.295 HD
ENDBRANCH   2   6
TORSDOF 2
