REMARK  Name = 5289053
REMARK  4 active torsions:
REMARK  status: ('A' for Active; 'I' for Inactive)
REMARK    1  A    between atoms: C_1  and  C_15
REMARK    2  A    between atoms: C_2  and  N_24
REMARK    3  A    between atoms: C_4  and  C_21
REMARK    4  A    between atoms: C_15  and  O_16
REMARK                            x       y       z     vdW  Elec       q    Type
REMARK                         _______ _______ _______ _____ _____    ______ ____
ROOT
ATOM      1  C   UNL     1      -0.147   0.166   0.718  0.00  0.00    +0.056 C 
ATOM      2  C   UNL     1      -0.809   0.951  -0.213  0.00  0.00    +0.146 C 
ATOM      3  C   UNL     1      -0.806  -0.838   1.411  0.00  0.00    +0.005 C 
ATOM      4  C   UNL     1      -2.840  -0.279   0.233  0.00  0.00    +0.073 C 
ATOM      5  C   UNL     1      -2.164   0.727  -0.457  0.00  0.00    +0.028 C 
ATOM      6  C   UNL     1      -2.161  -1.062   1.167  0.00  0.00    +0.004 C 
ENDROOT
BRANCH   1  15
ATOM      7  O   UNL     1       3.983   0.747   1.662  0.00  0.00    -0.291 OA
ATOM      8  O   UNL     1       0.744  -1.505  -1.005  0.00  0.00    -0.291 OA
ATOM      9  C   UNL     1       4.299  -1.001  -1.496  0.00  0.00    +0.016 C 
ATOM     10  C   UNL     1       4.761  -0.688  -0.081  0.00  0.00    +0.070 C 
ATOM     11  C   UNL     1       3.053  -1.875  -1.487  0.00  0.00    +0.070 C 
ATOM     12  C   UNL     1       2.267  -0.261   0.346  0.00  0.00    +0.103 C 
ATOM     13  C   UNL     1       3.687   0.016   0.718  0.00  0.00    +0.179 C 
ATOM     14  C   UNL     1       1.911  -1.218  -0.745  0.00  0.00    +0.179 C 
ATOM     15  C   UNL     1       1.286   0.368   1.006  0.00  0.00    +0.141 C 
BRANCH  15  16
ATOM     16  O   UNL     1       1.550   1.251   2.037  0.00  0.00    -0.505 OA
ATOM     17  H   UNL     1       2.436   1.434   2.282  0.00  0.00    +0.292 HD
ENDBRANCH  15  16
ENDBRANCH   1  15
BRANCH   4  21
ATOM     18  F   UNL     1      -4.819  -1.533   0.718  0.00  0.00    -0.166 F 
ATOM     19  F   UNL     1      -5.078   0.565   0.234  0.00  0.00    -0.166 F 
ATOM     20  F   UNL     1      -4.541  -0.850  -1.327  0.00  0.00    -0.166 F 
ATOM     21  C   UNL     1      -4.289  -0.519  -0.027  0.00  0.00    +0.419 C 
ENDBRANCH   4  21
BRANCH   2  24
ATOM     22  O   UNL     1      -0.806   2.659  -1.762  0.00  0.00    -0.126 OA
ATOM     23  O   UNL     1       1.068   2.192  -0.718  0.00  0.00    -0.126 OA
ATOM     24  N   UNL     1      -0.149   1.986  -0.934  0.00  0.00    +0.058 N 
ENDBRANCH   2  24
TORSDOF 4
