REMARK  Name = 46937115
REMARK  6 active torsions:
REMARK  status: ('A' for Active; 'I' for Inactive)
REMARK    1  A    between atoms: N_1  and  CA_21
REMARK    2  A    between atoms: C_6  and  C_12
REMARK    3  A    between atoms: C_15  and  N_18
REMARK    4  A    between atoms: CA_21  and  CB_22
REMARK    5  A    between atoms: CA_21  and  C_25
REMARK    6  A    between atoms: C_25  and  O_26
REMARK                            x       y       z     vdW  Elec       q    Type
REMARK                         _______ _______ _______ _____ _____    ______ ____
ROOT
ATOM      1  N   VAL A   1       2.758  -0.608  -0.188  0.00  0.00    -0.316 N 
ATOM      2  N   UNK A   0      -0.586  -1.614   0.065  0.00  0.00    -0.170 N 
ATOM      3  N   UNK A   0       0.470  -0.775  -0.101  0.00  0.00    -0.158 NA
ATOM      4  N   UNK A   0      -1.761  -3.478   0.403  0.00  0.00    -0.226 NA
ATOM      5  C   UNK A   0       1.650  -1.348  -0.037  0.00  0.00    +0.147 C 
ATOM      6  C   UNK A   0      -1.906  -1.248   0.037  0.00  0.00    +0.095 C 
ATOM      7  C   UNK A   0      -0.548  -2.976   0.289  0.00  0.00    +0.155 C 
ATOM      8  C   UNK A   0       1.818  -2.822   0.203  0.00  0.00    +0.039 C 
ATOM      9  C   UNK A   0       0.726  -3.578   0.356  0.00  0.00    +0.039 C 
ATOM     10  C   UNK A   0      -2.608  -2.411   0.247  0.00  0.00    +0.117 C 
ATOM     11  H   VAL A   1       3.634  -1.056  -0.144  0.00  0.00    +0.148 HD
ENDROOT
BRANCH   6  12
ATOM     12  C   UNK A   0      -2.373   0.101  -0.174  0.00  0.00    +0.018 C 
ATOM     13  C   UNK A   0      -2.001   1.114   0.710  0.00  0.00    +0.015 C 
ATOM     14  C   UNK A   0      -3.196   0.391  -1.262  0.00  0.00    +0.001 C 
ATOM     15  C   UNK A   0      -2.452   2.418   0.505  0.00  0.00    +0.042 C 
ATOM     16  C   UNK A   0      -3.647   1.695  -1.467  0.00  0.00    +0.001 C 
ATOM     17  C   UNK A   0      -3.275   2.709  -0.583  0.00  0.00    +0.014 C 
BRANCH  15  18
ATOM     18  N   UNK A   0      -2.077   3.443   1.399  0.00  0.00    -0.357 N 
ATOM     19  H   UNK A   0      -1.496   3.238   2.167  0.00  0.00    +0.142 HD
ATOM     20  H   UNK A   0      -2.395   4.363   1.254  0.00  0.00    +0.142 HD
ENDBRANCH  15  18
ENDBRANCH   6  12
BRANCH   1  21
ATOM     21  CA  VAL A   1       2.721   0.826  -0.412  0.00  0.00    +0.100 C 
BRANCH  21  22
ATOM     22  CB  VAL A   1       2.463   1.580   0.914  0.00  0.00    +0.020 C 
ATOM     23  CG1 VAL A   1       3.593   1.341   1.922  0.00  0.00    +0.002 C 
ATOM     24  CG2 VAL A   1       2.234   3.084   0.737  0.00  0.00    +0.002 C 
ENDBRANCH  21  22
BRANCH  21  25
ATOM     25  C   VAL A   1       4.022   1.260  -1.093  0.00  0.00    +0.157 C 
BRANCH  25  26
ATOM     26  O   VAL A   1       3.975   0.896  -2.469  0.00  0.00    -0.380 OA
ATOM     27  H   VAL A   1       4.797   1.169  -2.904  0.00  0.00    +0.211 HD
ENDBRANCH  25  26
ENDBRANCH  21  25
ENDBRANCH   1  21
TORSDOF 6
