REMARK  Name = 5289411
REMARK  6 active torsions:
REMARK  status: ('A' for Active; 'I' for Inactive)
REMARK    1  A    between atoms: N_3  and  C_9
REMARK    2  A    between atoms: C_4  and  O_25
REMARK    3  A    between atoms: C_5  and  N_24
REMARK    4  A    between atoms: C_12  and  C_17
REMARK    5  A    between atoms: O_25  and  C_26
REMARK    6  A    between atoms: C_26  and  C_27
REMARK                            x       y       z     vdW  Elec       q    Type
REMARK                         _______ _______ _______ _____ _____    ______ ____
ROOT
ATOM      1  N   UNL     1       0.490  -1.219   0.121  0.00  0.00    -0.293 NA
ATOM      2  N   UNL     1       0.615  -3.619  -0.057  0.00  0.00    -0.316 NA
ATOM      3  N   UNL     1      -1.453  -2.512  -0.116  0.00  0.00    -0.238 N 
ATOM      4  C   UNL     1       1.835  -1.195   0.218  0.00  0.00    +0.292 C 
ATOM      5  C   UNL     1       2.628  -2.322   0.187  0.00  0.00    +0.261 C 
ATOM      6  C   UNL     1       1.957  -3.520   0.046  0.00  0.00    +0.196 C 
ATOM      7  C   UNL     1      -0.047  -2.447  -0.012  0.00  0.00    +0.207 C 
ATOM      8  H   UNL     1      -1.801  -3.429  -0.211  0.00  0.00    +0.166 HD
ATOM      9  N   UNL     1       2.703  -4.725   0.005  0.00  0.00    -0.334 N 
ATOM     10  H   UNL     1       2.239  -5.588  -0.095  0.00  0.00    +0.144 HD
ATOM     11  H   UNL     1       3.684  -4.699   0.076  0.00  0.00    +0.144 HD
ENDROOT
BRANCH   3  12
ATOM     12  C   UNL     1      -2.455  -1.525  -0.111  0.00  0.00    +0.058 C 
ATOM     13  C   UNL     1      -2.181  -0.245  -0.599  0.00  0.00    +0.015 C 
ATOM     14  C   UNL     1      -3.727  -1.820   0.384  0.00  0.00    +0.015 C 
ATOM     15  C   UNL     1      -4.444   0.436  -0.097  0.00  0.00    +0.053 C 
ATOM     16  C   UNL     1      -3.175   0.734  -0.592  0.00  0.00    +0.006 C 
ATOM     17  C   UNL     1      -4.721  -0.841   0.391  0.00  0.00    +0.006 C 
BRANCH  15  20
ATOM     18  O   UNL     1      -6.615   1.226   0.361  0.00  0.00    -0.270 OA
ATOM     19  N   UNL     1      -5.152   2.716  -0.586  0.00  0.00    -0.325 N 
ATOM     20  C   UNL     1      -5.479   1.458  -0.089  0.00  0.00    +0.243 C 
ATOM     21  H   UNL     1      -5.827   3.432  -0.596  0.00  0.00    +0.145 HD
ATOM     22  H   UNL     1      -4.245   2.889  -0.927  0.00  0.00    +0.145 HD
ENDBRANCH  15  20
ENDBRANCH   3  12
BRANCH   5  24
ATOM     23  O   UNL     1       4.571  -2.128  -0.802  0.00  0.00    -0.099 OA
ATOM     24  N   UNL     1       3.996  -2.245   0.290  0.00  0.00    -0.030 NA
ENDBRANCH   5  24
BRANCH   4  25
ATOM     25  O   UNL     1       2.400   0.049   0.355  0.00  0.00    -0.453 OA
BRANCH  25  26
ATOM     26  C   UNL     1       1.520   1.157   0.379  0.00  0.00    +0.208 C 
BRANCH  26  27
ATOM     27  C   UNL     1       2.348   2.431   0.533  0.00  0.00    +0.044 C 
ATOM     28  C   UNL     1       3.336   2.578  -0.632  0.00  0.00    +0.004 C 
ATOM     29  C   UNL     1       1.437   3.661   0.635  0.00  0.00    +0.004 C 
ATOM     30  C   UNL     1       4.140   3.873  -0.529  0.00  0.00    +0.000 C 
ATOM     31  C   UNL     1       2.243   4.954   0.736  0.00  0.00    +0.000 C 
ATOM     32  C   UNL     1       3.230   5.092  -0.419  0.00  0.00    +0.000 C 
ENDBRANCH  26  27
ENDBRANCH  25  26
ENDBRANCH   4  25
TORSDOF 6
