REMARK  Name = 5288709
REMARK  6 active torsions:
REMARK  status: ('A' for Active; 'I' for Inactive)
REMARK    1  A    between atoms: N_1  and  C_8
REMARK    2  A    between atoms: N_1  and  N_16
REMARK    3  A    between atoms: N_16  and  C_19
REMARK    4  A    between atoms: C_18  and  C_24
REMARK    5  A    between atoms: C_24  and  S_25
REMARK    6  A    between atoms: S_25  and  N_28
REMARK                            x       y       z     vdW  Elec       q    Type
REMARK                         _______ _______ _______ _____ _____    ______ ____
ROOT
ATOM      1  N   UNL     1       1.142   0.318   0.875  0.00  0.00    -0.255 N 
ATOM      2  H   UNL     1       1.100  -0.643   1.085  0.00  0.00    +0.171 HD
ENDROOT
BRANCH   1   8
ATOM      3  S   UNL     1       3.256  -2.483   0.756  0.00  0.00    -0.104 S 
ATOM      4  O   UNL     1       1.541   3.054   0.101  0.00  0.00    -0.208 OA
ATOM      5  N   UNL     1       3.699   2.442  -0.537  0.00  0.00    -0.332 NA
ATOM      6  N   UNL     1       5.709  -2.651  -0.088  0.00  0.00    -0.262 NA
ATOM      7  C   UNL     1       3.462   0.224   0.059  0.00  0.00    +0.050 C 
ATOM      8  C   UNL     1       2.295   0.786   0.351  0.00  0.00    +0.156 C 
ATOM      9  C   UNL     1       4.298   1.298  -0.490  0.00  0.00    +0.144 C 
ATOM     10  C   UNL     1       3.990  -1.068   0.166  0.00  0.00    +0.116 C 
ATOM     11  C   UNL     1       5.283  -1.356  -0.233  0.00  0.00    +0.069 C 
ATOM     12  C   UNL     1       5.684   0.950  -0.909  0.00  0.00    +0.034 C 
ATOM     13  C   UNL     1       2.430   2.225  -0.029  0.00  0.00    +0.220 C 
ATOM     14  C   UNL     1       6.115  -0.321  -0.771  0.00  0.00    +0.018 C 
ATOM     15  C   UNL     1       4.715  -3.344   0.429  0.00  0.00    +0.183 C 
ENDBRANCH   1   8
BRANCH   1  16
ATOM     16  N   UNL     1       0.038   1.057   1.135  0.00  0.00    -0.265 N 
ATOM     17  H   UNL     1       0.140   1.817   1.754  0.00  0.00    +0.170 HD
BRANCH  16  19
ATOM     18  C   UNL     1      -3.782   0.382  -0.475  0.00  0.00    +0.003 C 
ATOM     19  C   UNL     1      -1.239   0.831   0.598  0.00  0.00    +0.061 C 
ATOM     20  C   UNL     1      -2.710  -0.423  -0.861  0.00  0.00    -0.001 C 
ATOM     21  C   UNL     1      -3.584   1.411   0.446  0.00  0.00    -0.001 C 
ATOM     22  C   UNL     1      -1.441  -0.199  -0.326  0.00  0.00    +0.016 C 
ATOM     23  C   UNL     1      -2.316   1.635   0.982  0.00  0.00    +0.016 C 
BRANCH  18  24
ATOM     24  C   UNL     1      -5.138   0.143  -1.047  0.00  0.00    +0.195 C 
BRANCH  24  25
ATOM     25  S   UNL     1      -5.974  -1.003   0.001  0.00  0.00    +0.045 S 
ATOM     26  O   UNL     1      -5.272  -2.275  -0.055  0.00  0.00    -0.157 OA
ATOM     27  O   UNL     1      -6.206  -0.352   1.281  0.00  0.00    -0.157 OA
BRANCH  25  28
ATOM     28  N   UNL     1      -7.477  -1.146  -0.803  0.00  0.00    -0.182 NA
ATOM     29  C   UNL     1      -8.520  -0.134  -0.555  0.00  0.00    +0.110 C 
ATOM     30  H   UNL     1      -7.870  -2.051  -0.543  0.00  0.00    +0.148 HD
ENDBRANCH  25  28
ENDBRANCH  24  25
ENDBRANCH  18  24
ENDBRANCH  16  19
ENDBRANCH   1  16
TORSDOF 6
