REMARK  Name = 11267350
REMARK  6 active torsions:
REMARK  status: ('A' for Active; 'I' for Inactive)
REMARK    1  A    between atoms: CA_5  and  CB_11
REMARK    2  A    between atoms: CA_6  and  CB_20
REMARK    3  A    between atoms: CB_11  and  CG_12
REMARK    4  A    between atoms: CZ_17  and  OH_18
REMARK    5  A    between atoms: CB_20  and  CG_21
REMARK    6  A    between atoms: CZ_26  and  OH_27
REMARK                            x       y       z     vdW  Elec       q    Type
REMARK                         _______ _______ _______ _____ _____    ______ ____
ROOT
ATOM      1  O   TYR A   2       0.186  -1.446  -2.642  0.00  0.00    -0.273 OA
ATOM      2  O   TYR A   1      -0.186  -1.451   2.639  0.00  0.00    -0.273 OA
ATOM      3  N   TYR A   1      -1.099  -1.302  -0.737  0.00  0.00    -0.297 N 
ATOM      4  N   TYR A   2       1.099  -1.303   0.735  0.00  0.00    -0.297 N 
ATOM      5  CA  TYR A   1      -1.253  -0.717   0.587  0.00  0.00    +0.153 C 
ATOM      6  CA  TYR A   2       1.253  -0.716  -0.588  0.00  0.00    +0.153 C 
ATOM      7  C   TYR A   2       0.097  -1.229  -1.436  0.00  0.00    +0.241 C 
ATOM      8  C   TYR A   1      -0.097  -1.232   1.433  0.00  0.00    +0.241 C 
ATOM      9  H   TYR A   1      -1.865  -1.762  -1.149  0.00  0.00    +0.150 HD
ATOM     10  H   TYR A   2       1.865  -1.764   1.146  0.00  0.00    +0.150 HD
ENDROOT
BRANCH   5  11
ATOM     11  CB  TYR A   1      -2.602  -1.071   1.192  0.00  0.00    +0.055 C 
BRANCH  11  12
ATOM     12  CG  TYR A   1      -3.706  -0.201   0.649  0.00  0.00    -0.020 C 
ATOM     13  CD1 TYR A   1      -4.016   0.989   1.291  0.00  0.00    -0.001 C 
ATOM     14  CD2 TYR A   1      -4.395  -0.603  -0.486  0.00  0.00    -0.001 C 
ATOM     15  CE1 TYR A   1      -5.038   1.794   0.788  0.00  0.00    +0.036 C 
ATOM     16  CE2 TYR A   1      -5.417   0.202  -0.989  0.00  0.00    +0.036 C 
ATOM     17  CZ  TYR A   1      -5.738   1.401  -0.352  0.00  0.00    +0.134 C 
BRANCH  17  18
ATOM     18  OH  TYR A   1      -6.736   2.187  -0.843  0.00  0.00    -0.506 OA
ATOM     19  HH  TYR A   1      -6.951   2.992  -0.414  0.00  0.00    +0.292 HD
ENDBRANCH  17  18
ENDBRANCH  11  12
ENDBRANCH   5  11
BRANCH   6  20
ATOM     20  CB  TYR A   2       2.602  -1.069  -1.194  0.00  0.00    +0.055 C 
BRANCH  20  21
ATOM     21  CG  TYR A   2       3.706  -0.200  -0.649  0.00  0.00    -0.020 C 
ATOM     22  CD1 TYR A   2       4.016   0.992  -1.289  0.00  0.00    -0.001 C 
ATOM     23  CD2 TYR A   2       4.395  -0.604   0.484  0.00  0.00    -0.001 C 
ATOM     24  CE1 TYR A   2       5.038   1.796  -0.784  0.00  0.00    +0.036 C 
ATOM     25  CE2 TYR A   2       5.417   0.200   0.989  0.00  0.00    +0.036 C 
ATOM     26  CZ  TYR A   2       5.738   1.400   0.355  0.00  0.00    +0.134 C 
BRANCH  26  27
ATOM     27  OH  TYR A   2       6.736   2.185   0.846  0.00  0.00    -0.506 OA
ATOM     28  HH  TYR A   2       6.951   2.991   0.420  0.00  0.00    +0.292 HD
ENDBRANCH  26  27
ENDBRANCH  20  21
ENDBRANCH   6  20
TORSDOF 6
