REMARK  Name = 13294447
REMARK  6 active torsions:
REMARK  status: ('A' for Active; 'I' for Inactive)
REMARK    1  A    between atoms: C_1  and  C_2
REMARK    2  A    between atoms: C_1  and  C_9
REMARK    3  A    between atoms: C_2  and  C_3
REMARK    4  A    between atoms: C_9  and  C_11
REMARK    5  A    between atoms: C_11  and  C_13
REMARK    6  A    between atoms: C_13  and  O_14
REMARK                            x       y       z     vdW  Elec       q    Type
REMARK                         _______ _______ _______ _____ _____    ______ ____
ROOT
ATOM      1  C   UNL     1      -0.315  -0.066   0.080  0.00  0.00    +0.013 C 
ENDROOT
BRANCH   1   2
ATOM      2  C   UNL     1       0.781  -1.117  -0.120  0.00  0.00    +0.027 C 
BRANCH   2   3
ATOM      3  C   UNL     1       2.157  -0.502  -0.062  0.00  0.00    -0.022 C 
ATOM      4  C   UNL     1       2.744  -0.034  -1.228  0.00  0.00    -0.004 C 
ATOM      5  C   UNL     1       2.813  -0.415   1.157  0.00  0.00    -0.004 C 
ATOM      6  C   UNL     1       4.016   0.534  -1.174  0.00  0.00    -0.000 C 
ATOM      7  C   UNL     1       4.086   0.153   1.210  0.00  0.00    -0.000 C 
ATOM      8  C   UNL     1       4.688   0.628   0.045  0.00  0.00    -0.000 C 
ENDBRANCH   2   3
ENDBRANCH   1   2
BRANCH   1   9
ATOM      9  C   UNL     1      -1.718  -0.657  -0.053  0.00  0.00    +0.076 C 
BRANCH   9  11
ATOM     10  O   UNL     1      -2.648   1.581   0.229  0.00  0.00    -0.284 OA
ATOM     11  C   UNL     1      -2.810   0.381   0.066  0.00  0.00    +0.248 C 
BRANCH  11  13
ATOM     12  O   UNL     1      -4.490  -1.290  -0.163  0.00  0.00    -0.242 OA
ATOM     13  C   UNL     1      -4.226  -0.111  -0.046  0.00  0.00    +0.373 C 
BRANCH  13  14
ATOM     14  O   UNL     1      -5.078   0.916   0.060  0.00  0.00    -0.475 OA
ATOM     15  H   UNL     1      -4.750   1.790   0.146  0.00  0.00    +0.295 HD
ENDBRANCH  13  14
ENDBRANCH  11  13
ENDBRANCH   9  11
ENDBRANCH   1   9
TORSDOF 6
