REMARK  Name = 40599451
REMARK  6 active torsions:
REMARK  status: ('A' for Active; 'I' for Inactive)
REMARK    1  A    between atoms: S_1  and  C_2
REMARK    2  A    between atoms: S_1  and  C_11
REMARK    3  A    between atoms: C_2  and  C_3
REMARK    4  A    between atoms: C_3  and  N_4
REMARK    5  A    between atoms: C_3  and  C_10
REMARK    6  A    between atoms: C_11  and  C_13
REMARK                            x       y       z     vdW  Elec       q    Type
REMARK                         _______ _______ _______ _____ _____    ______ ____
ROOT
ATOM      1  S   UNK     1      -1.013   0.245   0.003  0.00  0.00    -0.137 S 
ENDROOT
BRANCH   1   2
ATOM      2  C   UNK     1      -2.450   0.527  -1.083  0.00  0.00    +0.047 C 
BRANCH   2   3
ATOM      3  C   UNK     1      -3.788   0.534  -0.340  0.00  0.00    +0.051 C 
BRANCH   3   4
ATOM      4  N   UNK     1      -3.808   1.764   0.516  0.00  0.00    +0.389 N 
ATOM      5  H   UNK     1      -3.548   2.574  -0.047  0.00  0.00    -0.088 HD
ATOM      6  H   UNK     1      -3.144   1.655   1.283  0.00  0.00    -0.088 HD
ATOM      7  H   UNK     1      -4.746   1.899   0.894  0.00  0.00    -0.088 HD
ENDBRANCH   3   4
BRANCH   3  10
ATOM      8  O   UNK     1      -4.863  -0.607   1.440  0.00  0.00    -0.248 OA
ATOM      9  O   UNK     1      -3.713  -1.832  -0.104  0.00  0.00    -0.248 OA
ATOM     10  C   UNK     1      -4.164  -0.764   0.398  0.00  0.00    +0.346 C 
ENDBRANCH   3  10
ENDBRANCH   2   3
ENDBRANCH   1   2
BRANCH   1  11
ATOM     11  C   UNK     1       0.284   0.386  -1.246  0.00  0.00    +0.084 C 
BRANCH  11  13
ATOM     12 BR   UNK     1       5.931  -0.389   1.150  0.00  0.00    -0.049 Br
ATOM     13  C   UNK     1       1.657   0.198  -0.663  0.00  0.00    -0.011 C 
ATOM     14  C   UNK     1       2.251   1.226   0.069  0.00  0.00    -0.003 C 
ATOM     15  C   UNK     1       2.336  -1.006  -0.854  0.00  0.00    -0.003 C 
ATOM     16  C   UNK     1       3.525   1.051   0.609  0.00  0.00    +0.006 C 
ATOM     17  C   UNK     1       3.610  -1.181  -0.313  0.00  0.00    +0.006 C 
ATOM     18  C   UNK     1       4.205  -0.152   0.418  0.00  0.00    +0.035 C 
ENDBRANCH  11  13
ENDBRANCH   1  11
TORSDOF 6
