REMARK  Name = 25147494
REMARK  4 active torsions:
REMARK  status: ('A' for Active; 'I' for Inactive)
REMARK    1  A    between atoms: C_2  and  C_18
REMARK    2  A    between atoms: C_3  and  O_16
REMARK    3  A    between atoms: C_5  and  N_8
REMARK    4  A    between atoms: C_18  and  N_19
REMARK                            x       y       z     vdW  Elec       q    Type
REMARK                         _______ _______ _______ _____ _____    ______ ____
ROOT
ATOM      1  O   UNL     1       0.097   0.993   1.172  0.00  0.00    -0.339 OA
ATOM      2  C   UNL     1      -1.205   1.136   0.572  0.00  0.00    +0.123 C 
ATOM      3  C   UNL     1      -1.026   2.070  -0.617  0.00  0.00    +0.140 C 
ATOM      4  C   UNL     1       0.401   1.812  -1.043  0.00  0.00    +0.083 C 
ATOM      5  C   UNL     1       1.091   1.516   0.279  0.00  0.00    +0.201 C 
ENDROOT
BRANCH   5   8
ATOM      6  O   UNL     1       3.827   2.174  -0.154  0.00  0.00    -0.252 OA
ATOM      7  O   UNL     1       5.059  -2.257  -0.194  0.00  0.00    -0.270 OA
ATOM      8  N   UNL     1       2.159   0.569   0.150  0.00  0.00    -0.219 N 
ATOM      9  N   UNL     1       4.428  -0.040  -0.173  0.00  0.00    -0.236 N 
ATOM     10  C   UNL     1       1.858  -0.784   0.239  0.00  0.00    +0.071 C 
ATOM     11  C   UNL     1       3.488   0.992  -0.065  0.00  0.00    +0.315 C 
ATOM     12  C   UNL     1       2.760  -1.769   0.135  0.00  0.00    +0.047 C 
ATOM     13  C   UNL     1       4.183  -1.403  -0.091  0.00  0.00    +0.250 C 
ATOM     14  C   UNL     1       2.414  -3.220   0.234  0.00  0.00    +0.037 C 
ATOM     15  H   UNL     1       5.362   0.230  -0.323  0.00  0.00    +0.159 HD
ENDBRANCH   5   8
BRANCH   3  16
ATOM     16  O   UNL     1      -1.163   3.425  -0.195  0.00  0.00    -0.382 OA
ATOM     17  H   UNL     1      -2.080   3.587   0.078  0.00  0.00    +0.210 HD
ENDBRANCH   3  16
BRANCH   2  18
ATOM     18  C   UNL     1      -1.690  -0.250   0.169  0.00  0.00    -0.045 C 
BRANCH  18  19
ATOM     19  N   UNL     1      -3.129  -0.251  -0.093  0.00  0.00    +0.389 N 
ATOM     20  C   UNL     1      -3.881  -0.348   1.166  0.00  0.00    -0.077 C 
ATOM     21  C   UNL     1      -3.484  -1.345  -1.009  0.00  0.00    -0.077 C 
ATOM     22  C   UNL     1      -5.388  -0.301   0.914  0.00  0.00    -0.023 C 
ATOM     23  C   UNL     1      -4.979  -1.330  -1.332  0.00  0.00    -0.023 C 
ATOM     24  C   UNL     1      -5.821  -1.388  -0.063  0.00  0.00    -0.004 C 
ATOM     25  H   UNL     1      -3.380   0.629  -0.543  0.00  0.00    -0.080 HD
ENDBRANCH  18  19
ENDBRANCH   2  18
TORSDOF 4
