REMARK  Name = 24741805
REMARK  0 active torsions:
REMARK  status: ('A' for Active; 'I' for Inactive)
REMARK                            x       y       z     vdW  Elec       q    Type
REMARK                         _______ _______ _______ _____ _____    ______ ____
ROOT
ATOM      1  O   UNL     1      -2.118  -2.560  -0.001  0.00  0.00    -0.209 OA
ATOM      2  N   UNL     1       2.901  -1.007   0.001  0.00  0.00    -0.318 N 
ATOM      3  N   UNL     1      -2.024   1.444   0.000  0.00  0.00    -0.275 N 
ATOM      4  N   UNL     1       2.920   1.215   0.000  0.00  0.00    -0.318 N 
ATOM      5  N   UNL     1      -3.272  -0.582   0.000  0.00  0.00    -0.302 NA
ATOM      6  N   UNL     1      -4.316   1.516  -0.001  0.00  0.00    -0.320 N 
ATOM      7  C   UNL     1       1.582  -0.630   0.001  0.00  0.00    +0.060 C 
ATOM      8  C   UNL     1       1.621   0.761   0.000  0.00  0.00    +0.060 C 
ATOM      9  C   UNL     1      -0.797   0.773   0.000  0.00  0.00    +0.064 C 
ATOM     10  C   UNL     1      -0.795  -0.630   0.001  0.00  0.00    +0.110 C 
ATOM     11  C   UNL     1       0.398  -1.368   0.001  0.00  0.00    +0.029 C 
ATOM     12  C   UNL     1       0.414   1.482   0.001  0.00  0.00    +0.031 C 
ATOM     13  C   UNL     1       3.661   0.130   0.000  0.00  0.00    +0.144 C 
ATOM     14  C   UNL     1      -2.111  -1.333   0.000  0.00  0.00    +0.208 C 
ATOM     15  C   UNL     1      -3.196   0.723   0.000  0.00  0.00    +0.248 C 
ATOM     16  C   UNL     1       5.134   0.067  -0.002  0.00  0.00    +0.044 C 
ATOM     17  H   UNL     1       3.240  -1.931   0.001  0.00  0.00    +0.148 HD
ATOM     18  H   UNL     1      -2.049   2.428   0.001  0.00  0.00    +0.156 HD
ATOM     19  H   UNL     1       3.228   2.150  -0.001  0.00  0.00    +0.148 HD
ATOM     20  H   UNL     1      -4.226   2.496  -0.001  0.00  0.00    +0.146 HD
ATOM     21  H   UNL     1      -5.211   1.104  -0.002  0.00  0.00    +0.146 HD
ENDROOT
TORSDOF 0
