REMARK  Name = 3824
REMARK  5 active torsions:
REMARK  status: ('A' for Active; 'I' for Inactive)
REMARK    1  A    between atoms: N_3  and  C_8
REMARK    2  A    between atoms: N_4  and  C_14
REMARK    3  A    between atoms: C_5  and  C_20
REMARK    4  A    between atoms: C_20  and  C_21
REMARK    5  A    between atoms: C_21  and  C_23
REMARK                            x       y       z     vdW  Elec       q    Type
REMARK                         _______ _______ _______ _____ _____    ______ ____
ROOT
ATOM      1  O   UNL     1       0.604  -2.968   0.257  0.00  0.00    -0.272 OA
ATOM      2  O   UNL     1       1.653   1.202   2.198  0.00  0.00    -0.272 OA
ATOM      3  N   UNL     1      -0.488  -0.853   0.320  0.00  0.00    -0.179 N 
ATOM      4  N   UNL     1      -0.118   0.423   0.810  0.00  0.00    -0.179 N 
ATOM      5  C   UNL     1       1.532  -1.090   1.454  0.00  0.00    +0.157 C 
ATOM      6  C   UNL     1       0.528  -1.788   0.567  0.00  0.00    +0.254 C 
ATOM      7  C   UNL     1       1.045   0.333   1.590  0.00  0.00    +0.254 C 
ENDROOT
BRANCH   3   8
ATOM      8  C   UNL     1      -1.828  -1.239   0.013  0.00  0.00    +0.073 C 
ATOM      9  C   UNL     1      -2.076  -2.442  -0.651  0.00  0.00    +0.017 C 
ATOM     10  C   UNL     1      -2.896  -0.414   0.375  0.00  0.00    +0.017 C 
ATOM     11  C   UNL     1      -3.385  -2.820  -0.951  0.00  0.00    +0.001 C 
ATOM     12  C   UNL     1      -4.205  -0.792   0.076  0.00  0.00    +0.001 C 
ATOM     13  C   UNL     1      -4.449  -1.995  -0.587  0.00  0.00    +0.000 C 
ENDBRANCH   3   8
BRANCH   4  14
ATOM     14  C   UNL     1      -0.569   1.659   0.254  0.00  0.00    +0.073 C 
ATOM     15  C   UNL     1      -0.298   2.863   0.909  0.00  0.00    +0.017 C 
ATOM     16  C   UNL     1      -1.281   1.669  -0.947  0.00  0.00    +0.017 C 
ATOM     17  C   UNL     1      -0.738   4.070   0.366  0.00  0.00    +0.001 C 
ATOM     18  C   UNL     1      -1.721   2.877  -1.490  0.00  0.00    +0.001 C 
ATOM     19  C   UNL     1      -1.449   4.077  -0.834  0.00  0.00    +0.000 C 
ENDBRANCH   4  14
BRANCH   5  20
ATOM     20  C   UNL     1       2.925  -1.147   0.854  0.00  0.00    +0.026 C 
BRANCH  20  21
ATOM     21  C   UNL     1       2.982  -0.435  -0.495  0.00  0.00    +0.066 C 
BRANCH  21  23
ATOM     22  O   UNL     1       5.331  -1.003  -0.565  0.00  0.00    -0.296 OA
ATOM     23  C   UNL     1       4.373  -0.449  -1.102  0.00  0.00    +0.151 C 
ATOM     24  C   UNL     1       4.529   0.263  -2.421  0.00  0.00    +0.072 C 
ENDBRANCH  21  23
ENDBRANCH  20  21
ENDBRANCH   5  20
TORSDOF 5
