REMARK  Name = 9547998
REMARK  3 active torsions:
REMARK  status: ('A' for Active; 'I' for Inactive)
REMARK    1  A    between atoms: C_1  and  C_13
REMARK    2  A    between atoms: C_2  and  N_7
REMARK    3  A    between atoms: N_7  and  S_9
REMARK                            x       y       z     vdW  Elec       q    Type
REMARK                         _______ _______ _______ _____ _____    ______ ____
ROOT
ATOM      1  C   UNL     1      -2.355   0.077  -0.240  0.00  0.00    -0.022 C 
ATOM      2  C   UNL     1       0.386   0.394  -0.653  0.00  0.00    +0.065 C 
ATOM      3  C   UNL     1      -1.737   1.286   0.079  0.00  0.00    -0.003 C 
ATOM      4  C   UNL     1      -1.603  -0.973  -0.766  0.00  0.00    -0.003 C 
ATOM      5  C   UNL     1      -0.366   1.445  -0.127  0.00  0.00    +0.016 C 
ATOM      6  C   UNL     1      -0.233  -0.815  -0.973  0.00  0.00    +0.016 C 
ENDROOT
BRANCH   2   7
ATOM      7  N   UNL     1       1.789   0.556  -0.864  0.00  0.00    -0.213 N 
ATOM      8  H   UNL     1       2.141   1.093  -1.610  0.00  0.00    +0.174 HD
BRANCH   7   9
ATOM      9  S   UNL     1       2.841  -0.240   0.260  0.00  0.00    +0.091 S 
ATOM     10  O   UNL     1       2.760   0.672   1.609  0.00  0.00    -0.050 OA
ATOM     11  O   UNL     1       2.286  -1.544   0.575  0.00  0.00    -0.050 OA
ATOM     12  O   UNL     1       4.196  -0.134  -0.248  0.00  0.00    -0.050 OA
ENDBRANCH   7   9
ENDBRANCH   2   7
BRANCH   1  13
ATOM     13  C   UNL     1      -3.821  -0.092  -0.022  0.00  0.00    +0.026 C 
ATOM     14  C   UNL     1      -4.142  -0.633   1.369  0.00  0.00    +0.005 C 
ENDBRANCH   1  13
TORSDOF 3
