REMARK  Name = 46937165
REMARK  8 active torsions:
REMARK  status: ('A' for Active; 'I' for Inactive)
REMARK    1  A    between atoms: C_1  and  N_2
REMARK    2  A    between atoms: C_1  and  C_7
REMARK    3  A    between atoms: C_1  and  C_17
REMARK    4  A    between atoms: C_7  and  C_10
REMARK    5  A    between atoms: C_17  and  C_18
REMARK    6  A    between atoms: C_18  and  C_19
REMARK    7  A    between atoms: C_19  and  N_20
REMARK    8  A    between atoms: N_20  and  C_23
REMARK                            x       y       z     vdW  Elec       q    Type
REMARK                         _______ _______ _______ _____ _____    ______ ____
ROOT
ATOM      1  C   UNL     1      -0.756  -1.492  -0.888  0.00  0.00    +0.001 C 
ENDROOT
BRANCH   1   2
ATOM      2  N   UNL     1      -0.913  -2.794  -1.535  0.00  0.00    +0.387 N 
ATOM      3  H   UNL     1      -1.589  -2.717  -2.295  0.00  0.00    -0.089 HD
ATOM      4  H   UNL     1      -1.246  -3.475  -0.852  0.00  0.00    -0.089 HD
ATOM      5  H   UNL     1      -0.015  -3.099  -1.908  0.00  0.00    -0.089 HD
ENDBRANCH   1   2
BRANCH   1   7
ATOM      6  O   UNL     1       0.069  -2.481   1.153  0.00  0.00    -0.290 OA
ATOM      7  C   UNL     1       0.264  -1.693   0.229  0.00  0.00    +0.188 C 
BRANCH   7  10
ATOM      8  S   UNL     1       2.695  -1.117   1.447  0.00  0.00    -0.069 S 
ATOM      9  N   UNL     1       1.825  -0.050  -0.734  0.00  0.00    -0.396 NA
ATOM     10  C   UNL     1       1.532  -0.914   0.209  0.00  0.00    +0.190 C 
ATOM     11  C   UNL     1       3.703   0.051   0.678  0.00  0.00    +0.128 C 
ATOM     12  C   UNL     1       3.068   0.512  -0.479  0.00  0.00    +0.124 C 
ATOM     13  C   UNL     1       4.966   0.525   1.069  0.00  0.00    -0.008 C 
ATOM     14  C   UNL     1       3.721   1.483  -1.270  0.00  0.00    +0.029 C 
ATOM     15  C   UNL     1       5.590   1.485   0.269  0.00  0.00    -0.003 C 
ATOM     16  C   UNL     1       4.978   1.959  -0.886  0.00  0.00    +0.002 C 
ENDBRANCH   7  10
ENDBRANCH   1   7
BRANCH   1  17
ATOM     17  C   UNL     1      -2.113  -1.031  -0.332  0.00  0.00    -0.012 C 
BRANCH  17  18
ATOM     18  C   UNL     1      -2.108   0.460   0.037  0.00  0.00    +0.025 C 
BRANCH  18  19
ATOM     19  C   UNL     1      -3.427   0.909   0.656  0.00  0.00    +0.129 C 
BRANCH  19  20
ATOM     20  N   UNL     1      -4.519   0.699  -0.295  0.00  0.00    -0.240 NA
BRANCH  20  23
ATOM     21  N   UNL     1      -6.076   1.577   1.311  0.00  0.00    -0.370 N 
ATOM     22  N   UNL     1      -6.788   0.873  -0.737  0.00  0.00    -0.370 N 
ATOM     23  C   UNL     1      -5.708   1.038   0.098  0.00  0.00    +0.189 C 
ATOM     24  H   UNL     1      -5.395   1.747   2.001  0.00  0.00    +0.159 HD
ATOM     25  H   UNL     1      -7.020   1.793   1.487  0.00  0.00    +0.159 HD
ATOM     26  H   UNL     1      -6.661   0.495  -1.637  0.00  0.00    +0.159 HD
ATOM     27  H   UNL     1      -7.688   1.132  -0.434  0.00  0.00    +0.159 HD
ENDBRANCH  20  23
ENDBRANCH  19  20
ENDBRANCH  18  19
ENDBRANCH  17  18
ENDBRANCH   1  17
TORSDOF 8
