REMARK  Name = 11507040
REMARK  6 active torsions:
REMARK  status: ('A' for Active; 'I' for Inactive)
REMARK    1  A    between atoms: C_5  and  O_10
REMARK    2  A    between atoms: C_6  and  O_12
REMARK    3  A    between atoms: C_8  and  C_14
REMARK    4  A    between atoms: C_9  and  C_17
REMARK    5  A    between atoms: C_14  and  O_15
REMARK    6  A    between atoms: C_17  and  C_18
REMARK                            x       y       z     vdW  Elec       q    Type
REMARK                         _______ _______ _______ _____ _____    ______ ____
ROOT
ATOM      1  S   UNL     1      -0.863  -1.673   0.175  0.00  0.00    -0.069 S 
ATOM      2  O   UNL     1       1.736  -1.077   0.805  0.00  0.00    -0.340 OA
ATOM      3  N   UNL     1      -1.532   0.684   1.104  0.00  0.00    -0.264 NA
ATOM      4  C   UNL     1      -0.049   0.622   1.179  0.00  0.00    +0.170 C 
ATOM      5  C   UNL     1       0.534   1.448   0.028  0.00  0.00    +0.165 C 
ATOM      6  C   UNL     1       2.004   1.113  -0.212  0.00  0.00    +0.169 C 
ATOM      7  C   UNL     1       0.388  -0.845   1.182  0.00  0.00    +0.192 C 
ATOM      8  C   UNL     1       2.179  -0.399  -0.370  0.00  0.00    +0.175 C 
ATOM      9  C   UNL     1      -1.990  -0.401   0.571  0.00  0.00    +0.081 C 
ENDROOT
BRANCH   5  10
ATOM     10  O   UNL     1       0.415   2.832   0.364  0.00  0.00    -0.380 OA
ATOM     11  H   UNL     1      -0.518   3.048   0.517  0.00  0.00    +0.211 HD
ENDBRANCH   5  10
BRANCH   6  12
ATOM     12  O   UNL     1       2.420   1.790  -1.395  0.00  0.00    -0.379 OA
ATOM     13  H   UNL     1       2.303   2.746  -1.279  0.00  0.00    +0.211 HD
ENDBRANCH   6  12
BRANCH   8  14
ATOM     14  C   UNL     1       3.639  -0.792  -0.584  0.00  0.00    +0.169 C 
BRANCH  14  15
ATOM     15  O   UNL     1       3.705  -2.202  -0.706  0.00  0.00    -0.379 OA
ATOM     16  H   UNL     1       4.627  -2.472  -0.842  0.00  0.00    +0.211 HD
ENDBRANCH  14  15
ENDBRANCH   8  14
BRANCH   9  17
ATOM     17  C   UNL     1      -3.438  -0.637   0.308  0.00  0.00    +0.052 C 
BRANCH  17  18
ATOM     18  C   UNL     1      -3.830  -0.143  -1.081  0.00  0.00    +0.007 C 
ATOM     19  C   UNL     1      -5.315  -0.319  -1.369  0.00  0.00    +0.000 C 
ENDBRANCH  17  18
ENDBRANCH   9  17
TORSDOF 6
