REMARK  Name = 5492457
REMARK  14 active torsions:
REMARK  status: ('A' for Active; 'I' for Inactive)
REMARK    1  A    between atoms: C_1  and  N_4
REMARK    2  A    between atoms: C_1  and  P_21
REMARK    3  A    between atoms: C_5  and  C_7
REMARK    4  A    between atoms: C_7  and  N_10
REMARK    5  A    between atoms: C_11  and  O_13
REMARK    6  A    between atoms: O_13  and  C_14
REMARK    7  A    between atoms: C_14  and  C_15
REMARK    8  A    between atoms: P_21  and  O_23
REMARK    9  A    between atoms: P_21  and  O_25
REMARK   10  A    between atoms: O_25  and  C_26
REMARK   11  A    between atoms: C_26  and  C_28
REMARK   12  A    between atoms: C_26  and  C_31
REMARK   13  A    between atoms: C_28  and  O_29
REMARK   14  A    between atoms: C_31  and  C_32
REMARK                            x       y       z     vdW  Elec       q    Type
REMARK                         _______ _______ _______ _____ _____    ______ ____
ROOT
ATOM      1  C   UNL     1      -2.187   1.325   1.656  0.00  0.00    +0.177 C 
ATOM      2  C   UNL     1      -1.575   2.172   2.762  0.00  0.00    +0.034 C 
ENDROOT
BRANCH   1   4
ATOM      3  O   UNL     1       0.021  -0.453   1.099  0.00  0.00    -0.273 OA
ATOM      4  N   UNL     1      -1.334   1.326   0.477  0.00  0.00    -0.295 N 
ATOM      5  C   UNL     1      -0.292   0.426   0.299  0.00  0.00    +0.241 C 
ATOM      6  H   UNL     1      -1.504   1.994  -0.225  0.00  0.00    +0.150 HD
BRANCH   5   7
ATOM      7  C   UNL     1       0.403   0.616  -1.042  0.00  0.00    +0.151 C 
ATOM      8  C   UNL     1      -0.254  -0.235  -2.118  0.00  0.00    +0.031 C 
BRANCH   7  10
ATOM      9  O   UNL     1       2.577   2.348  -0.197  0.00  0.00    -0.226 OA
ATOM     10  N   UNL     1       1.790   0.273  -0.877  0.00  0.00    -0.264 N 
ATOM     11  C   UNL     1       2.763   1.166  -0.468  0.00  0.00    +0.402 C 
ATOM     12  H   UNL     1       2.063  -0.654  -1.066  0.00  0.00    +0.153 HD
BRANCH  11  13
ATOM     13  O   UNL     1       3.975   0.538  -0.408  0.00  0.00    -0.430 OA
BRANCH  13  14
ATOM     14  C   UNL     1       5.079   1.351   0.004  0.00  0.00    +0.237 C 
BRANCH  14  15
ATOM     15  C   UNL     1       6.325   0.514   0.016  0.00  0.00    +0.021 C 
ATOM     16  C   UNL     1       6.693  -0.172   1.173  0.00  0.00    -0.001 C 
ATOM     17  C   UNL     1       7.115   0.423  -1.130  0.00  0.00    -0.001 C 
ATOM     18  C   UNL     1       7.851  -0.950   1.185  0.00  0.00    -0.000 C 
ATOM     19  C   UNL     1       8.273  -0.355  -1.118  0.00  0.00    -0.000 C 
ATOM     20  C   UNL     1       8.641  -1.041   0.039  0.00  0.00    -0.000 C 
ENDBRANCH  14  15
ENDBRANCH  13  14
ENDBRANCH  11  13
ENDBRANCH   7  10
ENDBRANCH   5   7
ENDBRANCH   1   4
BRANCH   1  21
ATOM     21  P   UNL     1      -3.793   1.877   1.085  0.00  0.00    +0.358 P 
ATOM     22  O   UNL     1      -3.744   3.024   0.118  0.00  0.00    -0.256 OA
BRANCH  21  23
ATOM     23  O   UNL     1      -4.594   2.193   2.455  0.00  0.00    -0.322 OA
ATOM     24  H   UNL     1      -5.488   2.503   2.243  0.00  0.00    +0.220 HD
ENDBRANCH  21  23
BRANCH  21  25
ATOM     25  O   UNL     1      -4.497   0.530   0.529  0.00  0.00    -0.284 OA
BRANCH  25  26
ATOM     26  C   UNL     1      -4.147   0.066  -0.763  0.00  0.00    +0.226 C 
BRANCH  26  28
ATOM     27  O   UNL     1      -5.747   1.751  -1.484  0.00  0.00    -0.248 OA
ATOM     28  C   UNL     1      -4.925   0.890  -1.770  0.00  0.00    +0.342 C 
BRANCH  28  29
ATOM     29  O   UNL     1      -4.592   0.581  -3.050  0.00  0.00    -0.479 OA
ATOM     30  H   UNL     1      -3.956  -0.085  -3.221  0.00  0.00    +0.295 HD
ENDBRANCH  28  29
ENDBRANCH  26  28
BRANCH  26  31
ATOM     31  C   UNL     1      -4.521  -1.414  -0.871  0.00  0.00    +0.068 C 
BRANCH  31  32
ATOM     32  C   UNL     1      -3.497  -2.305  -0.210  0.00  0.00    -0.019 C 
ATOM     33  C   UNL     1      -2.418  -2.793  -0.947  0.00  0.00    -0.004 C 
ATOM     34  C   UNL     1      -3.630  -2.640   1.137  0.00  0.00    -0.004 C 
ATOM     35  C   UNL     1      -1.472  -3.616  -0.337  0.00  0.00    -0.000 C 
ATOM     36  C   UNL     1      -2.683  -3.463   1.748  0.00  0.00    -0.000 C 
ATOM     37  C   UNL     1      -1.604  -3.951   1.010  0.00  0.00    -0.000 C 
ENDBRANCH  31  32
ENDBRANCH  26  31
ENDBRANCH  25  26
ENDBRANCH  21  25
ENDBRANCH   1  21
TORSDOF 14
