16750097
  -OEChem-10051721223D

 43 47  0     0  0  0  0  0  0999 V2000
   -5.6035    0.2092   -2.5831 O   0  0  0  0  0  0  0  0  0  0  0  0
   -0.5988   -0.3818   -1.0968 N   0  0  0  0  0  0  0  0  0  0  0  0
    1.5042   -0.6318   -0.1167 N   0  0  0  0  0  0  0  0  0  0  0  0
   -0.5528   -0.4056    1.1244 N   0  0  0  0  0  0  0  0  0  0  0  0
   -5.4611    0.1589    1.4191 N   0  0  0  0  0  0  0  0  0  0  0  0
   -6.7256    0.3232   -0.5903 N   0  0  0  0  0  0  0  0  0  0  0  0
   -7.7370    0.4230    1.5211 N   0  0  0  0  0  0  0  0  0  0  0  0
   -1.9043   -0.2343   -0.7022 C   0  0  0  0  0  0  0  0  0  0  0  0
   -1.8488   -0.2527    0.6879 C   0  0  0  0  0  0  0  0  0  0  0  0
    2.4453   -0.7480    0.9831 C   0  0  0  0  0  0  0  0  0  0  0  0
    3.8512   -0.8682    0.4637 C   0  0  0  0  0  0  0  0  0  0  0  0
    0.1696   -0.4800    0.0294 C   0  0  0  0  0  0  0  0  0  0  0  0
   -4.2506    0.0247    0.7320 C   0  0  0  0  0  0  0  0  0  0  0  0
   -4.2655    0.0385   -0.6711 C   0  0  0  0  0  0  0  0  0  0  0  0
    4.6594    0.2574    0.2356 C   0  0  0  0  0  0  0  0  0  0  0  0
   -3.0898   -0.0911   -1.4249 C   0  0  0  0  0  0  0  0  0  0  0  0
   -3.0385   -0.1217    1.4251 C   0  0  0  0  0  0  0  0  0  0  0  0
    5.9747    0.0770   -0.2544 C   0  0  0  0  0  0  0  0  0  0  0  0
    4.3327   -2.1533    0.2120 C   0  0  0  0  0  0  0  0  0  0  0  0
    4.1912    1.5582    0.4830 C   0  0  0  0  0  0  0  0  0  0  0  0
    6.4432   -1.2238   -0.5017 C   0  0  0  0  0  0  0  0  0  0  0  0
   -5.5807    0.1969   -1.3561 C   0  0  0  0  0  0  0  0  0  0  0  0
    5.6263   -2.3308   -0.2694 C   0  0  0  0  0  0  0  0  0  0  0  0
    6.7832    1.2024   -0.4824 C   0  0  0  0  0  0  0  0  0  0  0  0
   -6.6339    0.3012    0.7136 C   0  0  0  0  0  0  0  0  0  0  0  0
    5.0082    2.6650    0.2504 C   0  0  0  0  0  0  0  0  0  0  0  0
    6.3017    2.4875   -0.2314 C   0  0  0  0  0  0  0  0  0  0  0  0
    2.1998   -1.6470    1.5650 H   0  0  0  0  0  0  0  0  0  0  0  0
    2.3328    0.0764    1.6950 H   0  0  0  0  0  0  0  0  0  0  0  0
   -0.2645   -0.4121   -2.0506 H   0  0  0  0  0  0  0  0  0  0  0  0
   -3.0848   -0.0824   -2.5090 H   0  0  0  0  0  0  0  0  0  0  0  0
   -3.0147   -0.1336    2.5109 H   0  0  0  0  0  0  0  0  0  0  0  0
    1.9019   -0.6710   -1.0530 H   0  0  0  0  0  0  0  0  0  0  0  0
    3.7096   -3.0272    0.3840 H   0  0  0  0  0  0  0  0  0  0  0  0
   -5.4492    0.1494    2.4317 H   0  0  0  0  0  0  0  0  0  0  0  0
    3.1875    1.7616    0.8429 H   0  0  0  0  0  0  0  0  0  0  0  0
    7.4509   -1.3862   -0.8785 H   0  0  0  0  0  0  0  0  0  0  0  0
    6.0006   -3.3313   -0.4658 H   0  0  0  0  0  0  0  0  0  0  0  0
    7.7975    1.0873   -0.8590 H   0  0  0  0  0  0  0  0  0  0  0  0
    4.6332    3.6663    0.4419 H   0  0  0  0  0  0  0  0  0  0  0  0
    6.9369    3.3496   -0.4131 H   0  0  0  0  0  0  0  0  0  0  0  0
   -8.6652    0.5342    1.1279 H   0  0  0  0  0  0  0  0  0  0  0  0
   -7.6576    0.4044    2.5319 H   0  0  0  0  0  0  0  0  0  0  0  0
  1 22  2  0  0  0  0
  2  8  1  0  0  0  0
  2 12  1  0  0  0  0
  2 30  1  0  0  0  0
  3 10  1  0  0  0  0
  3 12  1  0  0  0  0
  3 33  1  0  0  0  0
  4  9  1  0  0  0  0
  4 12  2  0  0  0  0
  5 13  1  0  0  0  0
  5 25  1  0  0  0  0
  5 35  1  0  0  0  0
  6 22  1  0  0  0  0
  6 25  2  0  0  0  0
  7 25  1  0  0  0  0
  7 42  1  0  0  0  0
  7 43  1  0  0  0  0
  8  9  2  0  0  0  0
  8 16  1  0  0  0  0
  9 17  1  0  0  0  0
 10 11  1  0  0  0  0
 10 28  1  0  0  0  0
 10 29  1  0  0  0  0
 11 15  1  0  0  0  0
 11 19  2  0  0  0  0
 13 14  1  0  0  0  0
 13 17  2  0  0  0  0
 14 16  2  0  0  0  0
 14 22  1  0  0  0  0
 15 18  1  0  0  0  0
 15 20  2  0  0  0  0
 16 31  1  0  0  0  0
 17 32  1  0  0  0  0
 18 21  1  0  0  0  0
 18 24  2  0  0  0  0
 19 23  1  0  0  0  0
 19 34  1  0  0  0  0
 20 26  1  0  0  0  0
 20 36  1  0  0  0  0
 21 23  2  0  0  0  0
 21 37  1  0  0  0  0
 23 38  1  0  0  0  0
 24 27  1  0  0  0  0
 24 39  1  0  0  0  0
 26 27  2  0  0  0  0
 26 40  1  0  0  0  0
 27 41  1  0  0  0  0
M  END
> <DATABASE_ID>
DB08512

> <DATABASE_NAME>
drugbank

> <ORIGINAL_SOURCE>
PUBCHEM

> <ORIGINAL_SOURCE_URL>
https://pubchem.ncbi.nlm.nih.gov/rest/pug/compound/inchikey/MCEZMMDIEXECTI-UHFFFAOYSA-N/SDF?record_type=3d

> <SMILES>
NC1=NC2=CC3=C(C=C2C(=O)N1)N=C(NCC1=CC=CC2=CC=CC=C12)N3

> <INCHI_IDENTIFIER>
InChI=1S/C20H16N6O/c21-19-23-15-9-17-16(8-14(15)18(27)26-19)24-20(25-17)22-10-12-6-3-5-11-4-1-2-7-13(11)12/h1-9H,10H2,(H2,22,24,25)(H3,21,23,26,27)

> <INCHI_KEY>
MCEZMMDIEXECTI-UHFFFAOYSA-N

> <FORMULA>
C20H16N6O

> <MOLECULAR_WEIGHT>
356.3806

> <EXACT_MASS>
356.138559164

> <JCHEM_ACCEPTOR_COUNT>
5

> <JCHEM_AVERAGE_POLARIZABILITY>
38.805984522772995

> <JCHEM_BIOAVAILABILITY>
1

> <JCHEM_DONOR_COUNT>
4

> <JCHEM_FORMAL_CHARGE>
0

> <JCHEM_GHOSE_FILTER>
1

> <JCHEM_IUPAC>
6-amino-2-[(naphthalen-1-ylmethyl)amino]-3H,7H,8H-imidazo[4,5-g]quinazolin-8-one

> <ALOGPS_LOGP>
3.13

> <JCHEM_LOGP>
2.6542978236666666

> <ALOGPS_LOGS>
-4.48

> <JCHEM_MDDR_LIKE_RULE>
0

> <JCHEM_NUMBER_OF_RINGS>
5

> <JCHEM_PHYSIOLOGICAL_CHARGE>
0

> <JCHEM_PKA>
12.35958201508829

> <JCHEM_PKA_STRONGEST_ACIDIC>
11.125601423753361

> <JCHEM_PKA_STRONGEST_BASIC>
4.837312972596546

> <JCHEM_POLAR_SURFACE_AREA>
108.19

> <JCHEM_REFRACTIVITY>
105.8291

> <JCHEM_ROTATABLE_BOND_COUNT>
3

> <JCHEM_RULE_OF_FIVE>
1

> <ALOGPS_SOLUBILITY>
1.19e-02 g/l

> <JCHEM_TRADITIONAL_IUPAC>
6-amino-2-[(naphthalen-1-ylmethyl)amino]-3H,7H-imidazo[4,5-g]quinazolin-8-one

> <JCHEM_VEBER_RULE>
0

> <DRUGBANK_ID>
DB08512

> <DRUG_GROUPS>
experimental

> <GENERIC_NAME>
6-amino-2-[(1-naphthylmethyl)amino]-3,7-dihydro-8H-imidazo[4,5-g]quinazolin-8-one

$$$$
