REMARK  Name = 1150
REMARK  3 active torsions:
REMARK  status: ('A' for Active; 'I' for Inactive)
REMARK    1  A    between atoms: C_2  and  C_11
REMARK    2  A    between atoms: C_11  and  C_12
REMARK    3  A    between atoms: C_12  and  N_13
REMARK                            x       y       z     vdW  Elec       q    Type
REMARK                         _______ _______ _______ _____ _____    ______ ____
ROOT
ATOM      1  N   UNL     1       0.730  -2.039  -0.143  0.00  0.00    -0.312 N 
ATOM      2  C   UNL     1      -0.869  -0.576   0.332  0.00  0.00    -0.009 C 
ATOM      3  C   UNL     1       0.356   0.134   0.192  0.00  0.00    +0.011 C 
ATOM      4  C   UNL     1       1.343  -0.807  -0.107  0.00  0.00    +0.048 C 
ATOM      5  C   UNL     1      -0.607  -1.909   0.120  0.00  0.00    +0.057 C 
ATOM      6  C   UNL     1       0.721   1.492   0.290  0.00  0.00    +0.001 C 
ATOM      7  C   UNL     1       2.683  -0.458  -0.312  0.00  0.00    +0.015 C 
ATOM      8  C   UNL     1       2.057   1.856   0.087  0.00  0.00    +0.000 C 
ATOM      9  C   UNL     1       3.021   0.894  -0.209  0.00  0.00    +0.001 C 
ATOM     10  H   UNL     1       1.187  -2.891  -0.332  0.00  0.00    +0.152 HD
ENDROOT
BRANCH   2  11
ATOM     11  C   UNL     1      -2.190   0.004   0.649  0.00  0.00    +0.004 C 
BRANCH  11  12
ATOM     12  C   UNL     1      -2.978   0.406  -0.613  0.00  0.00    -0.081 C 
BRANCH  12  13
ATOM     13  N   UNL     1      -4.268   1.004  -0.286  0.00  0.00    +0.381 N 
ATOM     14  H   UNL     1      -4.755   1.254  -1.147  0.00  0.00    -0.089 HD
ATOM     15  H   UNL     1      -4.122   1.841   0.278  0.00  0.00    -0.089 HD
ATOM     16  H   UNL     1      -4.830   0.334   0.240  0.00  0.00    -0.089 HD
ENDBRANCH  12  13
ENDBRANCH  11  12
ENDBRANCH   2  11
TORSDOF 3
