1530
  -OEChem-10051721193D

 29 31  0     0  0  0  0  0  0999 V2000
   -2.7071    0.9881   -0.0003 N   0  0  0  0  0  0  0  0  0  0  0  0
   -3.2666   -1.1677   -0.0003 N   0  0  0  0  0  0  0  0  0  0  0  0
   -1.0085   -2.0590    0.0002 N   0  0  0  0  0  0  0  0  0  0  0  0
   -5.0061    0.4917   -0.0003 N   0  0  0  0  0  0  0  0  0  0  0  0
   -1.5239    0.3010    0.0000 C   0  0  0  0  0  0  0  0  0  0  0  0
   -1.9006   -1.0373    0.0000 C   0  0  0  0  0  0  0  0  0  0  0  0
    0.7389   -0.3480    0.0005 C   0  0  0  0  0  0  0  0  0  0  0  0
   -0.1889    0.6902    0.0003 C   0  0  0  0  0  0  0  0  0  0  0  0
   -3.7200    0.0669   -0.0004 C   0  0  0  0  0  0  0  0  0  0  0  0
    2.1556   -0.0602    0.0003 C   0  0  0  0  0  0  0  0  0  0  0  0
   -2.8452    2.4280    0.0006 C   0  0  0  0  0  0  0  0  0  0  0  0
    0.2864   -1.6632    0.0006 C   0  0  0  0  0  0  0  0  0  0  0  0
    2.8400    0.0792   -1.2079 C   0  0  0  0  0  0  0  0  0  0  0  0
    2.8407    0.0793    1.2082 C   0  0  0  0  0  0  0  0  0  0  0  0
    4.2069    0.3571   -1.2083 C   0  0  0  0  0  0  0  0  0  0  0  0
    4.2077    0.3575    1.2076 C   0  0  0  0  0  0  0  0  0  0  0  0
    4.8906    0.4963   -0.0007 C   0  0  0  0  0  0  0  0  0  0  0  0
    0.1093    1.7323    0.0002 H   0  0  0  0  0  0  0  0  0  0  0  0
   -1.8646    2.9070    0.0007 H   0  0  0  0  0  0  0  0  0  0  0  0
   -3.3926    2.7223   -0.8987 H   0  0  0  0  0  0  0  0  0  0  0  0
   -3.3924    2.7212    0.9004 H   0  0  0  0  0  0  0  0  0  0  0  0
    0.9925   -2.4913    0.0007 H   0  0  0  0  0  0  0  0  0  0  0  0
    2.3225   -0.0260   -2.1586 H   0  0  0  0  0  0  0  0  0  0  0  0
    2.3237   -0.0257    2.1592 H   0  0  0  0  0  0  0  0  0  0  0  0
   -5.2708    1.4715   -0.0004 H   0  0  0  0  0  0  0  0  0  0  0  0
   -5.7771   -0.1685   -0.0004 H   0  0  0  0  0  0  0  0  0  0  0  0
    4.7389    0.4652   -2.1491 H   0  0  0  0  0  0  0  0  0  0  0  0
    4.7403    0.4659    2.1479 H   0  0  0  0  0  0  0  0  0  0  0  0
    5.9549    0.7128   -0.0011 H   0  0  0  0  0  0  0  0  0  0  0  0
  1  5  1  0  0  0  0
  1  9  1  0  0  0  0
  1 11  1  0  0  0  0
  2  6  1  0  0  0  0
  2  9  2  0  0  0  0
  3  6  1  0  0  0  0
  3 12  2  0  0  0  0
  4  9  1  0  0  0  0
  4 25  1  0  0  0  0
  4 26  1  0  0  0  0
  5  6  2  0  0  0  0
  5  8  1  0  0  0  0
  7  8  2  0  0  0  0
  7 10  1  0  0  0  0
  7 12  1  0  0  0  0
  8 18  1  0  0  0  0
 10 13  2  0  0  0  0
 10 14  1  0  0  0  0
 11 19  1  0  0  0  0
 11 20  1  0  0  0  0
 11 21  1  0  0  0  0
 12 22  1  0  0  0  0
 13 15  1  0  0  0  0
 13 23  1  0  0  0  0
 14 16  2  0  0  0  0
 14 24  1  0  0  0  0
 15 17  2  0  0  0  0
 15 27  1  0  0  0  0
 16 17  1  0  0  0  0
 16 28  1  0  0  0  0
 17 29  1  0  0  0  0
M  END
> <DATABASE_ID>
DB08398

> <DATABASE_NAME>
drugbank

> <ORIGINAL_SOURCE>
PUBCHEM

> <ORIGINAL_SOURCE_URL>
https://pubchem.ncbi.nlm.nih.gov/rest/pug/compound/inchikey/UQVKZNNCIHJZLS-UHFFFAOYSA-N/SDF?record_type=3d

> <SMILES>
CN1C(N)=NC2=NC=C(C=C12)C1=CC=CC=C1

> <INCHI_IDENTIFIER>
InChI=1S/C13H12N4/c1-17-11-7-10(9-5-3-2-4-6-9)8-15-12(11)16-13(17)14/h2-8H,1H3,(H2,14,15,16)

> <INCHI_KEY>
UQVKZNNCIHJZLS-UHFFFAOYSA-N

> <FORMULA>
C13H12N4

> <MOLECULAR_WEIGHT>
224.2612

> <EXACT_MASS>
224.106196404

> <JCHEM_ACCEPTOR_COUNT>
3

> <JCHEM_AVERAGE_POLARIZABILITY>
24.676243540354662

> <JCHEM_BIOAVAILABILITY>
1

> <JCHEM_DONOR_COUNT>
1

> <JCHEM_FORMAL_CHARGE>
0

> <JCHEM_GHOSE_FILTER>
1

> <JCHEM_IUPAC>
1-methyl-6-phenyl-1H-imidazo[4,5-b]pyridin-2-amine

> <ALOGPS_LOGP>
2.27

> <JCHEM_LOGP>
2.093061605

> <ALOGPS_LOGS>
-2.73

> <JCHEM_MDDR_LIKE_RULE>
0

> <JCHEM_NUMBER_OF_RINGS>
3

> <JCHEM_PHYSIOLOGICAL_CHARGE>
0

> <JCHEM_PKA_STRONGEST_BASIC>
5.434517950913985

> <JCHEM_POLAR_SURFACE_AREA>
56.730000000000004

> <JCHEM_REFRACTIVITY>
68.59100000000001

> <JCHEM_ROTATABLE_BOND_COUNT>
1

> <JCHEM_RULE_OF_FIVE>
1

> <ALOGPS_SOLUBILITY>
4.16e-01 g/l

> <JCHEM_TRADITIONAL_IUPAC>
PHIP

> <JCHEM_VEBER_RULE>
0

> <DRUGBANK_ID>
DB08398

> <SECONDARY_ACCESSION_NUMBERS>
DB12735

> <DRUG_GROUPS>
investigational

> <GENERIC_NAME>
2-Amino-1-methyl-6-phenylimidazo(4,5-b)pyridine

> <SYNONYMS>
2-amino-1-methyl-6-phenylimidazo[4,5-b]pyridine; PhIP

$$$$
