REMARK  Name = 9053
REMARK  4 active torsions:
REMARK  status: ('A' for Active; 'I' for Inactive)
REMARK    1  A    between atoms: C_7  and  C_26
REMARK    2  A    between atoms: C_11  and  O_23
REMARK    3  A    between atoms: C_26  and  C_27
REMARK    4  A    between atoms: C_27  and  O_28
REMARK                            x       y       z     vdW  Elec       q    Type
REMARK                         _______ _______ _______ _____ _____    ______ ____
ROOT
ATOM      1  F   UNL     1       3.358  -2.967  -0.434  0.00  0.00    -0.233 F 
ATOM      2  O   UNL     1       5.963   0.555   1.768  0.00  0.00    -0.287 OA
ATOM      3  C   UNL     1      -2.011   0.163  -0.183  0.00  0.00    +0.009 C 
ATOM      4  C   UNL     1      -1.041  -0.999   0.107  0.00  0.00    +0.001 C 
ATOM      5  C   UNL     1       0.334  -0.823  -0.551  0.00  0.00    +0.006 C 
ATOM      6  C   UNL     1       0.991   0.491   0.003  0.00  0.00    +0.034 C 
ATOM      7  C   UNL     1      -3.248  -0.354   0.592  0.00  0.00    +0.060 C 
ATOM      8  C   UNL     1      -1.866  -2.244  -0.207  0.00  0.00    +0.000 C 
ATOM      9  C   UNL     1      -1.392   1.448   0.394  0.00  0.00    +0.030 C 
ATOM     10  C   UNL     1      -3.294  -1.871   0.260  0.00  0.00    +0.007 C 
ATOM     11  C   UNL     1       0.035   1.720  -0.132  0.00  0.00    +0.111 C 
ATOM     12  C   UNL     1       2.464   0.695  -0.533  0.00  0.00    +0.039 C 
ATOM     13  C   UNL     1       1.224  -2.045  -0.276  0.00  0.00    +0.040 C 
ATOM     14  C   UNL     1      -2.346   0.339  -1.688  0.00  0.00    +0.001 C 
ATOM     15  C   UNL     1       2.643  -1.860  -0.792  0.00  0.00    +0.180 C 
ATOM     16  C   UNL     1       3.243  -0.594  -0.235  0.00  0.00    -0.006 C 
ATOM     17  C   UNL     1      -3.737  -2.696   1.465  0.00  0.00    +0.000 C 
ATOM     18  C   UNL     1       2.548   0.967  -2.052  0.00  0.00    +0.009 C 
ATOM     19  C   UNL     1       3.103   1.896   0.149  0.00  0.00    -0.020 C 
ATOM     20  C   UNL     1       4.362  -0.629   0.506  0.00  0.00    +0.036 C 
ATOM     21  C   UNL     1       4.216   1.864   0.888  0.00  0.00    +0.038 C 
ATOM     22  C   UNL     1       4.932   0.595   1.106  0.00  0.00    +0.195 C 
ENDROOT
BRANCH  11  23
ATOM     23  O   UNL     1      -0.033   2.172  -1.477  0.00  0.00    -0.384 OA
ATOM     24  H   UNL     1       0.863   2.342  -1.807  0.00  0.00    +0.210 HD
ENDBRANCH  11  23
BRANCH   7  26
ATOM     25  O   UNL     1      -5.477  -0.261  -0.244  0.00  0.00    -0.293 OA
ATOM     26  C   UNL     1      -4.524   0.349   0.239  0.00  0.00    +0.180 C 
BRANCH  26  27
ATOM     27  C   UNL     1      -4.567   1.838   0.510  0.00  0.00    +0.202 C 
BRANCH  27  28
ATOM     28  O   UNL     1      -5.881   2.251   0.818  0.00  0.00    -0.375 OA
ATOM     29  H   UNL     1      -5.889   3.206   0.988  0.00  0.00    +0.211 HD
ENDBRANCH  27  28
ENDBRANCH  26  27
ENDBRANCH   7  26
TORSDOF 4
