REMARK  Name = 23586154
REMARK  3 active torsions:
REMARK  status: ('A' for Active; 'I' for Inactive)
REMARK    1  A    between atoms: C_1  and  C_11
REMARK    2  A    between atoms: C_4  and  C_10
REMARK    3  A    between atoms: C_11  and  C_16
REMARK                            x       y       z     vdW  Elec       q    Type
REMARK                         _______ _______ _______ _____ _____    ______ ____
ROOT
ATOM      1  C   UNL     1      -0.151   0.521  -0.581  0.00  0.00    -0.021 C 
ATOM      2  C   UNL     1      -0.689  -0.721  -0.918  0.00  0.00    -0.004 C 
ATOM      3  C   UNL     1      -0.953   1.488   0.025  0.00  0.00    -0.004 C 
ATOM      4  C   UNL     1      -2.832  -0.029  -0.043  0.00  0.00    +0.071 C 
ATOM      5  C   UNL     1      -2.030  -0.996  -0.649  0.00  0.00    +0.004 C 
ATOM      6  C   UNL     1      -2.294   1.213   0.294  0.00  0.00    +0.004 C 
ENDROOT
BRANCH   4  10
ATOM      7  F   UNL     1      -4.657  -1.573  -0.141  0.00  0.00    -0.166 F 
ATOM      8  F   UNL     1      -4.587  -0.240   1.568  0.00  0.00    -0.166 F 
ATOM      9  F   UNL     1      -5.115   0.538  -0.393  0.00  0.00    -0.166 F 
ATOM     10  C   UNL     1      -4.266  -0.322   0.243  0.00  0.00    +0.419 C 
ENDBRANCH   4  10
BRANCH   1  11
ATOM     11  C   UNL     1       1.298   0.818  -0.871  0.00  0.00    +0.047 C 
BRANCH  11  16
ATOM     12  S   UNL     1       2.562  -1.353   0.259  0.00  0.00    -0.083 S 
ATOM     13  S   UNL     1       5.429  -2.332   0.179  0.00  0.00    -0.028 S 
ATOM     14  O   UNL     1       3.674   2.343   0.156  0.00  0.00    -0.274 OA
ATOM     15  N   UNL     1       4.579   0.214   0.178  0.00  0.00    -0.273 N 
ATOM     16  C   UNL     1       2.200   0.430   0.288  0.00  0.00    +0.134 C 
ATOM     17  C   UNL     1       3.541   1.125   0.199  0.00  0.00    +0.237 C 
ATOM     18  C   UNL     1       4.290  -1.123   0.204  0.00  0.00    +0.114 C 
ATOM     19  H   UNL     1       5.513   0.523   0.145  0.00  0.00    +0.156 HD
ENDBRANCH  11  16
ENDBRANCH   1  11
TORSDOF 3
