REMARK  Name = 25229546
REMARK  2 active torsions:
REMARK  status: ('A' for Active; 'I' for Inactive)
REMARK    1  A    between atoms: N_2  and  C_14
REMARK    2  A    between atoms: C_7  and  S_20
REMARK                            x       y       z     vdW  Elec       q    Type
REMARK                         _______ _______ _______ _____ _____    ______ ____
ROOT
ATOM      1  O   UNL     1       0.325   2.197  -0.130  0.00  0.00    -0.273 OA
ATOM      2  N   UNL     1      -0.237  -0.086  -0.037  0.00  0.00    -0.202 N 
ATOM      3  N   UNL     1       1.520  -1.706  -0.001  0.00  0.00    -0.384 NA
ATOM      4  C   UNL     1       2.086   0.672  -0.087  0.00  0.00    +0.151 C 
ATOM      5  C   UNL     1       0.646   1.013  -0.069  0.00  0.00    +0.246 C 
ATOM      6  C   UNL     1       2.459  -0.672  -0.077  0.00  0.00    +0.124 C 
ATOM      7  C   UNL     1       0.261  -1.400   0.026  0.00  0.00    +0.220 C 
ATOM      8  C   UNL     1       3.054   1.682  -0.138  0.00  0.00    -0.010 C 
ATOM      9  C   UNL     1       3.820  -0.998  -0.118  0.00  0.00    +0.028 C 
ATOM     10  C   UNL     1       4.406   1.344  -0.178  0.00  0.00    -0.004 C 
ATOM     11  C   UNL     1       4.789   0.005  -0.170  0.00  0.00    +0.002 C 
ENDROOT
BRANCH   2  14
ATOM     12  F   UNL     1      -1.512   1.505   1.876  0.00  0.00    -0.203 F 
ATOM     13  F   UNL     1      -1.843  -1.067  -2.105  0.00  0.00    -0.203 F 
ATOM     14  C   UNL     1      -1.640   0.211  -0.113  0.00  0.00    +0.116 C 
ATOM     15  C   UNL     1      -2.237   1.009   0.863  0.00  0.00    +0.156 C 
ATOM     16  C   UNL     1      -2.406  -0.299  -1.161  0.00  0.00    +0.156 C 
ATOM     17  C   UNL     1      -3.600   1.298   0.790  0.00  0.00    +0.031 C 
ATOM     18  C   UNL     1      -3.769  -0.010  -1.234  0.00  0.00    +0.031 C 
ATOM     19  C   UNL     1      -4.366   0.788  -0.258  0.00  0.00    +0.005 C 
ENDBRANCH   2  14
BRANCH   7  20
ATOM     20  S   UNL     1      -0.841  -2.754   0.261  0.00  0.00    -0.065 S 
ATOM     21  C   UNL     1      -0.917  -2.733   2.062  0.00  0.00    +0.078 C 
ENDBRANCH   7  20
TORSDOF 2
