REMARK  Name = 24905153
REMARK  4 active torsions:
REMARK  status: ('A' for Active; 'I' for Inactive)
REMARK    1  A    between atoms: N_1  and  C_20
REMARK    2  A    between atoms: C_7  and  C_10
REMARK    3  A    between atoms: C_13  and  O_16
REMARK    4  A    between atoms: C_15  and  O_18
REMARK                            x       y       z     vdW  Elec       q    Type
REMARK                         _______ _______ _______ _____ _____    ______ ____
ROOT
ATOM      1  N   UNL     1       2.469   0.637   0.344  0.00  0.00    -0.200 N 
ATOM      2  N   UNL     1       1.226   1.148   0.412  0.00  0.00    -0.181 NA
ATOM      3  N   UNL     1       3.582  -1.498   0.091  0.00  0.00    -0.232 NA
ATOM      4  N   UNL     1       1.984  -3.330  -0.106  0.00  0.00    -0.234 NA
ATOM      5  C   UNL     1       2.495  -0.717   0.189  0.00  0.00    +0.137 C 
ATOM      6  C   UNL     1       1.172  -1.122   0.153  0.00  0.00    +0.150 C 
ATOM      7  C   UNL     1       0.440   0.072   0.295  0.00  0.00    +0.090 C 
ATOM      8  C   UNL     1       0.932  -2.483  -0.001  0.00  0.00    +0.112 C 
ATOM      9  C   UNL     1       3.226  -2.793  -0.054  0.00  0.00    +0.252 C 
ATOM     10  N   UNL     1      -0.378  -2.993  -0.052  0.00  0.00    -0.346 N 
ATOM     11  H   UNL     1      -0.527  -3.960  -0.161  0.00  0.00    +0.143 HD
ATOM     12  H   UNL     1      -1.147  -2.382   0.023  0.00  0.00    +0.143 HD
ENDROOT
BRANCH   7  13
ATOM     13  C   UNL     1      -0.992   0.225   0.323  0.00  0.00    +0.019 C 
ATOM     14  C   UNL     1      -1.694   0.438  -0.864  0.00  0.00    +0.041 C 
ATOM     15  C   UNL     1      -1.678   0.161   1.536  0.00  0.00    +0.005 C 
ATOM     16  C   UNL     1      -3.080   0.587  -0.838  0.00  0.00    +0.172 C 
ATOM     17  C   UNL     1      -3.065   0.310   1.562  0.00  0.00    +0.040 C 
ATOM     18  C   UNL     1      -3.766   0.523   0.375  0.00  0.00    +0.172 C 
BRANCH  16  19
ATOM     19  O   UNL     1      -3.754   0.795  -2.004  0.00  0.00    -0.468 OA
ATOM     20  C   UNL     1      -4.213  -0.360  -2.703  0.00  0.00    +0.253 C 
ENDBRANCH  16  19
BRANCH  18  21
ATOM     21  O   UNL     1      -5.120   0.668   0.413  0.00  0.00    -0.468 OA
ATOM     22  C   UNL     1      -5.744   0.590   1.694  0.00  0.00    +0.253 C 
ENDBRANCH  18  21
ENDBRANCH   7  13
BRANCH   1  23
ATOM     23  C   UNL     1       3.656   1.470   0.430  0.00  0.00    +0.098 C 
ATOM     24  C   UNL     1       4.388   1.601  -0.922  0.00  0.00    +0.022 C 
ATOM     25  C   UNL     1       3.334   2.975   0.314  0.00  0.00    +0.022 C 
ATOM     26  C   UNL     1       4.582   3.094  -0.585  0.00  0.00    +0.004 C 
ENDBRANCH   1  23
TORSDOF 4
