42628063
  -OEChem-10051721153D

 52 55  0     1  0  0  0  0  0999 V2000
    9.0073    2.9610   -2.2452 Cl  0  0  0  0  0  0  0  0  0  0  0  0
    6.9544    1.2127   -1.0026 S   0  0  0  0  0  0  0  0  0  0  0  0
    4.6286   -3.5393    1.4451 F   0  0  0  0  0  0  0  0  0  0  0  0
   -2.9835   -0.6153   -2.8909 F   0  0  0  0  0  0  0  0  0  0  0  0
   -0.4664   -2.0783    1.2580 O   0  0  0  0  0  0  0  0  0  0  0  0
    4.5060    1.0804    2.0143 O   0  0  0  0  0  0  0  0  0  0  0  0
   -7.3639    0.1491   -1.6274 O   0  0  0  0  0  0  0  0  0  0  0  0
    1.9970   -2.5373    0.1147 N   0  0  2  0  0  0  0  0  0  0  0  0
    4.9021   -0.4399    0.3074 N   0  0  0  0  0  0  0  0  0  0  0  0
   -1.3123   -1.5606   -0.8698 N   0  0  0  0  0  0  0  0  0  0  0  0
   -6.2463    0.9392    0.3080 N   0  0  0  0  0  0  0  0  0  0  0  0
    3.9336   -1.4176    0.7195 C   0  0  2  0  0  0  0  0  0  0  0  0
    4.3175   -2.8397    0.3207 C   0  0  2  0  0  0  0  0  0  0  0  0
    2.5783   -1.1953    0.0624 C   0  0  0  0  0  0  0  0  0  0  0  0
    3.0698   -3.4396   -0.3149 C   0  0  0  0  0  0  0  0  0  0  0  0
    0.8037   -2.6598   -0.7091 C   0  0  0  0  0  0  0  0  0  0  0  0
   -0.3855   -2.0761    0.0339 C   0  0  0  0  0  0  0  0  0  0  0  0
    5.1125    0.7477    0.9993 C   0  0  0  0  0  0  0  0  0  0  0  0
    6.1317    1.6658    0.4291 C   0  0  0  0  0  0  0  0  0  0  0  0
   -2.5474   -0.9346   -0.5773 C   0  0  0  0  0  0  0  0  0  0  0  0
    6.5435    2.8950    0.8949 C   0  0  0  0  0  0  0  0  0  0  0  0
   -3.3605   -0.4725   -1.6122 C   0  0  0  0  0  0  0  0  0  0  0  0
   -2.9513   -0.7802    0.7489 C   0  0  0  0  0  0  0  0  0  0  0  0
   -4.9812    0.2984    0.0052 C   0  0  0  0  0  0  0  0  0  0  0  0
   -4.5775    0.1439   -1.3209 C   0  0  0  0  0  0  0  0  0  0  0  0
   -4.1682   -0.1635    1.0402 C   0  0  0  0  0  0  0  0  0  0  0  0
    7.5477    3.4726    0.0655 C   0  0  0  0  0  0  0  0  0  0  0  0
    7.8653    2.6627   -1.0026 C   0  0  0  0  0  0  0  0  0  0  0  0
   -7.3327    0.8222   -0.5971 C   0  0  0  0  0  0  0  0  0  0  0  0
   -6.4118    1.6541    1.4964 C   0  0  0  0  0  0  0  0  0  0  0  0
   -8.5862    1.5519   -0.2309 C   0  0  0  0  0  0  0  0  0  0  0  0
   -7.5541    2.2711    1.8167 C   0  0  0  0  0  0  0  0  0  0  0  0
   -8.6703    2.2220    0.9207 C   0  0  0  0  0  0  0  0  0  0  0  0
    3.8284   -1.3662    1.8112 H   0  0  0  0  0  0  0  0  0  0  0  0
    5.1780   -2.8955   -0.3536 H   0  0  0  0  0  0  0  0  0  0  0  0
    1.9839   -0.4605    0.6158 H   0  0  0  0  0  0  0  0  0  0  0  0
    2.6949   -0.8381   -0.9698 H   0  0  0  0  0  0  0  0  0  0  0  0
    3.1752   -3.4285   -1.4071 H   0  0  0  0  0  0  0  0  0  0  0  0
    2.8912   -4.4655    0.0206 H   0  0  0  0  0  0  0  0  0  0  0  0
    0.9381   -2.2015   -1.6960 H   0  0  0  0  0  0  0  0  0  0  0  0
    0.5590   -3.7181   -0.8685 H   0  0  0  0  0  0  0  0  0  0  0  0
    5.4142   -0.6021   -0.5551 H   0  0  0  0  0  0  0  0  0  0  0  0
   -1.1021   -1.6370   -1.8626 H   0  0  0  0  0  0  0  0  0  0  0  0
    6.1479    3.3642    1.7868 H   0  0  0  0  0  0  0  0  0  0  0  0
   -2.3824   -1.1189    1.6031 H   0  0  0  0  0  0  0  0  0  0  0  0
   -5.1465    0.5359   -2.1572 H   0  0  0  0  0  0  0  0  0  0  0  0
   -4.4608   -0.0954    2.0839 H   0  0  0  0  0  0  0  0  0  0  0  0
    8.0094    4.4347    0.2484 H   0  0  0  0  0  0  0  0  0  0  0  0
   -5.5633    1.7396    2.1650 H   0  0  0  0  0  0  0  0  0  0  0  0
   -9.4222    1.5034   -0.9192 H   0  0  0  0  0  0  0  0  0  0  0  0
   -7.6503    2.8334    2.7382 H   0  0  0  0  0  0  0  0  0  0  0  0
   -9.5781    2.7460    1.1970 H   0  0  0  0  0  0  0  0  0  0  0  0
  1 28  1  0  0  0  0
  2 19  1  0  0  0  0
  2 28  1  0  0  0  0
  3 13  1  0  0  0  0
  4 22  1  0  0  0  0
  5 17  2  0  0  0  0
  6 18  2  0  0  0  0
  7 29  2  0  0  0  0
  8 14  1  0  0  0  0
  8 15  1  0  0  0  0
  8 16  1  0  0  0  0
  9 12  1  0  0  0  0
  9 18  1  0  0  0  0
  9 42  1  0  0  0  0
 10 17  1  0  0  0  0
 10 20  1  0  0  0  0
 10 43  1  0  0  0  0
 11 24  1  0  0  0  0
 11 29  1  0  0  0  0
 11 30  1  0  0  0  0
 12 13  1  0  0  0  0
 12 14  1  0  0  0  0
 12 34  1  0  0  0  0
 13 15  1  0  0  0  0
 13 35  1  0  0  0  0
 14 36  1  0  0  0  0
 14 37  1  0  0  0  0
 15 38  1  0  0  0  0
 15 39  1  0  0  0  0
 16 17  1  0  0  0  0
 16 40  1  0  0  0  0
 16 41  1  0  0  0  0
 18 19  1  0  0  0  0
 19 21  2  0  0  0  0
 20 22  2  0  0  0  0
 20 23  1  0  0  0  0
 21 27  1  0  0  0  0
 21 44  1  0  0  0  0
 22 25  1  0  0  0  0
 23 26  2  0  0  0  0
 23 45  1  0  0  0  0
 24 25  2  0  0  0  0
 24 26  1  0  0  0  0
 25 46  1  0  0  0  0
 26 47  1  0  0  0  0
 27 28  2  0  0  0  0
 27 48  1  0  0  0  0
 29 31  1  0  0  0  0
 30 32  2  0  0  0  0
 30 49  1  0  0  0  0
 31 33  2  0  0  0  0
 31 50  1  0  0  0  0
 32 33  1  0  0  0  0
 32 51  1  0  0  0  0
 33 52  1  0  0  0  0
M  END
> <DATABASE_ID>
DB08143

> <DATABASE_NAME>
drugbank

> <ORIGINAL_SOURCE>
PUBCHEM

> <ORIGINAL_SOURCE_URL>
https://pubchem.ncbi.nlm.nih.gov/rest/pug/compound/inchikey/SXIYSYYSKHUTQQ-RDJZCZTQSA-N/SDF?record_type=3d

> <SMILES>
[H][C@]1(F)CN(CC(=O)NC2=CC=C(C=C2F)N2C=CC=CC2=O)C[C@]1([H])NC(=O)C1=CC=C(Cl)S1

> <INCHI_IDENTIFIER>
InChI=1S/C22H19ClF2N4O3S/c23-19-7-6-18(33-19)22(32)27-17-11-28(10-15(17)25)12-20(30)26-16-5-4-13(9-14(16)24)29-8-2-1-3-21(29)31/h1-9,15,17H,10-12H2,(H,26,30)(H,27,32)/t15-,17-/m0/s1

> <INCHI_KEY>
SXIYSYYSKHUTQQ-RDJZCZTQSA-N

> <FORMULA>
C22H19ClF2N4O3S

> <MOLECULAR_WEIGHT>
492.926

> <EXACT_MASS>
492.083445301

> <JCHEM_ACCEPTOR_COUNT>
4

> <JCHEM_AVERAGE_POLARIZABILITY>
46.43321772897687

> <JCHEM_BIOAVAILABILITY>
1

> <JCHEM_DONOR_COUNT>
2

> <JCHEM_FORMAL_CHARGE>
0

> <JCHEM_GHOSE_FILTER>
0

> <JCHEM_IUPAC>
5-chloro-N-[(3S,4S)-4-fluoro-1-({[2-fluoro-4-(2-oxo-1,2-dihydropyridin-1-yl)phenyl]carbamoyl}methyl)pyrrolidin-3-yl]thiophene-2-carboxamide

> <ALOGPS_LOGP>
3.37

> <JCHEM_LOGP>
2.8783654199999997

> <ALOGPS_LOGS>
-5.55

> <JCHEM_MDDR_LIKE_RULE>
1

> <JCHEM_NUMBER_OF_RINGS>
4

> <JCHEM_PHYSIOLOGICAL_CHARGE>
0

> <JCHEM_PKA>
13.696502453083031

> <JCHEM_PKA_STRONGEST_ACIDIC>
11.5671079912574

> <JCHEM_PKA_STRONGEST_BASIC>
3.720988344055917

> <JCHEM_POLAR_SURFACE_AREA>
81.75

> <JCHEM_REFRACTIVITY>
122.11829999999999

> <JCHEM_ROTATABLE_BOND_COUNT>
6

> <JCHEM_RULE_OF_FIVE>
1

> <ALOGPS_SOLUBILITY>
1.39e-03 g/l

> <JCHEM_TRADITIONAL_IUPAC>
5-chloro-N-[(3S,4S)-4-fluoro-1-({[2-fluoro-4-(2-oxopyridin-1-yl)phenyl]carbamoyl}methyl)pyrrolidin-3-yl]thiophene-2-carboxamide

> <JCHEM_VEBER_RULE>
0

> <DRUGBANK_ID>
DB08143

> <DRUG_GROUPS>
experimental

> <GENERIC_NAME>
5-CHLORO-THIOPHENE-2-CARBOXYLIC ACID ((3S,4S)-4-FLUORO- 1-{[2-FLUORO-4-(2-OXO-2H-PYRIDIN-1-YL)-PHENYLCARBAMOYL]-METHYL}-PYRROLIDIN-3-YL)-AMIDE

$$$$
