REMARK  Name = 15942673
REMARK  4 active torsions:
REMARK  status: ('A' for Active; 'I' for Inactive)
REMARK    1  A    between atoms: C_4  and  C_11
REMARK    2  A    between atoms: C_5  and  C_20
REMARK    3  A    between atoms: C_14  and  O_17
REMARK    4  A    between atoms: C_20  and  C_21
REMARK                            x       y       z     vdW  Elec       q    Type
REMARK                         _______ _______ _______ _____ _____    ______ ____
ROOT
ATOM      1  S   UNL     1      -2.190  -3.642   1.744  0.00  0.00    -0.018 S 
ATOM      2  N   UNL     1      -1.073  -1.286   1.554  0.00  0.00    -0.310 N 
ATOM      3  N   UNL     1      -0.708  -2.627  -0.369  0.00  0.00    -0.272 N 
ATOM      4  C   UNL     1      -0.494  -0.097   0.956  0.00  0.00    +0.120 C 
ATOM      5  C   UNL     1       0.299  -0.461  -0.267  0.00  0.00    +0.048 C 
ATOM      6  C   UNL     1       0.183  -1.656  -0.885  0.00  0.00    +0.032 C 
ATOM      7  C   UNL     1      -1.292  -2.483   0.908  0.00  0.00    +0.139 C 
ATOM      8  C   UNL     1       0.986  -2.035  -2.111  0.00  0.00    +0.047 C 
ATOM      9  C   UNL     1      -0.953  -3.841  -1.170  0.00  0.00    +0.119 C 
ATOM     10  H   UNL     1      -1.330  -1.232   2.502  0.00  0.00    +0.149 HD
ENDROOT
BRANCH   4  11
ATOM     11  C   UNL     1      -1.579   0.884   0.644  0.00  0.00    +0.003 C 
ATOM     12  C   UNL     1      -2.547   0.568  -0.306  0.00  0.00    +0.034 C 
ATOM     13  C   UNL     1      -1.616   2.109   1.304  0.00  0.00    -0.002 C 
ATOM     14  C   UNL     1      -3.559   1.482  -0.597  0.00  0.00    +0.133 C 
ATOM     15  C   UNL     1      -2.628   3.024   1.014  0.00  0.00    +0.003 C 
ATOM     16  C   UNL     1      -3.599   2.711   0.063  0.00  0.00    +0.037 C 
BRANCH  14  17
ATOM     17  O   UNL     1      -4.507   1.177  -1.525  0.00  0.00    -0.506 OA
ATOM     18  H   UNL     1      -4.480   0.352  -1.968  0.00  0.00    +0.292 HD
ENDBRANCH  14  17
ENDBRANCH   4  11
BRANCH   5  20
ATOM     19  O   UNL     1       0.788   1.449  -1.536  0.00  0.00    -0.287 OA
ATOM     20  C   UNL     1       1.199   0.606  -0.749  0.00  0.00    +0.194 C 
BRANCH  20  21
ATOM     21  C   UNL     1       2.592   0.647  -0.245  0.00  0.00    +0.039 C 
ATOM     22  C   UNL     1       3.007  -0.311   0.659  0.00  0.00    +0.003 C 
ATOM     23  C   UNL     1       3.437   1.644  -0.694  0.00  0.00    +0.003 C 
ATOM     24  C   UNL     1       4.318  -0.271   1.134  0.00  0.00    +0.000 C 
ATOM     25  C   UNL     1       4.748   1.683  -0.219  0.00  0.00    +0.000 C 
ATOM     26  C   UNL     1       5.189   0.726   0.695  0.00  0.00    +0.000 C 
ENDBRANCH  20  21
ENDBRANCH   5  20
TORSDOF 4
