REMARK  Name = 20846113
REMARK  4 active torsions:
REMARK  status: ('A' for Active; 'I' for Inactive)
REMARK    1  A    between atoms: C_2  and  C_11
REMARK    2  A    between atoms: C_11  and  C_12
REMARK    3  A    between atoms: C_12  and  N_13
REMARK    4  A    between atoms: C_12  and  O_17
REMARK                            x       y       z     vdW  Elec       q    Type
REMARK                         _______ _______ _______ _____ _____    ______ ____
ROOT
ATOM      1  N   UNL     1      -0.928   2.039   0.017  0.00  0.00    -0.312 N 
ATOM      2  C   UNL     1       0.600   0.508  -0.478  0.00  0.00    -0.006 C 
ATOM      3  C   UNL     1      -0.634  -0.158  -0.236  0.00  0.00    +0.011 C 
ATOM      4  C   UNL     1      -1.576   0.826   0.073  0.00  0.00    +0.048 C 
ATOM      5  C   UNL     1       0.388   1.857  -0.315  0.00  0.00    +0.058 C 
ATOM      6  C   UNL     1      -1.042  -1.506  -0.250  0.00  0.00    +0.001 C 
ATOM      7  C   UNL     1      -2.911   0.527   0.369  0.00  0.00    +0.015 C 
ATOM      8  C   UNL     1      -2.373  -1.820   0.045  0.00  0.00    +0.000 C 
ATOM      9  C   UNL     1      -3.292  -0.818   0.349  0.00  0.00    +0.001 C 
ATOM     10  H   UNL     1      -1.350   2.912   0.192  0.00  0.00    +0.152 HD
ENDROOT
BRANCH   2  11
ATOM     11  C   UNL     1       1.885  -0.125  -0.840  0.00  0.00    +0.034 C 
BRANCH  11  12
ATOM     12  C   UNL     1       2.753  -0.505   0.381  0.00  0.00    +0.055 C 
BRANCH  12  13
ATOM     13  N   UNL     1       3.752  -1.502   0.010  0.00  0.00    +0.398 N 
ATOM     14  H   UNL     1       4.315  -1.739   0.827  0.00  0.00    -0.086 HD
ATOM     15  H   UNL     1       4.355  -1.124  -0.720  0.00  0.00    -0.086 HD
ATOM     16  H   UNL     1       3.284  -2.340  -0.335  0.00  0.00    -0.086 HD
ENDBRANCH  12  13
BRANCH  12  17
ATOM     17  O   UNL     1       3.378   0.676   0.876  0.00  0.00    -0.406 OA
ATOM     18  H   UNL     1       3.928   0.453   1.643  0.00  0.00    +0.207 HD
ENDBRANCH  12  17
ENDBRANCH  11  12
ENDBRANCH   2  11
TORSDOF 4
