11314340
  -OEChem-10051721233D

 49 52  0     1  0  0  0  0  0999 V2000
    1.9867   -2.5275   -0.6428 O   0  0  0  0  0  0  0  0  0  0  0  0
    4.4497   -2.0653   -1.9594 N   0  0  0  0  0  0  0  0  0  0  0  0
   -4.6699    2.8266   -0.5494 N   0  0  0  0  0  0  0  0  0  0  0  0
   -5.5095    1.7898   -0.3613 N   0  0  0  0  0  0  0  0  0  0  0  0
   -0.6689   -3.9427    1.4135 N   0  0  0  0  0  0  0  0  0  0  0  0
    3.9653   -1.1429   -0.9277 C   0  0  1  0  0  0  0  0  0  0  0  0
    4.5214    0.2631   -1.2375 C   0  0  0  0  0  0  0  0  0  0  0  0
    2.4331   -1.1970   -0.9133 C   0  0  0  0  0  0  0  0  0  0  0  0
    4.1455    1.3241   -0.2316 C   0  0  0  0  0  0  0  0  0  0  0  0
   -3.3293    1.1671   -0.2215 C   0  0  0  0  0  0  0  0  0  0  0  0
   -2.5344   -0.9572    0.1888 C   0  0  0  0  0  0  0  0  0  0  0  0
   -4.7043    0.7331   -0.1530 C   0  0  0  0  0  0  0  0  0  0  0  0
   -2.1917    0.3861   -0.0623 C   0  0  0  0  0  0  0  0  0  0  0  0
   -1.4583   -1.9118    0.3804 C   0  0  0  0  0  0  0  0  0  0  0  0
   -3.3450    2.5092   -0.4761 C   0  0  0  0  0  0  0  0  0  0  0  0
    0.7784   -2.6676   -0.0442 C   0  0  0  0  0  0  0  0  0  0  0  0
   -3.8800   -1.4366    0.2660 C   0  0  0  0  0  0  0  0  0  0  0  0
   -5.0168   -0.6153    0.0992 C   0  0  0  0  0  0  0  0  0  0  0  0
   -0.2341   -1.7364   -0.2470 C   0  0  0  0  0  0  0  0  0  0  0  0
    2.9824    2.0546   -0.4170 C   0  0  0  0  0  0  0  0  0  0  0  0
    4.9705    1.5491    0.8590 C   0  0  0  0  0  0  0  0  0  0  0  0
   -2.2893    3.5195   -0.6585 C   0  0  0  0  0  0  0  0  0  0  0  0
   -1.6289   -3.0168    1.1924 C   0  0  0  0  0  0  0  0  0  0  0  0
    0.5130   -3.7433    0.7879 C   0  0  0  0  0  0  0  0  0  0  0  0
    2.6353    3.0353    0.5123 C   0  0  0  0  0  0  0  0  0  0  0  0
    4.6235    2.5297    1.7883 C   0  0  0  0  0  0  0  0  0  0  0  0
    3.4558    3.2729    1.6149 C   0  0  0  0  0  0  0  0  0  0  0  0
    4.3471   -1.4926    0.0390 H   0  0  0  0  0  0  0  0  0  0  0  0
    5.6176    0.2172   -1.3050 H   0  0  0  0  0  0  0  0  0  0  0  0
    4.1891    0.5885   -2.2337 H   0  0  0  0  0  0  0  0  0  0  0  0
    2.0755   -0.5231   -0.1265 H   0  0  0  0  0  0  0  0  0  0  0  0
    2.0264   -0.8726   -1.8795 H   0  0  0  0  0  0  0  0  0  0  0  0
   -1.1871    0.7831   -0.0993 H   0  0  0  0  0  0  0  0  0  0  0  0
    4.1018   -1.7761   -2.8731 H   0  0  0  0  0  0  0  0  0  0  0  0
    4.0641   -2.9945   -1.7934 H   0  0  0  0  0  0  0  0  0  0  0  0
   -4.0881   -2.4942    0.4256 H   0  0  0  0  0  0  0  0  0  0  0  0
   -6.0268   -0.9994    0.1532 H   0  0  0  0  0  0  0  0  0  0  0  0
   -0.0806   -0.9145   -0.9392 H   0  0  0  0  0  0  0  0  0  0  0  0
    2.3371    1.8804   -1.2732 H   0  0  0  0  0  0  0  0  0  0  0  0
    5.8805    0.9739    1.0039 H   0  0  0  0  0  0  0  0  0  0  0  0
   -5.0774    3.7362   -0.7262 H   0  0  0  0  0  0  0  0  0  0  0  0
   -1.6475    3.2557   -1.5053 H   0  0  0  0  0  0  0  0  0  0  0  0
   -2.7048    4.5142   -0.8508 H   0  0  0  0  0  0  0  0  0  0  0  0
   -1.6628    3.5864    0.2369 H   0  0  0  0  0  0  0  0  0  0  0  0
   -2.5387   -3.2137    1.7500 H   0  0  0  0  0  0  0  0  0  0  0  0
    1.2662   -4.5004    0.9818 H   0  0  0  0  0  0  0  0  0  0  0  0
    1.7259    3.6136    0.3772 H   0  0  0  0  0  0  0  0  0  0  0  0
    5.2619    2.7142    2.6474 H   0  0  0  0  0  0  0  0  0  0  0  0
    3.1853    4.0362    2.3386 H   0  0  0  0  0  0  0  0  0  0  0  0
  1  8  1  0  0  0  0
  1 16  1  0  0  0  0
  2  6  1  0  0  0  0
  2 34  1  0  0  0  0
  2 35  1  0  0  0  0
  3  4  1  0  0  0  0
  3 15  1  0  0  0  0
  3 41  1  0  0  0  0
  4 12  2  0  0  0  0
  5 23  2  0  0  0  0
  5 24  1  0  0  0  0
  6  7  1  0  0  0  0
  6  8  1  0  0  0  0
  6 28  1  0  0  0  0
  7  9  1  0  0  0  0
  7 29  1  0  0  0  0
  7 30  1  0  0  0  0
  8 31  1  0  0  0  0
  8 32  1  0  0  0  0
  9 20  2  0  0  0  0
  9 21  1  0  0  0  0
 10 12  1  0  0  0  0
 10 13  1  0  0  0  0
 10 15  2  0  0  0  0
 11 13  2  0  0  0  0
 11 14  1  0  0  0  0
 11 17  1  0  0  0  0
 12 18  1  0  0  0  0
 13 33  1  0  0  0  0
 14 19  2  0  0  0  0
 14 23  1  0  0  0  0
 15 22  1  0  0  0  0
 16 19  1  0  0  0  0
 16 24  2  0  0  0  0
 17 18  2  0  0  0  0
 17 36  1  0  0  0  0
 18 37  1  0  0  0  0
 19 38  1  0  0  0  0
 20 25  1  0  0  0  0
 20 39  1  0  0  0  0
 21 26  2  0  0  0  0
 21 40  1  0  0  0  0
 22 42  1  0  0  0  0
 22 43  1  0  0  0  0
 22 44  1  0  0  0  0
 23 45  1  0  0  0  0
 24 46  1  0  0  0  0
 25 27  2  0  0  0  0
 25 47  1  0  0  0  0
 26 27  1  0  0  0  0
 26 48  1  0  0  0  0
 27 49  1  0  0  0  0
M  END
> <DATABASE_ID>
DB08568

> <DATABASE_NAME>
drugbank

> <ORIGINAL_SOURCE>
PUBCHEM

> <ORIGINAL_SOURCE_URL>
https://pubchem.ncbi.nlm.nih.gov/rest/pug/compound/inchikey/BPNUQXPIQBZCMR-IBGZPJMESA-N/SDF?record_type=3d

> <SMILES>
[H][C@@](N)(COC1=CC(=CN=C1)C1=CC=C2NN=C(C)C2=C1)CC1=CC=CC=C1

> <INCHI_IDENTIFIER>
InChI=1S/C22H22N4O/c1-15-21-11-17(7-8-22(21)26-25-15)18-10-20(13-24-12-18)27-14-19(23)9-16-5-3-2-4-6-16/h2-8,10-13,19H,9,14,23H2,1H3,(H,25,26)/t19-/m0/s1

> <INCHI_KEY>
BPNUQXPIQBZCMR-IBGZPJMESA-N

> <FORMULA>
C22H22N4O

> <MOLECULAR_WEIGHT>
358.4363

> <EXACT_MASS>
358.179361346

> <JCHEM_ACCEPTOR_COUNT>
4

> <JCHEM_AVERAGE_POLARIZABILITY>
40.40749548418759

> <JCHEM_BIOAVAILABILITY>
1

> <JCHEM_DONOR_COUNT>
2

> <JCHEM_FORMAL_CHARGE>
0

> <JCHEM_GHOSE_FILTER>
1

> <JCHEM_IUPAC>
(2S)-1-{[5-(3-methyl-1H-indazol-5-yl)pyridin-3-yl]oxy}-3-phenylpropan-2-amine

> <ALOGPS_LOGP>
3.39

> <JCHEM_LOGP>
2.9754771103333324

> <ALOGPS_LOGS>
-5.43

> <JCHEM_MDDR_LIKE_RULE>
1

> <JCHEM_NUMBER_OF_RINGS>
4

> <JCHEM_PHYSIOLOGICAL_CHARGE>
1

> <JCHEM_PKA_STRONGEST_ACIDIC>
14.173014537899384

> <JCHEM_PKA_STRONGEST_BASIC>
9.285642039559258

> <JCHEM_POLAR_SURFACE_AREA>
76.82

> <JCHEM_REFRACTIVITY>
107.0947

> <JCHEM_ROTATABLE_BOND_COUNT>
6

> <JCHEM_RULE_OF_FIVE>
1

> <ALOGPS_SOLUBILITY>
1.35e-03 g/l

> <JCHEM_TRADITIONAL_IUPAC>
(2S)-1-{[5-(3-methyl-1H-indazol-5-yl)pyridin-3-yl]oxy}-3-phenylpropan-2-amine

> <JCHEM_VEBER_RULE>
0

> <DRUGBANK_ID>
DB08568

> <DRUG_GROUPS>
experimental

> <GENERIC_NAME>
(2S)-1-{[5-(3-METHYL-1H-INDAZOL-5-YL)PYRIDIN-3-YL]OXY}-3-PHENYLPROPAN-2-AMINE

$$$$
