REMARK  Name = 439530
REMARK  10 active torsions:
REMARK  status: ('A' for Active; 'I' for Inactive)
REMARK    1  A    between atoms: C_2  and  N_19
REMARK    2  A    between atoms: C_3  and  O_36
REMARK    3  A    between atoms: C_4  and  C_38
REMARK    4  A    between atoms: C_5  and  N_6
REMARK    5  A    between atoms: C_20  and  C_22
REMARK    6  A    between atoms: C_22  and  N_23
REMARK    7  A    between atoms: C_22  and  C_27
REMARK    8  A    between atoms: C_27  and  C_28
REMARK    9  A    between atoms: C_33  and  O_34
REMARK   10  A    between atoms: C_38  and  O_39
REMARK                            x       y       z     vdW  Elec       q    Type
REMARK                         _______ _______ _______ _____ _____    ______ ____
ROOT
ATOM      1  O   UNL     1       0.090  -0.709  -0.896  0.00  0.00    -0.334 OA
ATOM      2  C   UNL     1      -0.905   1.395  -1.438  0.00  0.00    +0.132 C 
ATOM      3  C   UNL     1       0.565   1.603  -1.114  0.00  0.00    +0.178 C 
ATOM      4  C   UNL     1      -0.978  -0.115  -1.665  0.00  0.00    +0.167 C 
ATOM      5  C   UNL     1       0.897   0.341  -0.331  0.00  0.00    +0.224 C 
ENDROOT
BRANCH   5   6
ATOM      6  N   UNL     1       2.306  -0.042  -0.385  0.00  0.00    -0.247 N 
ATOM      7  N   UNL     1       4.183  -0.981  -1.138  0.00  0.00    -0.242 NA
ATOM      8  N   UNL     1       3.149   1.018   1.631  0.00  0.00    -0.228 NA
ATOM      9  N   UNL     1       6.814  -0.687   0.358  0.00  0.00    -0.289 N 
ATOM     10  N   UNL     1       5.538   0.607   1.916  0.00  0.00    -0.228 NA
ATOM     11  C   UNL     1       3.279   0.284   0.516  0.00  0.00    +0.152 C 
ATOM     12  C   UNL     1       2.897  -0.803  -1.359  0.00  0.00    +0.223 C 
ATOM     13  C   UNL     1       4.435  -0.307   0.031  0.00  0.00    +0.140 C 
ATOM     14  C   UNL     1       5.596  -0.124   0.777  0.00  0.00    +0.149 C 
ATOM     15  C   UNL     1       4.336   1.124   2.267  0.00  0.00    +0.253 C 
ATOM     16  C   UNL     1       6.885  -1.470  -0.862  0.00  0.00    +0.114 C 
ATOM     17  C   UNL     1       8.026  -0.483   1.131  0.00  0.00    +0.114 C 
ENDBRANCH   5   6
BRANCH   2  19
ATOM     18  O   UNL     1      -3.615   2.284  -1.665  0.00  0.00    -0.277 OA
ATOM     19  N   UNL     1      -1.773   1.784  -0.349  0.00  0.00    -0.303 N 
ATOM     20  C   UNL     1      -3.077   2.202  -0.562  0.00  0.00    +0.202 C 
ATOM     21  H   UNL     1      -1.428   1.751   0.572  0.00  0.00    +0.149 HD
BRANCH  20  22
ATOM     22  C   UNL     1      -3.803   2.533   0.738  0.00  0.00    +0.017 C 
BRANCH  22  23
ATOM     23  N   UNL     1      -4.167   3.949   0.669  0.00  0.00    +0.388 N 
ATOM     24  H   UNL     1      -3.322   4.512   0.570  0.00  0.00    -0.089 HD
ATOM     25  H   UNL     1      -4.655   4.216   1.524  0.00  0.00    -0.089 HD
ATOM     26  H   UNL     1      -4.776   4.105  -0.134  0.00  0.00    -0.089 HD
ENDBRANCH  22  23
BRANCH  22  27
ATOM     27  C   UNL     1      -5.068   1.675   0.888  0.00  0.00    +0.013 C 
BRANCH  27  28
ATOM     28  C   UNL     1      -4.767   0.198   0.977  0.00  0.00    -0.024 C 
ATOM     29  C   UNL     1      -4.709  -0.575  -0.183  0.00  0.00    -0.001 C 
ATOM     30  C   UNL     1      -4.546  -0.395   2.220  0.00  0.00    -0.001 C 
ATOM     31  C   UNL     1      -4.431  -1.939  -0.100  0.00  0.00    +0.037 C 
ATOM     32  C   UNL     1      -4.268  -1.759   2.304  0.00  0.00    +0.037 C 
ATOM     33  C   UNL     1      -4.210  -2.531   1.143  0.00  0.00    +0.139 C 
BRANCH  33  34
ATOM     34  O   UNL     1      -3.938  -3.862   1.224  0.00  0.00    -0.471 OA
ATOM     35  C   UNL     1      -3.894  -4.591  -0.001  0.00  0.00    +0.252 C 
ENDBRANCH  33  34
ENDBRANCH  27  28
ENDBRANCH  22  27
ENDBRANCH  20  22
ENDBRANCH   2  19
BRANCH   3  36
ATOM     36  O   UNL     1       0.801   2.785  -0.378  0.00  0.00    -0.379 OA
ATOM     37  H   UNL     1       0.573   3.556  -0.922  0.00  0.00    +0.211 HD
ENDBRANCH   3  36
BRANCH   4  38
ATOM     38  C   UNL     1      -0.788  -0.499  -3.127  0.00  0.00    +0.168 C 
BRANCH  38  39
ATOM     39  O   UNL     1      -0.860  -1.909  -3.238  0.00  0.00    -0.379 OA
ATOM     40  H   UNL     1      -0.741  -2.167  -4.165  0.00  0.00    +0.211 HD
ENDBRANCH  38  39
ENDBRANCH   4  38
TORSDOF 10
