REMARK  Name = 13582275
REMARK  1 active torsions:
REMARK  status: ('A' for Active; 'I' for Inactive)
REMARK    1  A    between atoms: C_4  and  C_13
REMARK                            x       y       z     vdW  Elec       q    Type
REMARK                         _______ _______ _______ _____ _____    ______ ____
ROOT
ATOM      1  N   UNL     1      -1.359   0.859   0.000  0.00  0.00    -0.335 NA
ATOM      2  N   UNL     1      -3.175  -0.725   0.000  0.00  0.00    -0.170 NA
ATOM      3  N   UNL     1      -3.590   1.584   0.000  0.00  0.00    -0.293 N 
ATOM      4  C   UNL     1      -0.501  -0.182  -0.001  0.00  0.00    +0.172 C 
ATOM      5  C   UNL     1      -0.898  -1.504   0.000  0.00  0.00    +0.057 C 
ATOM      6  C   UNL     1      -2.663   0.520   0.000  0.00  0.00    +0.141 C 
ATOM      7  C   UNL     1      -2.261  -1.718   0.000  0.00  0.00    +0.114 C 
ATOM      8  H   UNL     1      -3.271   2.515   0.000  0.00  0.00    +0.155 HD
ATOM      9  H   UNL     1      -4.556   1.395   0.000  0.00  0.00    +0.155 HD
ENDROOT
BRANCH   4  13
ATOM     10  S   UNL     1       3.053   1.486   0.001  0.00  0.00    -0.060 S 
ATOM     11  N   UNL     1       1.874  -0.815   0.000  0.00  0.00    -0.382 NA
ATOM     12  N   UNL     1       4.237  -0.895   0.000  0.00  0.00    -0.328 N 
ATOM     13  C   UNL     1       0.893   0.158   0.000  0.00  0.00    +0.153 C 
ATOM     14  C   UNL     1       1.338   1.463  -0.001  0.00  0.00    +0.127 C 
ATOM     15  C   UNL     1       3.051  -0.230   0.000  0.00  0.00    +0.204 C 
ATOM     16  H   UNL     1       5.084  -0.393   0.000  0.00  0.00    +0.145 HD
ATOM     17  H   UNL     1       4.249  -1.880   0.000  0.00  0.00    +0.145 HD
ENDBRANCH   4  13
TORSDOF 1
