REMARK  Name = 91514
REMARK  4 active torsions:
REMARK  status: ('A' for Active; 'I' for Inactive)
REMARK    1  A    between atoms: N_2  and  CA_11
REMARK    2  A    between atoms: C_3  and  C_5
REMARK    3  A    between atoms: CA_11  and  C_14
REMARK    4  A    between atoms: C_14  and  O_15
REMARK                            x       y       z     vdW  Elec       q    Type
REMARK                         _______ _______ _______ _____ _____    ______ ____
ROOT
ATOM      1  O   UNL     1       0.000   2.110  -0.245  0.00  0.00    -0.270 OA
ATOM      2  N   UNL     1      -0.953   0.035   0.166  0.00  0.00    -0.293 N 
ATOM      3  C   ACE A   0       0.112   0.905  -0.034  0.00  0.00    +0.246 C 
ATOM      4  H   UNL     1      -0.761  -0.917   0.329  0.00  0.00    +0.150 HD
ENDROOT
BRANCH   3   5
ATOM      5  C   UNL     1       1.466   0.294  -0.010  0.00  0.00    +0.053 C 
ATOM      6  C   UNL     1       2.482   0.899  -0.721  0.00  0.00    +0.005 C 
ATOM      7  C   UNL     1       1.665  -0.857   0.724  0.00  0.00    +0.005 C 
ATOM      8  C   UNL     1       3.753   0.326  -0.698  0.00  0.00    +0.000 C 
ATOM      9  C   UNL     1       2.937  -1.429   0.747  0.00  0.00    +0.000 C 
ATOM     10  C   UNL     1       3.981  -0.838   0.036  0.00  0.00    +0.000 C 
ENDBRANCH   3   5
BRANCH   2  11
ATOM     11  CA  UNL     1      -2.325   0.471   0.147  0.00  0.00    +0.172 C 
ATOM     12  CB  UNL     1      -2.766   0.890   1.541  0.00  0.00    +0.033 C 
BRANCH  11  14
ATOM     13  OXT UNL     1      -4.453  -0.424  -0.568  0.00  0.00    -0.248 OA
ATOM     14  C   UNL     1      -3.251  -0.602  -0.401  0.00  0.00    +0.332 C 
BRANCH  14  15
ATOM     15  O   UNL     1      -2.648  -1.781  -0.683  0.00  0.00    -0.479 OA
ATOM     16  H   UNL     1      -1.727  -1.882  -0.544  0.00  0.00    +0.295 HD
ENDBRANCH  14  15
ENDBRANCH  11  14
ENDBRANCH   2  11
TORSDOF 4
