REMARK  Name = 24864821
REMARK  5 active torsions:
REMARK  status: ('A' for Active; 'I' for Inactive)
REMARK    1  A    between atoms: C_5  and  C_16
REMARK    2  A    between atoms: C_7  and  C_10
REMARK    3  A    between atoms: C_16  and  O_17
REMARK    4  A    between atoms: O_17  and  C_20
REMARK    5  A    between atoms: C_25  and  O_28
REMARK                            x       y       z     vdW  Elec       q    Type
REMARK                         _______ _______ _______ _____ _____    ______ ____
ROOT
ATOM      1  N   UNL     1      -2.500   1.275   0.023  0.00  0.00    -0.191 N 
ATOM      2  N   UNL     1      -1.786   0.177  -0.330  0.00  0.00    -0.163 NA
ATOM      3  N   UNL     1      -3.061   3.366   0.363  0.00  0.00    -0.128 NA
ATOM      4  N   UNL     1      -4.118   2.568   0.750  0.00  0.00    -0.127 NA
ATOM      5  C   UNL     1      -2.103   2.577  -0.068  0.00  0.00    +0.208 A 
ATOM      6  C   UNL     1      -3.773   1.316   0.542  0.00  0.00    +0.186 A 
ATOM      7  C   UNL     1      -2.421  -0.946  -0.142  0.00  0.00    +0.101 C 
ATOM      8  C   UNL     1      -4.427   0.086   0.751  0.00  0.00    +0.042 C 
ATOM      9  C   UNL     1      -3.801  -1.054   0.431  0.00  0.00    +0.024 C 
ENDROOT
BRANCH   7  10
ATOM     10  C   UNL     1      -1.745  -2.222  -0.495  0.00  0.00    +0.019 C 
ATOM     11  C   UNL     1      -2.034  -3.385   0.218  0.00  0.00    +0.002 C 
ATOM     12  C   UNL     1      -0.823  -2.256  -1.541  0.00  0.00    +0.002 C 
ATOM     13  C   UNL     1      -1.401  -4.582  -0.115  0.00  0.00    +0.000 C 
ATOM     14  C   UNL     1      -0.190  -3.453  -1.874  0.00  0.00    +0.000 C 
ATOM     15  C   UNL     1      -0.478  -4.617  -1.161  0.00  0.00    +0.000 C 
ENDBRANCH   7  10
BRANCH   5  16
ATOM     16  C   UNL     1      -0.759   2.990  -0.593  0.00  0.00    +0.272 C 
BRANCH  16  17
ATOM     17  O   UNL     1       0.230   2.721   0.399  0.00  0.00    -0.467 OA
BRANCH  17  20
ATOM     18  N   UNL     1       4.066   1.963  -0.980  0.00  0.00    -0.248 NA
ATOM     19  C   UNL     1       2.122   1.231   0.240  0.00  0.00    +0.030 C 
ATOM     20  C   UNL     1       1.491   2.450  -0.044  0.00  0.00    +0.138 C 
ATOM     21  C   UNL     1       3.427   1.027  -0.254  0.00  0.00    +0.066 C 
ATOM     22  C   UNL     1       1.485   0.231   0.995  0.00  0.00    +0.059 C 
ATOM     23  C   UNL     1       4.053  -0.184   0.029  0.00  0.00    +0.109 C 
ATOM     24  C   UNL     1       2.147   3.417  -0.792  0.00  0.00    +0.057 C 
ATOM     25  C   UNL     1       3.420  -1.178   0.779  0.00  0.00    +0.118 C 
ATOM     26  C   UNL     1       2.134  -0.970   1.263  0.00  0.00    +0.011 C 
ATOM     27  C   UNL     1       3.423   3.126  -1.233  0.00  0.00    +0.102 C 
BRANCH  25  28
ATOM     28  O   UNL     1       4.063  -2.350   1.034  0.00  0.00    -0.476 OA
ATOM     29  C   UNL     1       3.358  -3.323   1.805  0.00  0.00    +0.252 C 
ENDBRANCH  25  28
ENDBRANCH  17  20
ENDBRANCH  16  17
ENDBRANCH   5  16
TORSDOF 5
