REMARK  Name = 46937137
REMARK  13 active torsions:
REMARK  status: ('A' for Active; 'I' for Inactive)
REMARK    1  A    between atoms: C_1  and  C_2
REMARK    2  A    between atoms: C_1  and  C_23
REMARK    3  A    between atoms: C_1  and  N_24
REMARK    4  A    between atoms: C_5  and  C_8
REMARK    5  A    between atoms: C_11  and  S_14
REMARK    6  A    between atoms: S_14  and  N_17
REMARK    7  A    between atoms: N_24  and  C_27
REMARK    8  A    between atoms: C_27  and  C_30
REMARK    9  A    between atoms: C_27  and  C_38
REMARK   10  A    between atoms: N_29  and  C_32
REMARK   11  A    between atoms: C_32  and  C_33
REMARK   12  A    between atoms: C_33  and  N_34
REMARK   13  A    between atoms: C_38  and  C_39
REMARK                            x       y       z     vdW  Elec       q    Type
REMARK                         _______ _______ _______ _____ _____    ______ ____
ROOT
ATOM      1  C   UNL     1      -2.451  -1.974   0.150  0.00  0.00    +0.059 C 
ENDROOT
BRANCH   1   2
ATOM      2  C   UNL     1      -0.990  -1.569   0.104  0.00  0.00    -0.034 C 
ATOM      3  C   UNL     1      -0.305  -1.295   1.288  0.00  0.00    -0.006 C 
ATOM      4  C   UNL     1      -0.331  -1.472  -1.121  0.00  0.00    -0.006 C 
ATOM      5  C   UNL     1       1.698  -0.826   0.021  0.00  0.00    -0.000 C 
ATOM      6  C   UNL     1       1.038  -0.924   1.247  0.00  0.00    -0.000 C 
ATOM      7  C   UNL     1       1.012  -1.100  -1.163  0.00  0.00    -0.000 C 
BRANCH   5   8
ATOM      8  C   UNL     1       3.091  -0.440  -0.022  0.00  0.00    +0.000 C 
ATOM      9  C   UNL     1       3.613   0.403   0.959  0.00  0.00    +0.001 C 
ATOM     10  C   UNL     1       3.914  -0.911  -1.046  0.00  0.00    +0.001 C 
ATOM     11  C   UNL     1       5.779   0.305  -0.107  0.00  0.00    +0.122 C 
ATOM     12  C   UNL     1       4.956   0.775   0.917  0.00  0.00    +0.020 C 
ATOM     13  C   UNL     1       5.258  -0.538  -1.088  0.00  0.00    +0.020 C 
BRANCH  11  14
ATOM     14  S   UNL     1       7.460   0.771  -0.160  0.00  0.00    +0.057 S 
ATOM     15  O   UNL     1       7.882   1.126   1.188  0.00  0.00    -0.153 OA
ATOM     16  O   UNL     1       8.197  -0.241  -0.904  0.00  0.00    -0.153 OA
BRANCH  14  17
ATOM     17  N   UNL     1       7.375   2.192  -1.104  0.00  0.00    -0.203 NA
ATOM     18  H   UNL     1       8.311   2.581  -1.218  0.00  0.00    +0.144 HD
ATOM     19  H   UNL     1       6.778   2.875  -0.637  0.00  0.00    +0.144 HD
ENDBRANCH  14  17
ENDBRANCH  11  14
ENDBRANCH   5   8
ENDBRANCH   1   2
BRANCH   1  23
ATOM     20  F   UNL     1      -1.973  -4.286   0.349  0.00  0.00    -0.172 F 
ATOM     21  F   UNL     1      -2.251  -3.165   2.194  0.00  0.00    -0.172 F 
ATOM     22  F   UNL     1      -3.972  -3.644   0.939  0.00  0.00    -0.172 F 
ATOM     23  C   UNL     1      -2.674  -3.274   0.914  0.00  0.00    +0.384 C 
ENDBRANCH   1  23
BRANCH   1  24
ATOM     24  N   UNL     1      -3.284  -0.913   0.692  0.00  0.00    +0.400 N 
ATOM     25  H   UNL     1      -4.164  -1.313   1.020  0.00  0.00    -0.083 HD
ATOM     26  H   UNL     1      -2.789  -0.469   1.465  0.00  0.00    -0.083 HD
BRANCH  24  27
ATOM     27  C   UNL     1      -3.566   0.097  -0.331  0.00  0.00    +0.018 C 
BRANCH  27  30
ATOM     28  O   UNL     1      -5.140   1.628   0.683  0.00  0.00    -0.277 OA
ATOM     29  N   UNL     1      -2.874   2.111   0.825  0.00  0.00    -0.308 N 
ATOM     30  C   UNL     1      -3.968   1.354   0.433  0.00  0.00    +0.202 C 
ATOM     31  H   UNL     1      -1.974   1.803   0.572  0.00  0.00    +0.149 HD
BRANCH  29  32
ATOM     32  C   UNL     1      -2.995   3.333   1.587  0.00  0.00    +0.066 C 
BRANCH  32  33
ATOM     33  C   UNL     1      -3.124   4.542   0.673  0.00  0.00    -0.065 C 
BRANCH  33  34
ATOM     34  N   UNL     1      -3.235   5.763   1.462  0.00  0.00    +0.382 N 
ATOM     35  H   UNL     1      -3.321   6.564   0.837  0.00  0.00    -0.089 HD
ATOM     36  H   UNL     1      -2.402   5.871   2.040  0.00  0.00    -0.089 HD
ATOM     37  H   UNL     1      -4.060   5.708   2.060  0.00  0.00    -0.089 HD
ENDBRANCH  33  34
ENDBRANCH  32  33
ENDBRANCH  29  32
ENDBRANCH  27  30
BRANCH  27  38
ATOM     38  C   UNL     1      -4.678  -0.398  -1.270  0.00  0.00    -0.012 C 
BRANCH  38  39
ATOM     39  C   UNL     1      -4.804   0.397  -2.587  0.00  0.00    -0.002 C 
ATOM     40  C   UNL     1      -3.492   0.309  -3.371  0.00  0.00    -0.000 C 
ATOM     41  C   UNL     1      -5.166   1.865  -2.353  0.00  0.00    -0.000 C 
ENDBRANCH  38  39
ENDBRANCH  27  38
ENDBRANCH  24  27
ENDBRANCH   1  24
TORSDOF 13
