REMARK  Name = 5312137
REMARK  3 active torsions:
REMARK  status: ('A' for Active; 'I' for Inactive)
REMARK    1  A    between atoms: C_3  and  C_20
REMARK    2  A    between atoms: C_7  and  S_23
REMARK    3  A    between atoms: S_23  and  N_26
REMARK                            x       y       z     vdW  Elec       q    Type
REMARK                         _______ _______ _______ _____ _____    ______ ____
ROOT
ATOM      1  O   UNL     1       1.889  -2.213  -0.482  0.00  0.00    -0.270 OA
ATOM      2  N   UNL     1      -0.426  -2.668  -0.600  0.00  0.00    -0.280 N 
ATOM      3  C   UNL     1       0.980   0.443   0.508  0.00  0.00    +0.019 C 
ATOM      4  C   UNL     1       0.185  -0.593   0.146  0.00  0.00    +0.056 C 
ATOM      5  C   UNL     1      -1.272  -0.666   0.150  0.00  0.00    +0.019 C 
ATOM      6  C   UNL     1      -1.590  -1.946  -0.312  0.00  0.00    +0.051 C 
ATOM      7  C   UNL     1      -3.597  -0.194   0.370  0.00  0.00    +0.122 C 
ATOM      8  C   UNL     1      -2.268   0.227   0.496  0.00  0.00    +0.021 C 
ATOM      9  C   UNL     1       0.719  -1.907  -0.346  0.00  0.00    +0.250 C 
ATOM     10  C   UNL     1      -2.893  -2.382  -0.444  0.00  0.00    +0.016 C 
ATOM     11  C   UNL     1      -3.906  -1.486  -0.096  0.00  0.00    +0.021 C 
ATOM     12  H   UNL     1      -0.415  -3.593  -0.938  0.00  0.00    +0.155 HD
ENDROOT
BRANCH   3  20
ATOM     13  N   UNL     1       3.005   0.896  -0.658  0.00  0.00    -0.316 N 
ATOM     14  C   UNL     1       4.359   0.819  -0.486  0.00  0.00    +0.021 C 
ATOM     15  C   UNL     1       4.611   0.308   0.771  0.00  0.00    -0.012 C 
ATOM     16  C   UNL     1       5.375   1.193  -1.504  0.00  0.00    +0.041 C 
ATOM     17  C   UNL     1       5.991   0.107   1.291  0.00  0.00    +0.027 C 
ATOM     18  C   UNL     1       6.761   1.299  -0.838  0.00  0.00    +0.006 C 
ATOM     19  C   UNL     1       7.025   0.144   0.148  0.00  0.00    +0.005 C 
ATOM     20  C   UNL     1       2.383   0.444   0.479  0.00  0.00    +0.048 C 
ATOM     21  C   UNL     1       3.356   0.074   1.384  0.00  0.00    +0.011 C 
ATOM     22  H   UNL     1       2.550   1.223  -1.468  0.00  0.00    +0.152 HD
ENDBRANCH   3  20
BRANCH   7  23
ATOM     23  S   UNL     1      -4.892   0.900   0.796  0.00  0.00    +0.063 S 
ATOM     24  O   UNL     1      -6.059   0.102   1.157  0.00  0.00    -0.153 OA
ATOM     25  O   UNL     1      -4.376   1.858   1.766  0.00  0.00    -0.153 OA
BRANCH  23  26
ATOM     26  N   UNL     1      -5.220   1.727  -0.688  0.00  0.00    -0.153 NA
ATOM     27  C   UNL     1      -4.113   2.506  -1.299  0.00  0.00    +0.115 C 
ATOM     28  C   UNL     1      -6.027   1.012  -1.709  0.00  0.00    +0.115 C 
ENDBRANCH  23  26
ENDBRANCH   7  23
TORSDOF 3
