REMARK  Name = 24875319
REMARK  4 active torsions:
REMARK  status: ('A' for Active; 'I' for Inactive)
REMARK    1  A    between atoms: C_3  and  C_16
REMARK    2  A    between atoms: C_5  and  O_9
REMARK    3  A    between atoms: O_9  and  C_10
REMARK    4  A    between atoms: C_16  and  C_20
REMARK                            x       y       z     vdW  Elec       q    Type
REMARK                         _______ _______ _______ _____ _____    ______ ____
ROOT
ATOM      1 CL   UNL     1       3.183  -2.846  -1.589  0.00  0.00    -0.079 Cl
ATOM      2  F   UNL     1       0.622   0.007   1.755  0.00  0.00    -0.201 F 
ATOM      3  C   UNL     1      -0.543  -1.785   0.729  0.00  0.00    +0.014 C 
ATOM      4  C   UNL     1       0.616  -1.029   0.903  0.00  0.00    +0.172 C 
ATOM      5  C   UNL     1       1.772  -1.350   0.192  0.00  0.00    +0.183 C 
ATOM      6  C   UNL     1      -0.547  -2.861  -0.158  0.00  0.00    -0.001 C 
ATOM      7  C   UNL     1       1.768  -2.427  -0.695  0.00  0.00    +0.094 C 
ATOM      8  C   UNL     1       0.609  -3.183  -0.870  0.00  0.00    +0.014 C 
ENDROOT
BRANCH   5   9
ATOM      9  O   UNL     1       2.891  -0.596   0.381  0.00  0.00    -0.450 OA
BRANCH   9  10
ATOM     10  C   UNL     1       2.812   0.754   0.089  0.00  0.00    +0.145 C 
ATOM     11  C   UNL     1       2.198   1.178  -1.090  0.00  0.00    +0.037 C 
ATOM     12  C   UNL     1       3.346   1.692   0.973  0.00  0.00    +0.037 C 
ATOM     13  C   UNL     1       2.118   2.539  -1.384  0.00  0.00    +0.003 C 
ATOM     14  C   UNL     1       3.266   3.053   0.679  0.00  0.00    +0.003 C 
ATOM     15  C   UNL     1       2.652   3.477  -0.500  0.00  0.00    +0.000 C 
ENDBRANCH   9  10
ENDBRANCH   5   9
BRANCH   3  16
ATOM     16  C   UNL     1      -1.786  -1.443   1.490  0.00  0.00    +0.076 C 
BRANCH  16  20
ATOM     17  O   UNL     1      -4.846   2.121  -1.318  0.00  0.00    -0.268 OA
ATOM     18  N   UNL     1      -3.323  -0.913  -0.279  0.00  0.00    -0.183 NA
ATOM     19  N   UNL     1      -4.074  -0.014  -0.962  0.00  0.00    -0.203 N 
ATOM     20  C   UNL     1      -2.629  -0.461   0.716  0.00  0.00    +0.081 C 
ATOM     21  C   UNL     1      -2.601   0.949   1.153  0.00  0.00    +0.021 C 
ATOM     22  C   UNL     1      -3.349   1.808   0.463  0.00  0.00    +0.061 C 
ATOM     23  C   UNL     1      -4.155   1.329  -0.679  0.00  0.00    +0.265 C 
ATOM     24  H   UNL     1      -4.605  -0.350  -1.720  0.00  0.00    +0.178 HD
ENDBRANCH  16  20
ENDBRANCH   3  16
TORSDOF 4
