REMARK  Name = 5288710
REMARK  3 active torsions:
REMARK  status: ('A' for Active; 'I' for Inactive)
REMARK    1  A    between atoms: C_6  and  N_18
REMARK    2  A    between atoms: C_9  and  C_15
REMARK    3  A    between atoms: N_18  and  C_29
REMARK                            x       y       z     vdW  Elec       q    Type
REMARK                         _______ _______ _______ _____ _____    ______ ____
ROOT
ATOM      1  O   UNL     1       0.633  -4.131   0.025  0.00  0.00    -0.270 OA
ATOM      2  N   UNL     1       2.863  -3.352   0.034  0.00  0.00    -0.280 N 
ATOM      3  C   UNL     1       2.501  -1.081   0.007  0.00  0.00    +0.019 C 
ATOM      4  C   UNL     1       1.213  -1.767   0.004  0.00  0.00    +0.069 C 
ATOM      5  C   UNL     1       3.468  -2.090   0.026  0.00  0.00    +0.051 C 
ATOM      6  C   UNL     1      -0.013  -1.237  -0.013  0.00  0.00    +0.066 C 
ATOM      7  C   UNL     1       1.469  -3.246   0.021  0.00  0.00    +0.251 C 
ATOM      8  C   UNL     1       2.870   0.251  -0.003  0.00  0.00    +0.005 C 
ATOM      9  C   UNL     1       4.236   0.550   0.005  0.00  0.00    +0.036 C 
ATOM     10  C   UNL     1       4.822  -1.817   0.035  0.00  0.00    +0.015 C 
ATOM     11  C   UNL     1       5.203  -0.473   0.024  0.00  0.00    +0.004 C 
ATOM     12  H   UNL     1       3.356  -4.204   0.047  0.00  0.00    +0.155 HD
ENDROOT
BRANCH   9  15
ATOM     13  O   UNL     1       3.673   2.858  -0.023  0.00  0.00    -0.431 OA
ATOM     14  N   UNL     1       5.665   3.930  -0.019  0.00  0.00    -0.203 NA
ATOM     15  C   UNL     1       4.663   1.929  -0.007  0.00  0.00    +0.166 C 
ATOM     16  C   UNL     1       5.866   2.573  -0.004  0.00  0.00    +0.140 C 
ATOM     17  C   UNL     1       4.356   4.036  -0.029  0.00  0.00    +0.285 C 
ENDBRANCH   9  15
BRANCH   6  18
ATOM     18  N   UNL     1      -1.197  -1.886  -0.016  0.00  0.00    -0.311 N 
ATOM     19  H   UNL     1      -1.145  -2.869  -0.004  0.00  0.00    +0.152 HD
BRANCH  18  29
ATOM     20  S   UNL     1      -6.020   2.102   0.070  0.00  0.00    -0.002 S 
ATOM     21  O   UNL     1      -6.330   2.505   1.428  0.00  0.00    -0.172 OA
ATOM     22  O   UNL     1      -6.560   2.808  -1.074  0.00  0.00    -0.172 OA
ATOM     23  C   UNL     1      -4.243   2.035  -0.096  0.00  0.00    +0.177 C 
ATOM     24  C   UNL     1      -6.417   0.369  -0.098  0.00  0.00    +0.177 C 
ATOM     25  C   UNL     1      -3.964   0.571  -0.064  0.00  0.00    +0.000 C 
ATOM     26  C   UNL     1      -5.075  -0.281  -0.065  0.00  0.00    -0.001 C 
ATOM     27  C   UNL     1      -2.675   0.042  -0.050  0.00  0.00    +0.012 C 
ATOM     28  C   UNL     1      -4.899  -1.663  -0.052  0.00  0.00    -0.002 C 
ATOM     29  C   UNL     1      -2.499  -1.342  -0.033  0.00  0.00    +0.048 C 
ATOM     30  C   UNL     1      -3.608  -2.192  -0.034  0.00  0.00    +0.014 C 
ENDBRANCH  18  29
ENDBRANCH   6  18
TORSDOF 3
