REMARK  Name = 447649
REMARK  5 active torsions:
REMARK  status: ('A' for Active; 'I' for Inactive)
REMARK    1  A    between atoms: N_5  and  C_14
REMARK    2  A    between atoms: C_6  and  O_22
REMARK    3  A    between atoms: C_19  and  O_20
REMARK    4  A    between atoms: O_22  and  C_23
REMARK    5  A    between atoms: C_23  and  C_24
REMARK                            x       y       z     vdW  Elec       q    Type
REMARK                         _______ _______ _______ _____ _____    ______ ____
ROOT
ATOM      1  N   UNL     1       0.477  -0.890  -0.067  0.00  0.00    -0.293 NA
ATOM      2  N   UNL     1      -1.798  -3.779  -0.141  0.00  0.00    -0.266 NA
ATOM      3  N   UNL     1       1.597  -3.048   0.131  0.00  0.00    -0.316 NA
ATOM      4  N   UNL     1       0.085  -4.950   0.081  0.00  0.00    -0.296 N 
ATOM      5  N   UNL     1       2.804  -1.044   0.149  0.00  0.00    -0.238 N 
ATOM      6  C   UNL     1      -0.736  -1.480  -0.149  0.00  0.00    +0.288 C 
ATOM      7  C   UNL     1      -0.792  -2.857  -0.092  0.00  0.00    +0.215 C 
ATOM      8  C   UNL     1       0.367  -3.609   0.046  0.00  0.00    +0.196 C 
ATOM      9  C   UNL     1       1.554  -1.700   0.067  0.00  0.00    +0.207 C 
ATOM     10  C   UNL     1      -1.225  -5.018  -0.034  0.00  0.00    +0.164 C 
ATOM     11  H   UNL     1      -2.760  -3.588  -0.236  0.00  0.00    +0.126 HD
ATOM     12  H   UNL     1       0.720  -5.697   0.171  0.00  0.00    +0.150 HD
ATOM     13  H   UNL     1       3.568  -1.657   0.245  0.00  0.00    +0.166 HD
ENDROOT
BRANCH   5  14
ATOM     14  C   UNL     1       3.167   0.314   0.122  0.00  0.00    +0.059 C 
ATOM     15  C   UNL     1       4.409   0.698  -0.390  0.00  0.00    +0.018 C 
ATOM     16  C   UNL     1       2.289   1.286   0.607  0.00  0.00    +0.018 C 
ATOM     17  C   UNL     1       4.770   2.045  -0.416  0.00  0.00    +0.038 C 
ATOM     18  C   UNL     1       2.650   2.633   0.581  0.00  0.00    +0.038 C 
ATOM     19  C   UNL     1       3.890   3.013   0.069  0.00  0.00    +0.134 C 
BRANCH  19  20
ATOM     20  O   UNL     1       4.242   4.327   0.042  0.00  0.00    -0.506 OA
ATOM     21  H   UNL     1       5.075   4.583  -0.302  0.00  0.00    +0.292 HD
ENDBRANCH  19  20
ENDBRANCH   5  14
BRANCH   6  22
ATOM     22  O   UNL     1      -1.850  -0.687  -0.284  0.00  0.00    -0.453 OA
BRANCH  22  23
ATOM     23  C   UNL     1      -1.642   0.712  -0.329  0.00  0.00    +0.208 C 
BRANCH  23  24
ATOM     24  C   UNL     1      -2.999   1.398  -0.476  0.00  0.00    +0.044 C 
ATOM     25  C   UNL     1      -3.915   1.047   0.704  0.00  0.00    +0.004 C 
ATOM     26  C   UNL     1      -2.827   2.918  -0.601  0.00  0.00    +0.004 C 
ATOM     27  C   UNL     1      -5.260   1.764   0.606  0.00  0.00    +0.000 C 
ATOM     28  C   UNL     1      -4.173   3.632  -0.696  0.00  0.00    +0.000 C 
ATOM     29  C   UNL     1      -5.084   3.273   0.474  0.00  0.00    +0.000 C 
ENDBRANCH  23  24
ENDBRANCH  22  23
ENDBRANCH   6  22
TORSDOF 5
