REMARK  Name = 10224714
REMARK  8 active torsions:
REMARK  status: ('A' for Active; 'I' for Inactive)
REMARK    1  A    between atoms: N_1  and  C_12
REMARK    2  A    between atoms: N_2  and  CA_30
REMARK    3  A    between atoms: N_15  and  C_17
REMARK    4  A    between atoms: C_17  and  C_18
REMARK    5  A    between atoms: C_21  and  C_25
REMARK    6  A    between atoms: CA_30  and  C_31
REMARK    7  A    between atoms: CA_30  and  C_33
REMARK    8  A    between atoms: C_33  and  O_34
REMARK                            x       y       z     vdW  Elec       q    Type
REMARK                         _______ _______ _______ _____ _____    ______ ____
ROOT
ATOM      1  N   UNL     1       3.547  -2.705   0.149  0.00  0.00    -0.262 N 
ATOM      2  N   UNL     1       3.930   2.026  -0.040  0.00  0.00    -0.258 N 
ATOM      3  N   UNL     1       3.951  -0.312   0.056  0.00  0.00    -0.311 NA
ATOM      4  N   UNL     1       1.318  -2.719   0.105  0.00  0.00    -0.240 NA
ATOM      5  N   UNL     1       1.856   0.937  -0.037  0.00  0.00    -0.311 NA
ATOM      6  C   UNL     1       3.162  -1.396   0.087  0.00  0.00    +0.220 C 
ATOM      7  C   UNL     1       1.777  -1.427   0.061  0.00  0.00    +0.167 C 
ATOM      8  C   UNL     1       1.122  -0.201  -0.003  0.00  0.00    +0.215 C 
ATOM      9  C   UNL     1       3.221   0.841  -0.006  0.00  0.00    +0.202 C 
ATOM     10  C   UNL     1       2.405  -3.461   0.158  0.00  0.00    +0.222 C 
ATOM     11  H   UNL     1       3.425   2.870  -0.087  0.00  0.00    +0.160 HD
ATOM     12  N   UNL     1      -0.282  -0.137  -0.032  0.00  0.00    -0.302 N 
ATOM     13  H   UNL     1      -0.791  -0.980  -0.007  0.00  0.00    +0.150 HD
ENDROOT
BRANCH   1  14
ATOM     14  C   UNL     1       4.899  -3.207   0.196  0.00  0.00    +0.077 C 
ATOM     15  C   UNL     1       5.684  -2.857  -1.070  0.00  0.00    +0.022 C 
ATOM     16  C   UNL     1       5.635  -2.754   1.458  0.00  0.00    +0.022 C 
ENDBRANCH   1  14
BRANCH  12  17
ATOM     17  C   UNL     1      -1.007   1.097  -0.098  0.00  0.00    +0.116 C 
BRANCH  17  18
ATOM     18  C   UNL     1      -2.489   0.839  -0.079  0.00  0.00    -0.003 C 
ATOM     19  C   UNL     1      -3.168   0.655  -1.276  0.00  0.00    -0.003 C 
ATOM     20  C   UNL     1      -3.159   0.789   1.136  0.00  0.00    -0.003 C 
ATOM     21  C   UNL     1      -5.225   0.364  -0.043  0.00  0.00    +0.018 C 
ATOM     22  C   UNL     1      -4.542   0.417  -1.258  0.00  0.00    +0.001 C 
ATOM     23  C   UNL     1      -4.534   0.550   1.154  0.00  0.00    +0.001 C 
BRANCH  21  25
ATOM     24  N   UNL     1      -7.420   1.224  -0.083  0.00  0.00    -0.244 NA
ATOM     25  C   UNL     1      -6.650   0.116  -0.025  0.00  0.00    +0.081 C 
ATOM     26  C   UNL     1      -7.145  -1.175   0.049  0.00  0.00    +0.019 C 
ATOM     27  C   UNL     1      -8.525  -1.340   0.062  0.00  0.00    +0.003 C 
ATOM     28  C   UNL     1      -8.757   1.024  -0.068  0.00  0.00    +0.099 C 
ATOM     29  C   UNL     1      -9.354  -0.225   0.003  0.00  0.00    +0.021 C 
ENDBRANCH  21  25
ENDBRANCH  17  18
ENDBRANCH  12  17
BRANCH   2  30
ATOM     30  CA  UNL     1       5.379   2.094  -0.011  0.00  0.00    +0.109 C 
BRANCH  30  31
ATOM     31  C   UNL     1       5.826   3.491   0.436  0.00  0.00    +0.023 C 
ATOM     32  C   UNL     1       5.296   3.866   1.814  0.00  0.00    +0.002 C 
ENDBRANCH  30  31
BRANCH  30  33
ATOM     33  C   UNL     1       5.914   1.771  -1.406  0.00  0.00    +0.157 C 
BRANCH  33  34
ATOM     34  O   UNL     1       7.337   1.816  -1.388  0.00  0.00    -0.380 OA
ATOM     35  H   UNL     1       7.678   1.612  -2.273  0.00  0.00    +0.211 HD
ENDBRANCH  33  34
ENDBRANCH  30  33
ENDBRANCH   2  30
TORSDOF 8
