REMARK  Name = 25058133
REMARK  6 active torsions:
REMARK  status: ('A' for Active; 'I' for Inactive)
REMARK    1  A    between atoms: C_5  and  C_13
REMARK    2  A    between atoms: C_6  and  C_16
REMARK    3  A    between atoms: C_15  and  C_17
REMARK    4  A    between atoms: C_17  and  C_18
REMARK    5  A    between atoms: C_19  and  O_24
REMARK    6  A    between atoms: C_21  and  O_26
REMARK                            x       y       z     vdW  Elec       q    Type
REMARK                         _______ _______ _______ _____ _____    ______ ____
ROOT
ATOM      1  N   UNL     1       4.691   0.214   0.321  0.00  0.00    -0.336 NA
ATOM      2  N   UNL     1       3.766  -1.992   0.607  0.00  0.00    -0.317 NA
ATOM      3  N   UNL     1       1.497  -2.421   0.097  0.00  0.00    -0.334 N 
ATOM      4  N   UNL     1       6.016  -1.554   1.110  0.00  0.00    -0.283 N 
ATOM      5  C   UNL     1       3.479   0.626  -0.107  0.00  0.00    +0.120 C 
ATOM      6  C   UNL     1       2.379  -0.200  -0.204  0.00  0.00    +0.179 C 
ATOM      7  C   UNL     1       2.583  -1.513   0.170  0.00  0.00    +0.186 C 
ATOM      8  C   UNL     1       4.762  -1.088   0.657  0.00  0.00    +0.196 C 
ATOM      9  H   UNL     1       1.623  -3.361   0.359  0.00  0.00    +0.144 HD
ATOM     10  H   UNL     1       0.617  -2.111  -0.217  0.00  0.00    +0.144 HD
ATOM     11  H   UNL     1       6.780  -0.936   1.166  0.00  0.00    +0.156 HD
ATOM     12  H   UNL     1       6.125  -2.498   1.369  0.00  0.00    +0.156 HD
ENDROOT
BRANCH   5  13
ATOM     13  C   UNL     1       3.392   2.071  -0.482  0.00  0.00    +0.057 C 
ATOM     14  C   UNL     1       3.401   2.276  -1.993  0.00  0.00    +0.008 C 
ENDBRANCH   5  13
BRANCH   6  16
ATOM     15  C   UNL     1       0.048   0.684  -1.047  0.00  0.00    -0.085 C 
ATOM     16  C   UNL     1       1.113   0.282  -0.664  0.00  0.00    -0.076 C 
BRANCH  15  17
ATOM     17  C   UNL     1      -1.265   1.169  -1.506  0.00  0.00    +0.105 C 
BRANCH  17  18
ATOM     18  C   UNL     1      -2.389   0.643  -0.675  0.00  0.00    +0.028 C 
ATOM     19  C   UNL     1      -2.661   1.186   0.581  0.00  0.00    +0.136 C 
ATOM     20  C   UNL     1      -3.171  -0.402  -1.167  0.00  0.00    +0.037 C 
ATOM     21  C   UNL     1      -4.226  -0.903  -0.405  0.00  0.00    +0.139 C 
ATOM     22  C   UNL     1      -3.715   0.684   1.344  0.00  0.00    +0.040 C 
ATOM     23  C   UNL     1      -4.498  -0.360   0.852  0.00  0.00    +0.040 C 
BRANCH  19  24
ATOM     24  O   UNL     1      -1.906   2.206   1.078  0.00  0.00    -0.472 OA
ATOM     25  C   UNL     1      -2.255   2.700   2.369  0.00  0.00    +0.252 C 
ENDBRANCH  19  24
BRANCH  21  26
ATOM     26  O   UNL     1      -4.989  -1.923  -0.884  0.00  0.00    -0.471 OA
ATOM     27  C   UNL     1      -6.051  -2.387  -0.051  0.00  0.00    +0.252 C 
ENDBRANCH  21  26
ENDBRANCH  17  18
ENDBRANCH  15  17
ENDBRANCH   6  16
TORSDOF 6
