REMARK  Name = 11626560
REMARK  5 active torsions:
REMARK  status: ('A' for Active; 'I' for Inactive)
REMARK    1  A    between atoms: C_2  and  C_10
REMARK    2  A    between atoms: C_5  and  O_23
REMARK    3  A    between atoms: N_7  and  C_13
REMARK    4  A    between atoms: O_23  and  C_24
REMARK    5  A    between atoms: C_24  and  C_29
REMARK                            x       y       z     vdW  Elec       q    Type
REMARK                         _______ _______ _______ _____ _____    ______ ____
ROOT
ATOM      1  N   UNL     1      -1.914  -3.716   0.645  0.00  0.00    -0.226 NA
ATOM      2  C   UNL     1      -0.139  -2.202   0.001  0.00  0.00    +0.025 C 
ATOM      3  C   UNL     1      -1.081  -1.299  -0.485  0.00  0.00    +0.041 C 
ATOM      4  C   UNL     1      -0.606  -3.386   0.551  0.00  0.00    +0.101 C 
ATOM      5  C   UNL     1      -2.435  -1.602  -0.407  0.00  0.00    +0.170 C 
ATOM      6  C   UNL     1      -2.797  -2.813   0.162  0.00  0.00    +0.160 C 
ATOM      7  N   UNL     1      -4.177  -3.123   0.245  0.00  0.00    -0.340 N 
ATOM      8  H   UNL     1      -4.468  -3.975   0.643  0.00  0.00    +0.144 HD
ATOM      9  H   UNL     1      -4.846  -2.486  -0.097  0.00  0.00    +0.144 HD
ENDROOT
BRANCH   2  13
ATOM     10  N   UNL     1       3.145  -0.821  -0.111  0.00  0.00    -0.212 N 
ATOM     11  N   UNL     1       3.533  -2.101  -0.213  0.00  0.00    -0.176 NA
ATOM     12  C   UNL     1       1.797  -0.654  -0.019  0.00  0.00    +0.086 C 
ATOM     13  C   UNL     1       1.261  -1.918  -0.066  0.00  0.00    +0.039 C 
ATOM     14  C   UNL     1       2.377  -2.769  -0.186  0.00  0.00    +0.119 C 
BRANCH  10  16
ATOM     15  N   UNL     1       6.893   1.255  -0.205  0.00  0.00    +0.384 N 
ATOM     16  C   UNL     1       4.153   0.244  -0.104  0.00  0.00    +0.092 C 
ATOM     17  C   UNL     1       4.952   0.313  -1.415  0.00  0.00    -0.002 C 
ATOM     18  C   UNL     1       5.103   0.155   1.101  0.00  0.00    -0.002 C 
ATOM     19  C   UNL     1       6.004   1.420  -1.355  0.00  0.00    -0.080 C 
ATOM     20  C   UNL     1       6.149   1.269   1.055  0.00  0.00    -0.080 C 
ATOM     21  H   UNL     1       7.571   2.017  -0.197  0.00  0.00    -0.085 HD
ATOM     22  H   UNL     1       7.362   0.353  -0.289  0.00  0.00    -0.085 HD
ENDBRANCH  10  16
ENDBRANCH   2  13
BRANCH   5  23
ATOM     23  O   UNL     1      -3.355  -0.721  -0.880  0.00  0.00    -0.472 OA
BRANCH  23  24
ATOM     24  C   UNL     1      -3.854   0.255   0.035  0.00  0.00    +0.190 C 
ATOM     25  C   UNL     1      -5.298   0.591  -0.320  0.00  0.00    +0.052 C 
BRANCH  24  29
ATOM     26 CL   UNL     1      -2.383   0.951   2.611  0.00  0.00    -0.080 Cl
ATOM     27 CL   UNL     1      -3.709   1.770  -2.611  0.00  0.00    -0.082 Cl
ATOM     28  F   UNL     1      -0.752   3.355   2.190  0.00  0.00    -0.203 F 
ATOM     29  C   UNL     1      -2.962   1.474  -0.002  0.00  0.00    +0.041 C 
ATOM     30  C   UNL     1      -2.263   1.847   1.139  0.00  0.00    +0.085 C 
ATOM     31  C   UNL     1      -2.852   2.207  -1.177  0.00  0.00    +0.058 C 
ATOM     32  C   UNL     1      -1.439   2.972   1.104  0.00  0.00    +0.150 C 
ATOM     33  C   UNL     1      -2.029   3.332  -1.211  0.00  0.00    +0.014 C 
ATOM     34  C   UNL     1      -1.323   3.715  -0.071  0.00  0.00    +0.031 C 
ENDBRANCH  24  29
ENDBRANCH  23  24
ENDBRANCH   5  23
TORSDOF 5
