REMARK  Name = 446515
REMARK  7 active torsions:
REMARK  status: ('A' for Active; 'I' for Inactive)
REMARK    1  A    between atoms: N_3  and  C_20
REMARK    2  A    between atoms: C_5  and  C_10
REMARK    3  A    between atoms: C_6  and  C_13
REMARK    4  A    between atoms: C_13  and  C_14
REMARK    5  A    between atoms: C_20  and  O_21
REMARK    6  A    between atoms: O_21  and  C_22
REMARK    7  A    between atoms: C_22  and  C_23
REMARK                            x       y       z     vdW  Elec       q    Type
REMARK                         _______ _______ _______ _____ _____    ______ ____
ROOT
ATOM      1  O   UNL     1       3.108   3.503  -0.313  0.00  0.00    -0.267 OA
ATOM      2  O   UNL     1      -0.278   2.363   2.534  0.00  0.00    -0.246 OA
ATOM      3  N   UNL     1       0.334   0.819   0.890  0.00  0.00    -0.259 N 
ATOM      4  N   UNL     1       1.419   2.899   1.112  0.00  0.00    -0.275 N 
ATOM      5  C   UNL     1       2.131   1.352  -0.616  0.00  0.00    +0.046 A 
ATOM      6  C   UNL     1       1.169   0.501  -0.193  0.00  0.00    +0.048 A 
ATOM      7  C   UNL     1       2.279   2.675   0.058  0.00  0.00    +0.258 A 
ATOM      8  C   UNL     1       0.434   2.038   1.581  0.00  0.00    +0.332 A 
ATOM      9  H   UNL     1       1.512   3.759   1.581  0.00  0.00    +0.173 HD
ENDROOT
BRANCH   5  10
ATOM     10  C   UNL     1       3.119   1.090  -1.719  0.00  0.00    +0.028 C 
ATOM     11  C   UNL     1       2.936   2.108  -2.838  0.00  0.00    +0.005 C 
ATOM     12  C   UNL     1       4.545   1.118  -1.179  0.00  0.00    +0.005 C 
ENDBRANCH   5  10
BRANCH   6  13
ATOM     13  C   UNL     1       0.931  -0.830  -0.873  0.00  0.00    +0.070 C 
BRANCH  13  14
ATOM     14  C   UNL     1       1.754  -1.923  -0.265  0.00  0.00    -0.016 C 
ATOM     15  C   UNL     1       2.605  -1.638   0.799  0.00  0.00    -0.004 C 
ATOM     16  C   UNL     1       1.663  -3.219  -0.767  0.00  0.00    -0.004 C 
ATOM     17  C   UNL     1       3.372  -2.657   1.366  0.00  0.00    -0.000 C 
ATOM     18  C   UNL     1       2.429  -4.237  -0.200  0.00  0.00    -0.000 C 
ATOM     19  C   UNL     1       3.284  -3.956   0.866  0.00  0.00    -0.000 C 
ENDBRANCH  13  14
ENDBRANCH   6  13
BRANCH   3  20
ATOM     20  C   UNL     1      -0.675  -0.154   1.314  0.00  0.00    +0.259 C 
BRANCH  20  21
ATOM     21  O   UNL     1      -1.876   0.097   0.599  0.00  0.00    -0.327 OA
BRANCH  21  22
ATOM     22  C   UNL     1      -2.911  -0.795   0.989  0.00  0.00    +0.171 C 
BRANCH  22  23
ATOM     23  C   UNL     1      -4.150  -0.482   0.203  0.00  0.00    +0.007 C 
ATOM     24  C   UNL     1      -5.066   0.439   0.699  0.00  0.00    -0.002 C 
ATOM     25  C   UNL     1      -4.371  -1.116  -1.014  0.00  0.00    -0.002 C 
ATOM     26  C   UNL     1      -6.218   0.730  -0.032  0.00  0.00    -0.000 C 
ATOM     27  C   UNL     1      -5.523  -0.825  -1.745  0.00  0.00    -0.000 C 
ATOM     28  C   UNL     1      -6.446   0.098  -1.254  0.00  0.00    -0.000 C 
ENDBRANCH  22  23
ENDBRANCH  21  22
ENDBRANCH  20  21
ENDBRANCH   3  20
TORSDOF 7
