REMARK  Name = 68704
REMARK  5 active torsions:
REMARK  status: ('A' for Active; 'I' for Inactive)
REMARK    1  A    between atoms: C_1  and  C_15
REMARK    2  A    between atoms: C_2  and  C_7
REMARK    3  A    between atoms: C_7  and  C_11
REMARK    4  A    between atoms: N_10  and  O_13
REMARK    5  A    between atoms: C_15  and  C_16
REMARK                            x       y       z     vdW  Elec       q    Type
REMARK                         _______ _______ _______ _____ _____    ______ ____
ROOT
ATOM      1  C   UNL     1       2.009   0.727   0.000  0.00  0.00    -0.022 C 
ATOM      2  C   UNL     1      -0.753   0.818   0.209  0.00  0.00    -0.014 C 
ATOM      3  C   UNL     1       1.238   0.649  -1.149  0.00  0.00    -0.005 C 
ATOM      4  C   UNL     1       1.426   0.849   1.251  0.00  0.00    -0.005 C 
ATOM      5  C   UNL     1      -0.152   0.695  -1.044  0.00  0.00    -0.004 C 
ATOM      6  C   UNL     1       0.036   0.895   1.356  0.00  0.00    -0.004 C 
ENDROOT
BRANCH   2   7
ATOM      7  C   UNL     1      -2.240   0.868   0.322  0.00  0.00    +0.101 C 
ATOM      8  C   UNL     1      -2.840   2.085  -0.407  0.00  0.00    +0.014 C 
BRANCH   7  11
ATOM      9  O   UNL     1      -2.790  -0.821  -1.346  0.00  0.00    -0.273 OA
ATOM     10  N   UNL     1      -3.653  -1.039   0.783  0.00  0.00    -0.197 N 
ATOM     11  C   UNL     1      -2.906  -0.420  -0.190  0.00  0.00    +0.248 C 
ATOM     12  H   UNL     1      -3.718  -0.683   1.699  0.00  0.00    +0.182 HD
BRANCH  10  13
ATOM     13  O   UNL     1      -4.314  -2.211   0.391  0.00  0.00    -0.295 OA
ATOM     14  H   UNL     1      -4.810  -2.569   1.144  0.00  0.00    +0.241 HD
ENDBRANCH  10  13
ENDBRANCH   7  11
ENDBRANCH   2   7
BRANCH   1  15
ATOM     15  C   UNL     1       3.513   0.678  -0.115  0.00  0.00    +0.026 C 
BRANCH  15  16
ATOM     16  C   UNL     1       4.098  -0.746  -0.041  0.00  0.00    +0.004 C 
ATOM     17  C   UNL     1       3.681  -1.472   1.240  0.00  0.00    +0.000 C 
ATOM     18  C   UNL     1       3.648  -1.554  -1.261  0.00  0.00    +0.000 C 
ENDBRANCH  15  16
ENDBRANCH   1  15
TORSDOF 5
