REMARK  Name = 9817550
REMARK  1 active torsions:
REMARK  status: ('A' for Active; 'I' for Inactive)
REMARK    1  A    between atoms: C_8  and  C_22
REMARK                            x       y       z     vdW  Elec       q    Type
REMARK                         _______ _______ _______ _____ _____    ______ ____
ROOT
ATOM      1  O   UNL     1      -1.000   2.943  -0.243  0.00  0.00    -0.286 OA
ATOM      2  N   UNL     1       1.913  -0.639   0.013  0.00  0.00    -0.268 N 
ATOM      3  N   UNL     1       2.839   1.616   0.267  0.00  0.00    -0.298 N 
ATOM      4  N   UNL     1       2.819  -2.813   0.070  0.00  0.00    -0.214 NA
ATOM      5  N   UNL     1       4.288  -0.999  -0.031  0.00  0.00    -0.328 N 
ATOM      6  C   UNL     1       0.517   1.129  -0.085  0.00  0.00    +0.073 A 
ATOM      7  C   UNL     1       1.835   0.736   0.068  0.00  0.00    +0.122 A 
ATOM      8  C   UNL     1      -0.262  -0.043  -0.165  0.00  0.00    +0.053 A 
ATOM      9  C   UNL     1       0.606  -1.110  -0.059  0.00  0.00    +0.072 A 
ATOM     10  C   UNL     1       3.022  -1.519   0.027  0.00  0.00    +0.200 C 
ATOM     11  C   UNL     1       0.145   2.535  -0.096  0.00  0.00    +0.200 C 
ATOM     12  C   UNL     1       0.431  -2.508  -0.018  0.00  0.00    +0.038 C 
ATOM     13  C   UNL     1       1.305   3.470   0.100  0.00  0.00    +0.058 C 
ATOM     14  C   UNL     1       2.539   2.963   0.270  0.00  0.00    +0.066 C 
ATOM     15  C   UNL     1       1.526  -3.275   0.060  0.00  0.00    +0.103 C 
ATOM     16  H   UNL     1       3.763   1.305   0.405  0.00  0.00    +0.154 HD
ATOM     17  H   UNL     1       4.419  -0.024  -0.062  0.00  0.00    +0.145 HD
ATOM     18  H   UNL     1       5.067  -1.601  -0.041  0.00  0.00    +0.145 HD
ENDROOT
BRANCH   8  22
ATOM     19  N   UNL     1      -2.366  -0.270   0.878  0.00  0.00    -0.338 NA
ATOM     20  N   UNL     1      -4.396  -0.477  -0.405  0.00  0.00    -0.170 NA
ATOM     21  N   UNL     1      -4.445  -0.496   1.941  0.00  0.00    -0.293 N 
ATOM     22  C   UNL     1      -1.686  -0.192  -0.284  0.00  0.00    +0.147 C 
ATOM     23  C   UNL     1      -2.279  -0.247  -1.528  0.00  0.00    +0.055 C 
ATOM     24  C   UNL     1      -3.652  -0.392  -1.527  0.00  0.00    +0.114 C 
ATOM     25  C   UNL     1      -3.699  -0.410   0.746  0.00  0.00    +0.141 C 
ATOM     26  H   UNL     1      -3.987  -0.453   2.812  0.00  0.00    +0.155 HD
ATOM     27  H   UNL     1      -5.423  -0.598   1.904  0.00  0.00    +0.155 HD
ENDBRANCH   8  22
TORSDOF 1
