54726191
  -OEChem-11271712263D

 49 52  0     1  0  0  0  0  0999 V2000
   -4.8974    1.7953    1.1323 F   0  0  0  0  0  0  0  0  0  0  0  0
   -7.3918    0.2902   -2.5963 F   0  0  0  0  0  0  0  0  0  0  0  0
    5.4001   -2.0594   -0.1787 O   0  0  0  0  0  0  0  0  0  0  0  0
    3.9035    2.3575    0.3936 O   0  0  0  0  0  0  0  0  0  0  0  0
    1.3597    2.8712    0.2162 O   0  0  0  0  0  0  0  0  0  0  0  0
   -1.1465    1.7309    0.4860 O   0  0  0  0  0  0  0  0  0  0  0  0
   -1.8097   -2.3049    0.3878 O   0  0  0  0  0  0  0  0  0  0  0  0
    4.6322    0.2242   -0.1360 N   0  0  0  0  0  0  0  0  0  0  0  0
    2.0608   -0.7461    0.4854 N   0  0  0  0  0  0  0  0  0  0  0  0
   -2.5738   -0.3665    1.4345 N   0  0  0  0  0  0  0  0  0  0  0  0
    4.2903   -1.1792   -0.3944 C   0  0  2  0  0  0  0  0  0  0  0  0
    5.9431    0.7142   -0.5976 C   0  0  1  0  0  0  0  0  0  0  0  0
    7.0350   -0.3386   -0.4073 C   0  0  0  0  0  0  0  0  0  0  0  0
    3.2042   -1.6439    0.5620 C   0  0  0  0  0  0  0  0  0  0  0  0
    6.5666   -1.6934   -0.9031 C   0  0  0  0  0  0  0  0  0  0  0  0
    3.6551    1.1636    0.2213 C   0  0  0  0  0  0  0  0  0  0  0  0
    2.2468    0.6338    0.3659 C   0  0  0  0  0  0  0  0  0  0  0  0
    5.8583    1.1819   -2.0558 C   0  0  0  0  0  0  0  0  0  0  0  0
    0.7718   -1.2401    0.6300 C   0  0  0  0  0  0  0  0  0  0  0  0
    1.2167    1.5093    0.3583 C   0  0  0  0  0  0  0  0  0  0  0  0
   -0.3380   -0.4920    0.6406 C   0  0  0  0  0  0  0  0  0  0  0  0
   -0.1777    0.9783    0.4942 C   0  0  0  0  0  0  0  0  0  0  0  0
   -1.6311   -1.1570    0.7984 C   0  0  0  0  0  0  0  0  0  0  0  0
   -3.9259   -0.8000    1.7054 C   0  0  0  0  0  0  0  0  0  0  0  0
   -4.8501   -0.5078    0.5586 C   0  0  0  0  0  0  0  0  0  0  0  0
   -5.2924    0.7956    0.3318 C   0  0  0  0  0  0  0  0  0  0  0  0
   -5.2662   -1.5415   -0.2804 C   0  0  0  0  0  0  0  0  0  0  0  0
   -6.1511    1.0651   -0.7340 C   0  0  0  0  0  0  0  0  0  0  0  0
   -6.1250   -1.2720   -1.3460 C   0  0  0  0  0  0  0  0  0  0  0  0
   -6.5676    0.0313   -1.5729 C   0  0  0  0  0  0  0  0  0  0  0  0
    3.9539   -1.2604   -1.4358 H   0  0  0  0  0  0  0  0  0  0  0  0
    6.2091    1.5920    0.0048 H   0  0  0  0  0  0  0  0  0  0  0  0
    7.2484   -0.4179    0.6667 H   0  0  0  0  0  0  0  0  0  0  0  0
    7.9642   -0.0416   -0.9052 H   0  0  0  0  0  0  0  0  0  0  0  0
    2.9289   -2.6781    0.3162 H   0  0  0  0  0  0  0  0  0  0  0  0
    3.5809   -1.6663    1.5937 H   0  0  0  0  0  0  0  0  0  0  0  0
    6.3597   -1.7027   -1.9785 H   0  0  0  0  0  0  0  0  0  0  0  0
    7.3338   -2.4488   -0.7062 H   0  0  0  0  0  0  0  0  0  0  0  0
    5.1332    1.9959   -2.1628 H   0  0  0  0  0  0  0  0  0  0  0  0
    6.8285    1.5523   -2.4028 H   0  0  0  0  0  0  0  0  0  0  0  0
    5.5400    0.3763   -2.7252 H   0  0  0  0  0  0  0  0  0  0  0  0
    0.7389   -2.3189    0.7444 H   0  0  0  0  0  0  0  0  0  0  0  0
    2.2923    3.0946    0.0755 H   0  0  0  0  0  0  0  0  0  0  0  0
   -2.3244    0.5675    1.7451 H   0  0  0  0  0  0  0  0  0  0  0  0
   -4.2692   -0.2813    2.6077 H   0  0  0  0  0  0  0  0  0  0  0  0
   -3.9160   -1.8718    1.9356 H   0  0  0  0  0  0  0  0  0  0  0  0
   -4.9282   -2.5613   -0.1167 H   0  0  0  0  0  0  0  0  0  0  0  0
   -6.4953    2.0797   -0.9107 H   0  0  0  0  0  0  0  0  0  0  0  0
   -6.4490   -2.0765   -1.9997 H   0  0  0  0  0  0  0  0  0  0  0  0
  1 26  1  0  0  0  0
  2 30  1  0  0  0  0
  3 11  1  0  0  0  0
  3 15  1  0  0  0  0
  4 16  2  0  0  0  0
  5 20  1  0  0  0  0
  5 43  1  0  0  0  0
  6 22  2  0  0  0  0
  7 23  2  0  0  0  0
  8 11  1  0  0  0  0
  8 12  1  0  0  0  0
  8 16  1  0  0  0  0
  9 14  1  0  0  0  0
  9 17  1  0  0  0  0
  9 19  1  0  0  0  0
 10 23  1  0  0  0  0
 10 24  1  0  0  0  0
 10 44  1  0  0  0  0
 11 14  1  0  0  0  0
 11 31  1  0  0  0  0
 12 13  1  0  0  0  0
 12 18  1  0  0  0  0
 12 32  1  0  0  0  0
 13 15  1  0  0  0  0
 13 33  1  0  0  0  0
 13 34  1  0  0  0  0
 14 35  1  0  0  0  0
 14 36  1  0  0  0  0
 15 37  1  0  0  0  0
 15 38  1  0  0  0  0
 16 17  1  0  0  0  0
 17 20  2  0  0  0  0
 18 39  1  0  0  0  0
 18 40  1  0  0  0  0
 18 41  1  0  0  0  0
 19 21  2  0  0  0  0
 19 42  1  0  0  0  0
 20 22  1  0  0  0  0
 21 22  1  0  0  0  0
 21 23  1  0  0  0  0
 24 25  1  0  0  0  0
 24 45  1  0  0  0  0
 24 46  1  0  0  0  0
 25 26  2  0  0  0  0
 25 27  1  0  0  0  0
 26 28  1  0  0  0  0
 27 29  2  0  0  0  0
 27 47  1  0  0  0  0
 28 30  2  0  0  0  0
 28 48  1  0  0  0  0
 29 30  1  0  0  0  0
 29 49  1  0  0  0  0
M  END
> <DATABASE_ID>
DB08930

> <DATABASE_NAME>
drugbank

> <ORIGINAL_SOURCE>
PUBCHEM

> <ORIGINAL_SOURCE_URL>
https://pubchem.ncbi.nlm.nih.gov/rest/pug/compound/inchikey/RHWKPHLQXYSBKR-BMIGLBTASA-N/SDF?record_type=3d

> <SMILES>
[H][C@]12CN3C=C(C(=O)NCC4=CC=C(F)C=C4F)C(=O)C(O)=C3C(=O)N1[C@H](C)CCO2

> <INCHI_IDENTIFIER>
InChI=1S/C20H19F2N3O5/c1-10-4-5-30-15-9-24-8-13(17(26)18(27)16(24)20(29)25(10)15)19(28)23-7-11-2-3-12(21)6-14(11)22/h2-3,6,8,10,15,27H,4-5,7,9H2,1H3,(H,23,28)/t10-,15+/m1/s1

> <INCHI_KEY>
RHWKPHLQXYSBKR-BMIGLBTASA-N

> <FORMULA>
C20H19F2N3O5

> <MOLECULAR_WEIGHT>
419.3788

> <EXACT_MASS>
419.129277143

> <JCHEM_ACCEPTOR_COUNT>
6

> <JCHEM_ATOM_COUNT>
49

> <JCHEM_AVERAGE_POLARIZABILITY>
40.000231065841334

> <JCHEM_BIOAVAILABILITY>
1

> <JCHEM_DONOR_COUNT>
2

> <JCHEM_FORMAL_CHARGE>
0

> <JCHEM_GHOSE_FILTER>
1

> <JCHEM_IUPAC>
(3S,7R)-N-[(2,4-difluorophenyl)methyl]-11-hydroxy-7-methyl-9,12-dioxo-4-oxa-1,8-diazatricyclo[8.4.0.0^{3,8}]tetradeca-10,13-diene-13-carboxamide

> <ALOGPS_LOGP>
0.98

> <JCHEM_LOGP>
1.1042522260000007

> <ALOGPS_LOGS>
-3.66

> <JCHEM_MDDR_LIKE_RULE>
0

> <JCHEM_NUMBER_OF_RINGS>
4

> <JCHEM_PHYSIOLOGICAL_CHARGE>
0

> <JCHEM_PKA>
13.440544382385298

> <JCHEM_PKA_STRONGEST_ACIDIC>
10.097333973505116

> <JCHEM_PKA_STRONGEST_BASIC>
-0.5056467645498385

> <JCHEM_POLAR_SURFACE_AREA>
99.18

> <JCHEM_REFRACTIVITY>
102.7653

> <JCHEM_ROTATABLE_BOND_COUNT>
3

> <JCHEM_RULE_OF_FIVE>
1

> <ALOGPS_SOLUBILITY>
9.22e-02 g/l

> <JCHEM_TRADITIONAL_IUPAC>
(3S,7R)-N-[(2,4-difluorophenyl)methyl]-11-hydroxy-7-methyl-9,12-dioxo-4-oxa-1,8-diazatricyclo[8.4.0.0^{3,8}]tetradeca-10,13-diene-13-carboxamide

> <JCHEM_VEBER_RULE>
0

> <DRUGBANK_ID>
DB08930

> <DRUG_GROUPS>
approved

> <GENERIC_NAME>
Dolutegravir

> <SYNONYMS>
Dolutegravir

> <PRODUCTS>
Dovato; Juluca; Tivicay; Triumeq

> <SALTS>
Dolutegravir Sodium

$$$$
