REMARK  Name = 25102845
REMARK  4 active torsions:
REMARK  status: ('A' for Active; 'I' for Inactive)
REMARK    1  A    between atoms: C_5  and  C_12
REMARK    2  A    between atoms: C_9  and  C_17
REMARK    3  A    between atoms: C_17  and  C_18
REMARK    4  A    between atoms: C_18  and  N_21
REMARK                            x       y       z     vdW  Elec       q    Type
REMARK                         _______ _______ _______ _____ _____    ______ ____
ROOT
ATOM      1  F   UNL     1       2.714   4.071  -0.128  0.00  0.00    -0.202 F 
ATOM      2  F   UNL     1       3.224   2.688   1.478  0.00  0.00    -0.202 F 
ATOM      3  O   UNL     1       1.061  -1.433  -0.821  0.00  0.00    -0.275 OA
ATOM      4  N   UNL     1       1.702   0.728  -0.297  0.00  0.00    -0.267 N 
ATOM      5  C   UNL     1       3.113   0.561  -0.620  0.00  0.00    +0.158 C 
ATOM      6  C   UNL     1       3.656   1.980  -0.734  0.00  0.00    +0.098 C 
ATOM      7  C   UNL     1       2.762   2.768   0.209  0.00  0.00    +0.284 C 
ATOM      8  C   UNL     1       1.405   2.104   0.103  0.00  0.00    +0.160 C 
ATOM      9  C   UNL     1       0.773  -0.284  -0.482  0.00  0.00    +0.228 C 
ENDROOT
BRANCH   5  12
ATOM     10  O   UNL     1       3.318  -0.081   1.657  0.00  0.00    -0.273 OA
ATOM     11  N   UNL     1       4.843  -0.969   0.165  0.00  0.00    -0.278 N 
ATOM     12  C   UNL     1       3.755  -0.187   0.510  0.00  0.00    +0.244 C 
ATOM     13  C   UNL     1       5.579  -1.752   1.147  0.00  0.00    +0.094 C 
ATOM     14  C   UNL     1       5.407  -1.140  -1.170  0.00  0.00    +0.094 C 
ATOM     15  C   UNL     1       6.449  -2.683   0.317  0.00  0.00    +0.023 C 
ATOM     16  C   UNL     1       6.727  -1.861  -0.935  0.00  0.00    +0.023 C 
ENDBRANCH   5  12
BRANCH   9  17
ATOM     17  C   UNL     1      -0.664   0.098  -0.228  0.00  0.00    +0.107 C 
BRANCH  17  18
ATOM     18  C   UNL     1      -1.569  -1.093  -0.464  0.00  0.00    +0.111 C 
BRANCH  18  21
ATOM     19  O   UNL     1      -3.572  -0.095  -2.433  0.00  0.00    -0.269 OA
ATOM     20  O   UNL     1      -3.187  -1.239   2.040  0.00  0.00    -0.269 OA
ATOM     21  N   UNL     1      -2.956  -0.770  -0.261  0.00  0.00    -0.222 N 
ATOM     22  C   UNL     1      -3.801  -0.312  -1.258  0.00  0.00    +0.255 C 
ATOM     23  C   UNL     1      -3.609  -0.879   0.956  0.00  0.00    +0.255 C 
ATOM     24  C   UNL     1      -5.106  -0.123  -0.627  0.00  0.00    +0.058 C 
ATOM     25  C   UNL     1      -4.990  -0.466   0.713  0.00  0.00    +0.058 C 
ATOM     26  C   UNL     1      -6.298   0.314  -1.167  0.00  0.00    +0.005 C 
ATOM     27  C   UNL     1      -6.059  -0.390   1.581  0.00  0.00    +0.005 C 
ATOM     28  C   UNL     1      -7.396   0.397  -0.306  0.00  0.00    +0.000 C 
ATOM     29  C   UNL     1      -7.278   0.049   1.055  0.00  0.00    +0.000 C 
ENDBRANCH  18  21
ENDBRANCH  17  18
ENDBRANCH   9  17
TORSDOF 4
