REMARK  Name = 44141871
REMARK  6 active torsions:
REMARK  status: ('A' for Active; 'I' for Inactive)
REMARK    1  A    between atoms: C_1  and  C_10
REMARK    2  A    between atoms: C_4  and  O_20
REMARK    3  A    between atoms: C_9  and  C_13
REMARK    4  A    between atoms: C_13  and  C_15
REMARK    5  A    between atoms: O_20  and  C_21
REMARK    6  A    between atoms: C_21  and  C_23
REMARK                            x       y       z     vdW  Elec       q    Type
REMARK                         _______ _______ _______ _____ _____    ______ ____
ROOT
ATOM      1  C   UNL     1       2.768   1.316  -0.096  0.00  0.00    +0.015 C 
ATOM      2  C   UNL     1       1.959   1.289   1.040  0.00  0.00    +0.004 C 
ATOM      3  C   UNL     1       2.191   1.244  -1.364  0.00  0.00    +0.004 C 
ATOM      4  C   UNL     1      -0.003   1.119  -0.360  0.00  0.00    +0.139 C 
ATOM      5  C   UNL     1       0.574   1.191   0.908  0.00  0.00    +0.037 C 
ATOM      6  C   UNL     1       0.806   1.146  -1.496  0.00  0.00    +0.037 C 
ENDROOT
BRANCH   1  10
ATOM      7  N   UNL     1       4.917   2.450  -0.488  0.00  0.00    -0.236 N 
ATOM      8  N   UNL     1       6.239   2.368  -0.256  0.00  0.00    -0.180 NA
ATOM      9  C   UNL     1       5.115   0.603   0.662  0.00  0.00    +0.018 C 
ATOM     10  C   UNL     1       4.200   1.418   0.041  0.00  0.00    +0.063 C 
ATOM     11  C   UNL     1       6.354   1.238   0.447  0.00  0.00    +0.115 C 
ATOM     12  H   UNL     1       4.505   3.188  -0.993  0.00  0.00    +0.174 HD
BRANCH   9  13
ATOM     13  C   UNL     1       4.870  -0.653   1.391  0.00  0.00    +0.056 C 
BRANCH  13  15
ATOM     14  N   UNL     1       3.044  -3.772  -0.973  0.00  0.00    -0.242 NA
ATOM     15  C   UNL     1       4.226  -1.753   0.557  0.00  0.00    -0.015 C 
ATOM     16  C   UNL     1       3.042  -2.347   0.981  0.00  0.00    +0.017 C 
ATOM     17  C   UNL     1       4.819  -2.167  -0.630  0.00  0.00    +0.017 C 
ATOM     18  C   UNL     1       2.497  -3.343   0.187  0.00  0.00    +0.099 C 
ATOM     19  C   UNL     1       4.194  -3.171  -1.352  0.00  0.00    +0.099 C 
ENDBRANCH  13  15
ENDBRANCH   9  13
ENDBRANCH   1  10
BRANCH   4  20
ATOM     20  O   UNL     1      -1.363   1.026  -0.490  0.00  0.00    -0.468 OA
BRANCH  20  21
ATOM     21  C   UNL     1      -2.122   1.007   0.712  0.00  0.00    +0.264 C 
BRANCH  21  23
ATOM     22  N   UNL     1      -4.118  -0.358   0.601  0.00  0.00    -0.406 NA
ATOM     23  C   UNL     1      -3.570   0.859   0.382  0.00  0.00    +0.152 C 
ATOM     24  C   UNL     1      -6.215   0.516  -0.200  0.00  0.00    +0.026 C 
ATOM     25  C   UNL     1      -5.422  -0.530   0.315  0.00  0.00    +0.113 C 
ATOM     26  C   UNL     1      -4.264   1.941  -0.119  0.00  0.00    +0.031 C 
ATOM     27  C   UNL     1      -5.608   1.761  -0.413  0.00  0.00    +0.005 C 
ATOM     28  C   UNL     1      -7.574   0.301  -0.487  0.00  0.00    +0.002 C 
ATOM     29  C   UNL     1      -6.026  -1.767   0.526  0.00  0.00    +0.085 C 
ATOM     30  C   UNL     1      -8.152  -0.946  -0.267  0.00  0.00    -0.004 C 
ATOM     31  C   UNL     1      -7.377  -1.981   0.241  0.00  0.00    -0.019 C 
ENDBRANCH  21  23
ENDBRANCH  20  21
ENDBRANCH   4  20
TORSDOF 6
