REMARK  Name = 5278689
REMARK  6 active torsions:
REMARK  status: ('A' for Active; 'I' for Inactive)
REMARK    1  A    between atoms: C_1  and  O_2
REMARK    2  A    between atoms: C_1  and  C_14
REMARK    3  A    between atoms: O_2  and  C_4
REMARK    4  A    between atoms: C_4  and  N_5
REMARK    5  A    between atoms: N_5  and  C_8
REMARK    6  A    between atoms: C_14  and  N_17
REMARK                            x       y       z     vdW  Elec       q    Type
REMARK                         _______ _______ _______ _____ _____    ______ ____
ROOT
ATOM      1  C   UNL     1       0.263   3.043   0.768  0.00  0.00    +0.229 C 
ENDROOT
BRANCH   1   2
ATOM      2  O   UNL     1      -0.796   2.211   0.315  0.00  0.00    -0.456 OA
BRANCH   2   4
ATOM      3  S   UNL     1      -1.898   4.184  -1.109  0.00  0.00    +0.006 S 
ATOM      4  C   UNL     1      -1.805   2.620  -0.518  0.00  0.00    +0.233 C 
BRANCH   4   5
ATOM      5  N   UNL     1      -2.763   1.689  -0.868  0.00  0.00    -0.278 N 
ATOM      6  H   UNL     1      -3.464   2.033  -1.468  0.00  0.00    +0.156 HD
BRANCH   5   8
ATOM      7 BR   UNL     1      -3.405  -4.159   0.645  0.00  0.00    -0.049 Br
ATOM      8  C   UNL     1      -2.913   0.325  -0.515  0.00  0.00    +0.051 C 
ATOM      9  C   UNL     1      -3.522  -0.541  -1.407  0.00  0.00    +0.015 C 
ATOM     10  C   UNL     1      -2.447  -0.110   0.713  0.00  0.00    +0.015 C 
ATOM     11  C   UNL     1      -3.669  -1.884  -1.060  0.00  0.00    +0.008 C 
ATOM     12  C   UNL     1      -2.594  -1.453   1.061  0.00  0.00    +0.008 C 
ATOM     13  C   UNL     1      -3.205  -2.340   0.174  0.00  0.00    +0.035 C 
ENDBRANCH   5   8
ENDBRANCH   4   5
ENDBRANCH   2   4
ENDBRANCH   1   2
BRANCH   1  14
ATOM     14  C   UNL     1       1.186   2.241   1.667  0.00  0.00    +0.149 C 
BRANCH  14  17
ATOM     15  O   UNL     1       2.925   2.152  -0.752  0.00  0.00    -0.269 OA
ATOM     16  O   UNL     1       0.853  -0.658   2.292  0.00  0.00    -0.269 OA
ATOM     17  N   UNL     1       1.732   1.089   0.977  0.00  0.00    -0.219 N 
ATOM     18  C   UNL     1       2.863  -0.204  -0.499  0.00  0.00    +0.058 C 
ATOM     19  C   UNL     1       2.242  -1.044   0.412  0.00  0.00    +0.058 C 
ATOM     20  C   UNL     1       2.534   1.175  -0.142  0.00  0.00    +0.255 C 
ATOM     21  C   UNL     1       1.507  -0.215   1.367  0.00  0.00    +0.255 C 
ATOM     22  C   UNL     1       3.637  -0.691  -1.533  0.00  0.00    +0.005 C 
ATOM     23  C   UNL     1       2.362  -2.417   0.340  0.00  0.00    +0.005 C 
ATOM     24  C   UNL     1       3.773  -2.079  -1.626  0.00  0.00    +0.000 C 
ATOM     25  C   UNL     1       3.142  -2.934  -0.699  0.00  0.00    +0.000 C 
ENDBRANCH  14  17
ENDBRANCH   1  14
TORSDOF 6
