194777
  -OEChem-10051721203D

 52 52  0     1  0  0  0  0  0999 V2000
   -1.3393    0.3682   -1.5739 O   0  0  0  0  0  0  0  0  0  0  0  0
   -2.5973   -2.2073    0.4772 O   0  0  0  0  0  0  0  0  0  0  0  0
    0.6297   -2.3198    1.1676 O   0  0  0  0  0  0  0  0  0  0  0  0
   -4.9454   -2.7475   -0.7560 O   0  0  0  0  0  0  0  0  0  0  0  0
   -0.4538    0.3446    0.5687 N   0  0  0  0  0  0  0  0  0  0  0  0
    0.9831   -2.1302   -1.1201 N   0  0  0  0  0  0  0  0  0  0  0  0
   -4.7371   -1.5355   -0.0846 N   0  0  0  0  0  0  0  0  0  0  0  0
   -2.7796    1.0276    0.2373 C   0  0  2  0  0  0  0  0  0  0  0  0
   -2.6414    2.3891    0.9482 C   0  0  0  0  0  0  0  0  0  0  0  0
   -2.1119    3.5376    0.0631 C   0  0  0  0  0  0  0  0  0  0  0  0
   -3.3451   -0.0405    1.1905 C   0  0  0  0  0  0  0  0  0  0  0  0
   -1.4583    0.5480   -0.3622 C   0  0  0  0  0  0  0  0  0  0  0  0
    0.8661   -0.1102    0.1994 C   0  0  1  0  0  0  0  0  0  0  0  0
   -3.0768    3.8992   -1.0669 C   0  0  0  0  0  0  0  0  0  0  0  0
   -0.7527    3.1488   -0.5257 C   0  0  0  0  0  0  0  0  0  0  0  0
    1.9405    0.3729    1.1804 C   0  0  0  0  0  0  0  0  0  0  0  0
   -3.5063   -1.3803    0.5000 C   0  0  0  0  0  0  0  0  0  0  0  0
    0.8252   -1.6339    0.1665 C   0  0  0  0  0  0  0  0  0  0  0  0
    3.3268    0.3531    0.5839 C   0  0  0  0  0  0  0  0  0  0  0  0
    4.1030   -0.7887    0.7061 C   0  0  0  0  0  0  0  0  0  0  0  0
    3.7990    1.4769   -0.0760 C   0  0  0  0  0  0  0  0  0  0  0  0
    5.3840   -0.8073    0.1546 C   0  0  0  0  0  0  0  0  0  0  0  0
    5.0801    1.4583   -0.6276 C   0  0  0  0  0  0  0  0  0  0  0  0
    0.9351   -3.5391   -1.4386 C   0  0  0  0  0  0  0  0  0  0  0  0
    5.8726    0.3161   -0.5122 C   0  0  0  0  0  0  0  0  0  0  0  0
   -3.4832    1.1341   -0.5984 H   0  0  0  0  0  0  0  0  0  0  0  0
   -3.6211    2.6811    1.3483 H   0  0  0  0  0  0  0  0  0  0  0  0
   -1.9794    2.2891    1.8182 H   0  0  0  0  0  0  0  0  0  0  0  0
   -1.9818    4.4196    0.7027 H   0  0  0  0  0  0  0  0  0  0  0  0
   -2.7011   -0.1900    2.0650 H   0  0  0  0  0  0  0  0  0  0  0  0
   -4.3187    0.2854    1.5774 H   0  0  0  0  0  0  0  0  0  0  0  0
    1.0796    0.2869   -0.8006 H   0  0  0  0  0  0  0  0  0  0  0  0
   -3.1960    3.0827   -1.7860 H   0  0  0  0  0  0  0  0  0  0  0  0
   -4.0651    4.1477   -0.6667 H   0  0  0  0  0  0  0  0  0  0  0  0
   -2.7101    4.7728   -1.6168 H   0  0  0  0  0  0  0  0  0  0  0  0
   -0.2622    4.0833   -0.8364 H   0  0  0  0  0  0  0  0  0  0  0  0
   -0.0695    2.7308    0.2142 H   0  0  0  0  0  0  0  0  0  0  0  0
   -0.7992    2.5825   -1.4540 H   0  0  0  0  0  0  0  0  0  0  0  0
   -0.6538    0.4638    1.5569 H   0  0  0  0  0  0  0  0  0  0  0  0
    1.9285   -0.2155    2.1077 H   0  0  0  0  0  0  0  0  0  0  0  0
    1.7170    1.4008    1.4985 H   0  0  0  0  0  0  0  0  0  0  0  0
    3.7333   -1.6685    1.2246 H   0  0  0  0  0  0  0  0  0  0  0  0
    3.1882    2.3699   -0.1737 H   0  0  0  0  0  0  0  0  0  0  0  0
    1.1061   -1.4860   -1.8952 H   0  0  0  0  0  0  0  0  0  0  0  0
   -5.5217   -0.8966   -0.0211 H   0  0  0  0  0  0  0  0  0  0  0  0
    6.0012   -1.6964    0.2446 H   0  0  0  0  0  0  0  0  0  0  0  0
    5.4604    2.3327   -1.1476 H   0  0  0  0  0  0  0  0  0  0  0  0
   -0.0511   -3.7613   -1.8536 H   0  0  0  0  0  0  0  0  0  0  0  0
    1.1057   -4.1476   -0.5473 H   0  0  0  0  0  0  0  0  0  0  0  0
    1.7024   -3.7489   -2.1874 H   0  0  0  0  0  0  0  0  0  0  0  0
    6.8699    0.3016   -0.9418 H   0  0  0  0  0  0  0  0  0  0  0  0
   -5.8767   -2.9131   -0.5318 H   0  0  0  0  0  0  0  0  0  0  0  0
  1 12  2  0  0  0  0
  2 17  2  0  0  0  0
  3 18  2  0  0  0  0
  4  7  1  0  0  0  0
  4 52  1  0  0  0  0
  5 12  1  0  0  0  0
  5 13  1  0  0  0  0
  5 39  1  0  0  0  0
  6 18  1  0  0  0  0
  6 24  1  0  0  0  0
  6 44  1  0  0  0  0
  7 17  1  0  0  0  0
  7 45  1  0  0  0  0
  8  9  1  0  0  0  0
  8 11  1  0  0  0  0
  8 12  1  0  0  0  0
  8 26  1  0  0  0  0
  9 10  1  0  0  0  0
  9 27  1  0  0  0  0
  9 28  1  0  0  0  0
 10 14  1  0  0  0  0
 10 15  1  0  0  0  0
 10 29  1  0  0  0  0
 11 17  1  0  0  0  0
 11 30  1  0  0  0  0
 11 31  1  0  0  0  0
 13 16  1  0  0  0  0
 13 18  1  0  0  0  0
 13 32  1  0  0  0  0
 14 33  1  0  0  0  0
 14 34  1  0  0  0  0
 14 35  1  0  0  0  0
 15 36  1  0  0  0  0
 15 37  1  0  0  0  0
 15 38  1  0  0  0  0
 16 19  1  0  0  0  0
 16 40  1  0  0  0  0
 16 41  1  0  0  0  0
 19 20  2  0  0  0  0
 19 21  1  0  0  0  0
 20 22  1  0  0  0  0
 20 42  1  0  0  0  0
 21 23  2  0  0  0  0
 21 43  1  0  0  0  0
 22 25  2  0  0  0  0
 22 46  1  0  0  0  0
 23 25  1  0  0  0  0
 23 47  1  0  0  0  0
 24 48  1  0  0  0  0
 24 49  1  0  0  0  0
 24 50  1  0  0  0  0
 25 51  1  0  0  0  0
M  END
> <DATABASE_ID>
DB08403

> <DATABASE_NAME>
drugbank

> <ORIGINAL_SOURCE>
PUBCHEM

> <ORIGINAL_SOURCE_URL>
https://pubchem.ncbi.nlm.nih.gov/rest/pug/compound/inchikey/MOPRTFSMCQNUCT-CABCVRRESA-N/SDF?record_type=3d

> <SMILES>
[H][C@@](CC(C)C)(CC(=O)NO)C(=O)N[C@@]([H])(CC1=CC=CC=C1)C(=O)NC

> <INCHI_IDENTIFIER>
InChI=1S/C18H27N3O4/c1-12(2)9-14(11-16(22)21-25)17(23)20-15(18(24)19-3)10-13-7-5-4-6-8-13/h4-8,12,14-15,25H,9-11H2,1-3H3,(H,19,24)(H,20,23)(H,21,22)/t14-,15+/m1/s1

> <INCHI_KEY>
MOPRTFSMCQNUCT-CABCVRRESA-N

> <FORMULA>
C18H27N3O4

> <MOLECULAR_WEIGHT>
349.4247

> <EXACT_MASS>
349.200156367

> <JCHEM_ACCEPTOR_COUNT>
4

> <JCHEM_AVERAGE_POLARIZABILITY>
36.937298862315146

> <JCHEM_BIOAVAILABILITY>
1

> <JCHEM_DONOR_COUNT>
4

> <JCHEM_FORMAL_CHARGE>
0

> <JCHEM_GHOSE_FILTER>
1

> <JCHEM_IUPAC>
(2R)-N'-hydroxy-N-[(1S)-1-(methylcarbamoyl)-2-phenylethyl]-2-(2-methylpropyl)butanediamide

> <ALOGPS_LOGP>
0.98

> <JCHEM_LOGP>
1.0470762186666667

> <ALOGPS_LOGS>
-3.71

> <JCHEM_MDDR_LIKE_RULE>
0

> <JCHEM_NUMBER_OF_RINGS>
1

> <JCHEM_PHYSIOLOGICAL_CHARGE>
0

> <JCHEM_PKA>
12.825856019929397

> <JCHEM_PKA_STRONGEST_ACIDIC>
8.89937180143087

> <JCHEM_PKA_STRONGEST_BASIC>
-0.7094772774643919

> <JCHEM_POLAR_SURFACE_AREA>
107.52999999999997

> <JCHEM_REFRACTIVITY>
94.0842

> <JCHEM_ROTATABLE_BOND_COUNT>
9

> <JCHEM_RULE_OF_FIVE>
1

> <ALOGPS_SOLUBILITY>
6.84e-02 g/l

> <JCHEM_TRADITIONAL_IUPAC>
(2R)-N'-hydroxy-N-[(1S)-1-(methylcarbamoyl)-2-phenylethyl]-2-(2-methylpropyl)succinamide

> <JCHEM_VEBER_RULE>
0

> <DRUGBANK_ID>
DB08403

> <DRUG_GROUPS>
experimental

> <GENERIC_NAME>
METHYLAMINO-PHENYLALANYL-LEUCYL-HYDROXAMIC ACID

$$$$
