REMARK  Name = 16058650
REMARK  4 active torsions:
REMARK  status: ('A' for Active; 'I' for Inactive)
REMARK    1  A    between atoms: C_4  and  C_16
REMARK    2  A    between atoms: C_5  and  N_32
REMARK    3  A    between atoms: C_11  and  C_22
REMARK    4  A    between atoms: C_25  and  S_28
REMARK                            x       y       z     vdW  Elec       q    Type
REMARK                         _______ _______ _______ _____ _____    ______ ____
ROOT
ATOM      1  N   UNL     1      -0.545  -1.666  -0.226  0.00  0.00    -0.299 N 
ATOM      2  N   UNL     1       0.372  -1.343   1.955  0.00  0.00    -0.234 NA
ATOM      3  N   UNL     1       2.460  -0.170   2.219  0.00  0.00    -0.248 NA
ATOM      4  C   UNL     1      -3.306  -0.984  -0.728  0.00  0.00    +0.008 C 
ATOM      5  C   UNL     1      -2.865  -1.735   0.559  0.00  0.00    -0.041 C 
ATOM      6  C   UNL     1      -2.135  -0.160  -1.311  0.00  0.00    +0.024 C 
ATOM      7  C   UNL     1      -1.585  -2.557   0.304  0.00  0.00    +0.070 C 
ATOM      8  C   UNL     1      -0.891  -1.029  -1.498  0.00  0.00    +0.092 C 
ATOM      9  C   UNL     1       0.456  -1.169   0.603  0.00  0.00    +0.111 C 
ATOM     10  C   UNL     1       1.532  -0.498   0.022  0.00  0.00    +0.106 C 
ATOM     11  C   UNL     1       2.503  -0.021   0.879  0.00  0.00    +0.063 C 
ATOM     12  C   UNL     1       1.383  -0.831   2.683  0.00  0.00    +0.251 C 
ENDROOT
BRANCH   4  16
ATOM     13  F   UNL     1      -5.750  -1.356  -2.120  0.00  0.00    -0.204 F 
ATOM     14  F   UNL     1      -5.535   2.777   1.455  0.00  0.00    -0.202 F 
ATOM     15  F   UNL     1      -7.828   2.302   0.045  0.00  0.00    -0.202 F 
ATOM     16  C   UNL     1      -4.526  -0.100  -0.521  0.00  0.00    +0.005 C 
ATOM     17  C   UNL     1      -5.691  -0.346  -1.242  0.00  0.00    +0.138 C 
ATOM     18  C   UNL     1      -4.468   0.951   0.389  0.00  0.00    +0.030 C 
ATOM     19  C   UNL     1      -5.586   1.763   0.581  0.00  0.00    +0.167 C 
ATOM     20  C   UNL     1      -6.809   0.466  -1.050  0.00  0.00    +0.061 C 
ATOM     21  C   UNL     1      -6.756   1.521  -0.138  0.00  0.00    +0.170 C 
ENDBRANCH   4  16
BRANCH  11  22
ATOM     22  C   UNL     1       3.657   0.688   0.378  0.00  0.00    +0.015 C 
ATOM     23  C   UNL     1       4.817  -0.012   0.039  0.00  0.00    +0.020 C 
ATOM     24  C   UNL     1       3.618   2.076   0.233  0.00  0.00    +0.001 C 
ATOM     25  C   UNL     1       5.932   0.673  -0.443  0.00  0.00    +0.106 C 
ATOM     26  C   UNL     1       4.733   2.762  -0.250  0.00  0.00    +0.001 C 
ATOM     27  C   UNL     1       5.890   2.060  -0.588  0.00  0.00    +0.018 C 
BRANCH  25  28
ATOM     28  S   UNL     1       7.381  -0.204  -0.869  0.00  0.00    +0.010 S 
ATOM     29  O   UNL     1       6.999  -1.572  -1.190  0.00  0.00    -0.169 OA
ATOM     30  O   UNL     1       8.141   0.579  -1.833  0.00  0.00    -0.169 OA
ATOM     31  C   UNL     1       8.332  -0.241   0.634  0.00  0.00    +0.182 C 
ENDBRANCH  25  28
ENDBRANCH  11  22
BRANCH   5  32
ATOM     32  N   UNL     1      -3.932  -2.623   1.031  0.00  0.00    +0.383 N 
ATOM     33  H   UNL     1      -4.777  -2.078   1.199  0.00  0.00    -0.089 HD
ATOM     34  H   UNL     1      -3.640  -3.074   1.898  0.00  0.00    -0.089 HD
ATOM     35  H   UNL     1      -4.120  -3.334   0.324  0.00  0.00    -0.089 HD
ENDBRANCH   5  32
TORSDOF 4
