REMARK  Name = 4122
REMARK  4 active torsions:
REMARK  status: ('A' for Active; 'I' for Inactive)
REMARK    1  A    between atoms: N_4  and  C_10
REMARK    2  A    between atoms: C_7  and  C_17
REMARK    3  A    between atoms: C_12  and  O_23
REMARK    4  A    between atoms: C_17  and  C_19
REMARK                            x       y       z     vdW  Elec       q    Type
REMARK                         _______ _______ _______ _____ _____    ______ ____
ROOT
ATOM      1  N   UNL     1       1.587   0.386  -1.143  0.00  0.00    -0.302 N 
ATOM      2  N   UNL     1       2.261  -0.584   0.740  0.00  0.00    -0.302 N 
ATOM      3  C   UNL     1       0.456  -0.149  -0.582  0.00  0.00    +0.060 C 
ATOM      4  C   UNL     1       0.902  -0.749   0.593  0.00  0.00    +0.060 C 
ATOM      5  C   UNL     1      -1.787  -0.814  -0.149  0.00  0.00    +0.041 C 
ATOM      6  C   UNL     1      -0.879  -0.160  -0.988  0.00  0.00    +0.019 C 
ATOM      7  C   UNL     1      -0.023  -1.402   1.423  0.00  0.00    +0.016 C 
ATOM      8  C   UNL     1       2.638   0.100  -0.317  0.00  0.00    +0.229 C 
ATOM      9  C   UNL     1      -1.369  -1.425   1.036  0.00  0.00    +0.005 C 
ATOM     10  H   UNL     1       1.633   0.886  -1.990  0.00  0.00    +0.150 HD
ATOM     11  H   UNL     1       2.827  -0.907   1.478  0.00  0.00    +0.150 HD
ENDROOT
BRANCH   8  13
ATOM     12  O   UNL     1       5.247  -0.258   1.130  0.00  0.00    -0.226 OA
ATOM     13  N   UNL     1       3.903   0.520  -0.635  0.00  0.00    -0.240 N 
ATOM     14  C   UNL     1       5.109   0.336   0.068  0.00  0.00    +0.404 C 
ATOM     15  H   UNL     1       3.979   1.025  -1.477  0.00  0.00    +0.156 HD
BRANCH  14  16
ATOM     16  O   UNL     1       6.143   0.924  -0.610  0.00  0.00    -0.431 OA
ATOM     17  C   UNL     1       7.436   0.813  -0.004  0.00  0.00    +0.257 C 
ENDBRANCH  14  16
ENDBRANCH   8  13
BRANCH   5  19
ATOM     18  O   UNL     1      -3.599  -1.813  -1.200  0.00  0.00    -0.286 OA
ATOM     19  C   UNL     1      -3.194  -0.859  -0.519  0.00  0.00    +0.202 C 
BRANCH  19  21
ATOM     20  S   UNL     1      -5.741   0.065  -0.559  0.00  0.00    -0.083 S 
ATOM     21  C   UNL     1      -4.127   0.200  -0.083  0.00  0.00    +0.068 C 
ATOM     22  C   UNL     1      -3.838   1.282   0.665  0.00  0.00    +0.010 C 
ATOM     23  C   UNL     1      -5.008   2.068   0.873  0.00  0.00    +0.008 C 
ATOM     24  C   UNL     1      -6.115   1.521   0.261  0.00  0.00    +0.036 C 
ENDBRANCH  19  21
ENDBRANCH   5  19
TORSDOF 4
