REMARK  Name = 24905142
REMARK  2 active torsions:
REMARK  status: ('A' for Active; 'I' for Inactive)
REMARK    1  A    between atoms: N_1  and  C_20
REMARK    2  A    between atoms: C_7  and  C_12
REMARK                            x       y       z     vdW  Elec       q    Type
REMARK                         _______ _______ _______ _____ _____    ______ ____
ROOT
ATOM      1  N   UNL     1      -2.191  -0.182   0.037  0.00  0.00    -0.200 N 
ATOM      2  N   UNL     1      -1.015  -0.826  -0.083  0.00  0.00    -0.181 NA
ATOM      3  N   UNL     1      -3.058   2.073   0.200  0.00  0.00    -0.232 NA
ATOM      4  N   UNL     1      -1.273   3.733   0.129  0.00  0.00    -0.234 NA
ATOM      5  C   UNL     1      -2.067   1.175   0.084  0.00  0.00    +0.137 C 
ATOM      6  C   UNL     1      -0.712   1.438  -0.012  0.00  0.00    +0.150 C 
ATOM      7  C   UNL     1      -0.118   0.166  -0.112  0.00  0.00    +0.091 C 
ATOM      8  C   UNL     1      -0.324   2.773   0.013  0.00  0.00    +0.112 C 
ATOM      9  C   UNL     1      -2.563   3.329   0.214  0.00  0.00    +0.252 C 
ATOM     10  N   UNL     1       1.030   3.142  -0.079  0.00  0.00    -0.346 N 
ATOM     11  H   UNL     1       1.284   4.094  -0.059  0.00  0.00    +0.143 HD
ATOM     12  H   UNL     1       1.725   2.450  -0.164  0.00  0.00    +0.143 HD
ENDROOT
BRANCH   7  15
ATOM     13  N   UNL     1       3.176  -0.521  -1.723  0.00  0.00    -0.229 NA
ATOM     14  N   UNL     1       5.225  -1.002  -0.551  0.00  0.00    -0.297 N 
ATOM     15  C   UNL     1       1.278  -0.139  -0.235  0.00  0.00    +0.035 C 
ATOM     16  C   UNL     1       2.061  -0.340   0.900  0.00  0.00    +0.006 C 
ATOM     17  C   UNL     1       1.874  -0.240  -1.484  0.00  0.00    +0.102 C 
ATOM     18  C   UNL     1       3.421  -0.635   0.714  0.00  0.00    +0.033 C 
ATOM     19  C   UNL     1       3.888  -0.706  -0.595  0.00  0.00    +0.132 C 
ATOM     20  C   UNL     1       4.530  -0.900   1.561  0.00  0.00    +0.019 C 
ATOM     21  C   UNL     1       5.626  -1.121   0.755  0.00  0.00    +0.063 C 
ATOM     22  H   UNL     1       5.808  -1.111  -1.336  0.00  0.00    +0.154 HD
ENDBRANCH   7  15
BRANCH   1  23
ATOM     23  C   UNL     1      -3.474  -0.979   0.105  0.00  0.00    +0.098 C 
ATOM     24  C   UNL     1      -3.555  -1.962   1.292  0.00  0.00    +0.022 C 
ATOM     25  C   UNL     1      -3.708  -1.830  -1.156  0.00  0.00    +0.022 C 
ATOM     26  C   UNL     1      -3.673  -3.350   0.673  0.00  0.00    +0.002 C 
ATOM     27  C   UNL     1      -4.377  -3.098  -0.648  0.00  0.00    +0.002 C 
ENDBRANCH   1  23
TORSDOF 2
