REMARK  Name = 736407
REMARK  2 active torsions:
REMARK  status: ('A' for Active; 'I' for Inactive)
REMARK    1  A    between atoms: C_4  and  C_11
REMARK    2  A    between atoms: C_12  and  C_14
REMARK                            x       y       z     vdW  Elec       q    Type
REMARK                         _______ _______ _______ _____ _____    ______ ____
ROOT
ATOM      1  N   UNL     1       1.405  -1.690   0.007  0.00  0.00    -0.284 N 
ATOM      2  C   UNL     1       2.022  -0.460  -0.001  0.00  0.00    +0.052 C 
ATOM      3  C   UNL     1       1.013   0.506   0.004  0.00  0.00    +0.015 C 
ATOM      4  C   UNL     1      -0.229  -0.189   0.016  0.00  0.00    +0.016 C 
ATOM      5  C   UNL     1       0.045  -1.537   0.018  0.00  0.00    +0.065 C 
ATOM      6  C   UNL     1       3.382  -0.131  -0.013  0.00  0.00    +0.015 C 
ATOM      7  C   UNL     1       1.377   1.867  -0.002  0.00  0.00    +0.001 C 
ATOM      8  C   UNL     1       2.080  -2.970   0.006  0.00  0.00    +0.117 C 
ATOM      9  C   UNL     1       3.719   1.226  -0.019  0.00  0.00    +0.001 C 
ATOM     10  C   UNL     1       2.733   2.211  -0.014  0.00  0.00    +0.000 C 
ENDROOT
BRANCH   4  11
ATOM     11  C   UNL     1      -1.531   0.360   0.025  0.00  0.00    +0.004 C 
ATOM     12  C   UNL     1      -2.668  -0.373  -0.003  0.00  0.00    +0.038 C 
BRANCH  12  14
ATOM     13  O   UNL     1      -4.134   1.509   0.045  0.00  0.00    -0.291 OA
ATOM     14  C   UNL     1      -4.005   0.288  -0.009  0.00  0.00    +0.174 C 
ATOM     15  C   UNL     1      -5.209  -0.617  -0.061  0.00  0.00    +0.077 C 
ENDBRANCH  12  14
ENDBRANCH   4  11
TORSDOF 2
