REMARK  Name = 4369451
REMARK  3 active torsions:
REMARK  status: ('A' for Active; 'I' for Inactive)
REMARK    1  A    between atoms: C_1  and  N_11
REMARK    2  A    between atoms: C_3  and  O_22
REMARK    3  A    between atoms: C_4  and  C_16
REMARK                            x       y       z     vdW  Elec       q    Type
REMARK                         _______ _______ _______ _____ _____    ______ ____
ROOT
ATOM      1  C   UNL     1       0.772   0.635  -0.059  0.00  0.00    +0.104 C 
ATOM      2  C   UNL     1      -0.446  -0.044  -0.098  0.00  0.00    +0.019 C 
ATOM      3  C   UNL     1       0.792   2.024   0.067  0.00  0.00    +0.153 C 
ATOM      4  C   UNL     1      -1.644   0.666  -0.010  0.00  0.00    +0.001 C 
ATOM      5  C   UNL     1      -0.405   2.734   0.155  0.00  0.00    +0.038 C 
ATOM      6  C   UNL     1      -1.623   2.055   0.117  0.00  0.00    +0.003 C 
ENDROOT
BRANCH   1  11
ATOM      7  S   UNL     1       2.550  -0.867   1.295  0.00  0.00    +0.130 S 
ATOM      8  O   UNL     1       3.234   0.100   2.127  0.00  0.00    -0.135 OA
ATOM      9  O   UNL     1       1.520  -1.739   1.826  0.00  0.00    -0.135 OA
ATOM     10  O   UNL     1       4.123  -2.463  -1.778  0.00  0.00    -0.272 OA
ATOM     11  N   UNL     1       1.999  -0.110  -0.153  0.00  0.00    -0.166 N 
ATOM     12  N   UNL     1       3.673  -1.808   0.426  0.00  0.00    -0.171 N 
ATOM     13  C   UNL     1       2.270  -0.942  -1.363  0.00  0.00    +0.203 C 
ATOM     14  C   UNL     1       3.464  -1.808  -0.984  0.00  0.00    +0.264 C 
ATOM     15  H   UNL     1       4.402  -2.307   0.859  0.00  0.00    +0.178 HD
ENDBRANCH   1  11
BRANCH   4  16
ATOM     16  C   UNL     1      -2.907  -0.038  -0.050  0.00  0.00    +0.000 C 
ATOM     17  C   UNL     1      -3.494  -0.485   1.133  0.00  0.00    +0.000 C 
ATOM     18  C   UNL     1      -3.539  -0.267  -1.272  0.00  0.00    +0.000 C 
ATOM     19  C   UNL     1      -4.713  -1.162   1.094  0.00  0.00    +0.000 C 
ATOM     20  C   UNL     1      -4.758  -0.943  -1.311  0.00  0.00    +0.000 C 
ATOM     21  C   UNL     1      -5.346  -1.391  -0.128  0.00  0.00    +0.000 C 
ENDBRANCH   4  16
BRANCH   3  22
ATOM     22  O   UNL     1       1.972   2.705   0.106  0.00  0.00    -0.470 OA
ATOM     23  C   UNL     1       2.508   3.145  -1.140  0.00  0.00    +0.253 C 
ENDBRANCH   3  22
TORSDOF 3
