REMARK  Name = 25011726
REMARK  13 active torsions:
REMARK  status: ('A' for Active; 'I' for Inactive)
REMARK    1  A    between atoms: C_1  and  C_4
REMARK    2  A    between atoms: C_1  and  C_16
REMARK    3  A    between atoms: C_1  and  O_27
REMARK    4  A    between atoms: N_3  and  C_6
REMARK    5  A    between atoms: C_6  and  C_7
REMARK    6  A    between atoms: C_7  and  C_10
REMARK    7  A    between atoms: N_9  and  C_12
REMARK    8  A    between atoms: C_12  and  C_13
REMARK    9  A    between atoms: C_13  and  O_14
REMARK   10  A    between atoms: C_16  and  C_19
REMARK   11  A    between atoms: C_19  and  O_20
REMARK   12  A    between atoms: O_20  and  C_22
REMARK   13  A    between atoms: C_22  and  C_23
REMARK                            x       y       z     vdW  Elec       q    Type
REMARK                         _______ _______ _______ _____ _____    ______ ____
ROOT
ATOM      1  C   UNL     1       2.173   1.868   0.135  0.00  0.00    +0.190 C 
ENDROOT
BRANCH   1   4
ATOM      2  O   UNL     1       0.490   3.503   0.723  0.00  0.00    -0.272 OA
ATOM      3  N   UNL     1       0.350   1.387   1.664  0.00  0.00    -0.302 N 
ATOM      4  C   UNL     1       0.926   2.362   0.866  0.00  0.00    +0.249 C 
ATOM      5  H   UNL     1       0.780   0.503   1.709  0.00  0.00    +0.150 HD
BRANCH   3   6
ATOM      6  C   UNL     1      -0.853   1.609   2.433  0.00  0.00    +0.099 C 
BRANCH   6   7
ATOM      7  C   UNL     1      -1.975   0.661   2.034  0.00  0.00    +0.106 C 
BRANCH   7  10
ATOM      8  O   UNL     1      -2.343   1.864  -0.037  0.00  0.00    -0.275 OA
ATOM      9  N   UNL     1      -2.871  -0.396   0.067  0.00  0.00    -0.302 N 
ATOM     10  C   UNL     1      -2.403   0.805   0.582  0.00  0.00    +0.224 C 
ATOM     11  H   UNL     1      -2.876  -1.188   0.651  0.00  0.00    +0.150 HD
BRANCH   9  12
ATOM     12  C   UNL     1      -3.352  -0.532  -1.288  0.00  0.00    +0.121 C 
BRANCH  12  13
ATOM     13  C   UNL     1      -4.843  -0.260  -1.381  0.00  0.00    +0.158 C 
BRANCH  13  14
ATOM     14  O   UNL     1      -5.546  -1.206  -0.587  0.00  0.00    -0.380 OA
ATOM     15  H   UNL     1      -6.499  -1.033  -0.646  0.00  0.00    +0.211 HD
ENDBRANCH  13  14
ENDBRANCH  12  13
ENDBRANCH   9  12
ENDBRANCH   7  10
ENDBRANCH   6   7
ENDBRANCH   3   6
ENDBRANCH   1   4
BRANCH   1  16
ATOM     16  C   UNL     1       1.897   1.295  -1.287  0.00  0.00    +0.074 C 
ATOM     17  C   UNL     1       3.249   0.909  -1.933  0.00  0.00    +0.007 C 
ATOM     18  C   UNL     1       1.237   2.354  -2.191  0.00  0.00    +0.007 C 
BRANCH  16  19
ATOM     19  C   UNL     1       1.001   0.034  -1.217  0.00  0.00    +0.211 C 
BRANCH  19  20
ATOM     20  O   UNL     1       1.619  -0.992  -0.447  0.00  0.00    -0.448 OA
BRANCH  20  22
ATOM     21  O   UNL     1      -0.193  -2.361  -0.815  0.00  0.00    -0.250 OA
ATOM     22  C   UNL     1       0.909  -2.157  -0.320  0.00  0.00    +0.316 C 
BRANCH  22  23
ATOM     23  C   UNL     1       1.680  -3.173   0.528  0.00  0.00    +0.090 C 
ATOM     24  C   UNL     1       3.012  -3.508  -0.158  0.00  0.00    +0.011 C 
ATOM     25  C   UNL     1       0.852  -4.461   0.664  0.00  0.00    +0.011 C 
ATOM     26  C   UNL     1       1.929  -2.591   1.926  0.00  0.00    +0.011 C 
ENDBRANCH  22  23
ENDBRANCH  20  22
ENDBRANCH  19  20
ENDBRANCH  16  19
ENDBRANCH   1  16
BRANCH   1  27
ATOM     27  O   UNL     1       3.054   2.984   0.040  0.00  0.00    -0.376 OA
ATOM     28  H   UNL     1       3.866   2.717  -0.420  0.00  0.00    +0.211 HD
ENDBRANCH   1  27
TORSDOF 13
