REMARK  Name = 5288981
REMARK  4 active torsions:
REMARK  status: ('A' for Active; 'I' for Inactive)
REMARK    1  A    between atoms: C_1  and  C_2
REMARK    2  A    between atoms: C_1  and  C_12
REMARK    3  A    between atoms: C_12  and  C_15
REMARK    4  A    between atoms: C_12  and  N_18
REMARK                            x       y       z     vdW  Elec       q    Type
REMARK                         _______ _______ _______ _____ _____    ______ ____
ROOT
ATOM      1  C   UNL     1       1.251   0.544  -1.059  0.00  0.00    +0.013 C 
ENDROOT
BRANCH   1   2
ATOM      2  C   UNL     1       0.114  -0.335  -0.636  0.00  0.00    -0.024 C 
ATOM      3  C   UNL     1      -1.135   0.190  -0.264  0.00  0.00    -0.004 C 
ATOM      4  C   UNL     1      -2.168  -0.695   0.126  0.00  0.00    -0.000 C 
ATOM      5  C   UNL     1       0.340  -1.712  -0.623  0.00  0.00    -0.004 C 
ATOM      6  C   UNL     1      -1.380   1.572  -0.271  0.00  0.00    -0.000 C 
ATOM      7  C   UNL     1      -1.923  -2.078   0.132  0.00  0.00    -0.000 C 
ATOM      8  C   UNL     1      -0.677  -2.582  -0.240  0.00  0.00    -0.000 C 
ATOM      9  C   UNL     1      -3.417  -0.170   0.497  0.00  0.00    -0.000 C 
ATOM     10  C   UNL     1      -2.627   2.076   0.102  0.00  0.00    -0.000 C 
ATOM     11  C   UNL     1      -3.643   1.206   0.485  0.00  0.00    -0.000 C 
ENDBRANCH   1   2
BRANCH   1  12
ATOM     12  C   UNL     1       2.148   0.985   0.113  0.00  0.00    +0.017 C 
BRANCH  12  15
ATOM     13  O   UNL     1       3.970  -0.550  -0.349  0.00  0.00    -0.278 OA
ATOM     14  N   UNL     1       3.069  -0.535   1.764  0.00  0.00    -0.330 N 
ATOM     15  C   UNL     1       3.162  -0.098   0.460  0.00  0.00    +0.199 C 
ATOM     16  H   UNL     1       3.678  -1.234   2.093  0.00  0.00    +0.145 HD
ATOM     17  H   UNL     1       2.394  -0.147   2.366  0.00  0.00    +0.145 HD
ENDBRANCH  12  15
BRANCH  12  18
ATOM     18  N   UNL     1       2.917   2.181  -0.236  0.00  0.00    +0.388 N 
ATOM     19  H   UNL     1       2.278   2.938  -0.477  0.00  0.00    -0.089 HD
ATOM     20  H   UNL     1       3.519   1.976  -1.035  0.00  0.00    -0.089 HD
ATOM     21  H   UNL     1       3.491   2.460   0.559  0.00  0.00    -0.089 HD
ENDBRANCH  12  18
ENDBRANCH   1  12
TORSDOF 4
