REMARK  Name = 119828
REMARK  5 active torsions:
REMARK  status: ('A' for Active; 'I' for Inactive)
REMARK    1  A    between atoms: C_1  and  C_9
REMARK    2  A    between atoms: C_2  and  S_19
REMARK    3  A    between atoms: C_10  and  C_13
REMARK    4  A    between atoms: S_19  and  N_23
REMARK    5  A    between atoms: C_24  and  C_26
REMARK                            x       y       z     vdW  Elec       q    Type
REMARK                         _______ _______ _______ _____ _____    ______ ____
ROOT
ATOM      1  C   UNL     1       0.794  -1.304   0.014  0.00  0.00    +0.004 C 
ATOM      2  C   UNL     1      -1.963  -1.351   0.254  0.00  0.00    +0.125 C 
ATOM      3  C   UNL     1      -0.006  -1.216  -1.125  0.00  0.00    +0.002 C 
ATOM      4  C   UNL     1       0.205  -1.417   1.273  0.00  0.00    +0.002 C 
ATOM      5  C   UNL     1      -1.396  -1.238  -1.004  0.00  0.00    +0.020 C 
ATOM      6  C   UNL     1      -1.184  -1.441   1.394  0.00  0.00    +0.020 C 
ENDROOT
BRANCH   1   9
ATOM      7  O   UNL     1       4.306  -2.029  -0.357  0.00  0.00    -0.358 OA
ATOM      8  N   UNL     1       4.404  -0.647  -0.249  0.00  0.00    -0.077 NA
ATOM      9  C   UNL     1       2.225  -1.279  -0.110  0.00  0.00    +0.054 A 
ATOM     10  C   UNL     1       3.146  -0.222  -0.102  0.00  0.00    +0.123 A 
ATOM     11  C   UNL     1       3.001  -2.393  -0.273  0.00  0.00    +0.155 A 
ATOM     12  C   UNL     1       2.725  -3.834  -0.370  0.00  0.00    +0.075 C 
BRANCH  10  13
ATOM     13  C   UNL     1       2.870   1.184   0.041  0.00  0.00    +0.021 C 
ATOM     14  C   UNL     1       2.842   1.760   1.309  0.00  0.00    +0.002 C 
ATOM     15  C   UNL     1       2.630   1.963  -1.089  0.00  0.00    +0.002 C 
ATOM     16  C   UNL     1       2.574   3.122   1.447  0.00  0.00    +0.000 C 
ATOM     17  C   UNL     1       2.363   3.325  -0.951  0.00  0.00    +0.000 C 
ATOM     18  C   UNL     1       2.334   3.905   0.318  0.00  0.00    +0.000 C 
ENDBRANCH  10  13
ENDBRANCH   1   9
BRANCH   2  19
ATOM     19  S   UNL     1      -3.724  -1.381   0.406  0.00  0.00    +0.076 S 
ATOM     20  O   UNL     1      -4.024  -2.061   1.651  0.00  0.00    -0.150 OA
ATOM     21  O   UNL     1      -4.278  -1.857  -0.846  0.00  0.00    -0.150 OA
BRANCH  19  23
ATOM     22  O   UNL     1      -4.108   0.900  -1.688  0.00  0.00    -0.274 OA
ATOM     23  N   UNL     1      -4.064   0.287   0.578  0.00  0.00    -0.185 N 
ATOM     24  C   UNL     1      -4.189   1.215  -0.506  0.00  0.00    +0.241 C 
ATOM     25  H   UNL     1      -4.182   0.635   1.491  0.00  0.00    +0.177 HD
BRANCH  24  26
ATOM     26  C   UNL     1      -4.404   2.642  -0.065  0.00  0.00    +0.087 C 
ATOM     27  C   UNL     1      -3.078   3.369   0.049  0.00  0.00    +0.010 C 
ENDBRANCH  24  26
ENDBRANCH  19  23
ENDBRANCH   2  19
TORSDOF 5
