REMARK  Name = 119202
REMARK  6 active torsions:
REMARK  status: ('A' for Active; 'I' for Inactive)
REMARK    1  A    between atoms: C_9  and  O_21
REMARK    2  A    between atoms: O_21  and  C_23
REMARK    3  A    between atoms: C_23  and  C_24
REMARK    4  A    between atoms: C_24  and  C_25
REMARK    5  A    between atoms: C_25  and  C_27
REMARK    6  A    between atoms: C_27  and  O_28
REMARK                            x       y       z     vdW  Elec       q    Type
REMARK                         _______ _______ _______ _____ _____    ______ ____
ROOT
ATOM      1  O   UNL     1       7.658   0.583   1.227  0.00  0.00    -0.291 OA
ATOM      2  C   UNL     1       0.307  -1.161   0.105  0.00  0.00    +0.003 C 
ATOM      3  C   UNL     1      -0.654   0.003  -0.201  0.00  0.00    +0.037 C 
ATOM      4  C   UNL     1       1.706  -0.941  -0.476  0.00  0.00    +0.001 C 
ATOM      5  C   UNL     1       2.306   0.364   0.137  0.00  0.00    +0.003 C 
ATOM      6  C   UNL     1       3.771   0.660  -0.366  0.00  0.00    +0.016 C 
ATOM      7  C   UNL     1      -0.098   1.266   0.468  0.00  0.00    +0.003 C 
ATOM      8  C   UNL     1       1.336   1.570  -0.004  0.00  0.00    +0.000 C 
ATOM      9  C   UNL     1      -1.938  -0.555   0.444  0.00  0.00    +0.169 C 
ATOM     10  C   UNL     1      -0.487  -2.397  -0.313  0.00  0.00    +0.004 C 
ATOM     11  C   UNL     1       2.628  -2.132  -0.184  0.00  0.00    +0.004 C 
ATOM     12  C   UNL     1      -1.943  -2.042   0.039  0.00  0.00    +0.044 C 
ATOM     13  C   UNL     1       4.628  -0.605  -0.222  0.00  0.00    -0.042 C 
ATOM     14  C   UNL     1      -0.883   0.274  -1.710  0.00  0.00    +0.004 C 
ATOM     15  C   UNL     1       4.027  -1.893  -0.735  0.00  0.00    +0.022 C 
ATOM     16  C   UNL     1       4.365   1.806   0.504  0.00  0.00    +0.012 C 
ATOM     17  C   UNL     1       3.797   1.093  -1.849  0.00  0.00    +0.004 C 
ATOM     18  C   UNL     1       5.875   1.941   0.387  0.00  0.00    +0.069 C 
ATOM     19  C   UNL     1       5.864  -0.619   0.304  0.00  0.00    +0.029 C 
ATOM     20  C   UNL     1       6.545   0.632   0.709  0.00  0.00    +0.173 C 
ENDROOT
BRANCH   9  21
ATOM     21  O   UNL     1      -3.108   0.111   0.010  0.00  0.00    -0.452 OA
BRANCH  21  23
ATOM     22  O   UNL     1      -4.409  -1.323   1.264  0.00  0.00    -0.250 OA
ATOM     23  C   UNL     1      -4.297  -0.376   0.498  0.00  0.00    +0.317 C 
BRANCH  23  24
ATOM     24  C   UNL     1      -5.442   0.441  -0.061  0.00  0.00    +0.121 C 
BRANCH  24  25
ATOM     25  C   UNL     1      -6.800   0.027   0.494  0.00  0.00    +0.121 C 
BRANCH  25  27
ATOM     26  O   UNL     1      -7.724   1.813  -0.846  0.00  0.00    -0.250 OA
ATOM     27  C   UNL     1      -7.903   0.902  -0.048  0.00  0.00    +0.314 C 
BRANCH  27  28
ATOM     28  O   UNL     1      -9.125   0.557   0.428  0.00  0.00    -0.480 OA
ATOM     29  H   UNL     1      -9.208  -0.149   1.038  0.00  0.00    +0.295 HD
ENDBRANCH  27  28
ENDBRANCH  25  27
ENDBRANCH  24  25
ENDBRANCH  23  24
ENDBRANCH  21  23
ENDBRANCH   9  21
TORSDOF 6
