REMARK  Name = 1385
REMARK  5 active torsions:
REMARK  status: ('A' for Active; 'I' for Inactive)
REMARK    1  A    between atoms: C_2  and  N_9
REMARK    2  A    between atoms: C_3  and  C_20
REMARK    3  A    between atoms: C_10  and  C_14
REMARK    4  A    between atoms: C_20  and  O_21
REMARK    5  A    between atoms: O_21  and  C_22
REMARK                            x       y       z     vdW  Elec       q    Type
REMARK                         _______ _______ _______ _____ _____    ______ ____
ROOT
ATOM      1 CL   UNL     1      -4.122  -2.254  -0.003  0.00  0.00    -0.082 Cl
ATOM      2  C   UNL     1       0.072  -0.635  -0.063  0.00  0.00    +0.051 C 
ATOM      3  C   UNL     1      -2.277  -0.258   0.239  0.00  0.00    +0.087 C 
ATOM      4  C   UNL     1      -0.971   0.231   0.217  0.00  0.00    +0.022 C 
ATOM      5  C   UNL     1      -0.152  -1.977  -0.323  0.00  0.00    +0.016 C 
ATOM      6  C   UNL     1      -2.521  -1.607  -0.021  0.00  0.00    +0.064 C 
ATOM      7  C   UNL     1      -1.458  -2.466  -0.301  0.00  0.00    +0.013 C 
ENDROOT
BRANCH   2   9
ATOM      8  O   UNL     1       2.682  -2.043  -0.607  0.00  0.00    -0.269 OA
ATOM      9  N   UNL     1       1.398  -0.139  -0.085  0.00  0.00    -0.280 N 
ATOM     10  C   UNL     1       2.561  -0.849  -0.344  0.00  0.00    +0.258 C 
ATOM     11  H   UNL     1       1.507   0.821   0.105  0.00  0.00    +0.155 HD
BRANCH  10  14
ATOM     12  S   UNL     1       4.179   0.741  -1.787  0.00  0.00    -0.103 S 
ATOM     13  O   UNL     1       5.539   1.000   1.026  0.00  0.00    -0.478 OA
ATOM     14  C   UNL     1       3.756   0.006  -0.279  0.00  0.00    +0.109 C 
ATOM     15  C   UNL     1       5.818   1.374  -1.364  0.00  0.00    +0.110 C 
ATOM     16  C   UNL     1       5.743   1.989   0.018  0.00  0.00    +0.217 C 
ATOM     17  C   UNL     1       4.434   0.179   0.875  0.00  0.00    +0.126 C 
ATOM     18  C   UNL     1       4.099  -0.528   2.160  0.00  0.00    +0.073 C 
ENDBRANCH  10  14
ENDBRANCH   2   9
BRANCH   3  20
ATOM     19  O   UNL     1      -3.450   1.321   1.587  0.00  0.00    -0.245 OA
ATOM     20  C   UNL     1      -3.356   0.676   0.536  0.00  0.00    +0.342 C 
BRANCH  20  21
ATOM     21  O   UNL     1      -4.250   0.752  -0.495  0.00  0.00    -0.449 OA
BRANCH  21  22
ATOM     22  C   UNL     1      -5.358   1.641  -0.323  0.00  0.00    +0.169 C 
ATOM     23  C   UNL     1      -6.220   1.616  -1.576  0.00  0.00    +0.047 C 
ATOM     24  C   UNL     1      -6.143   1.229   0.913  0.00  0.00    +0.047 C 
ENDBRANCH  21  22
ENDBRANCH  20  21
ENDBRANCH   3  20
TORSDOF 5
