REMARK  Name = 24820112
REMARK  7 active torsions:
REMARK  status: ('A' for Active; 'I' for Inactive)
REMARK    1  A    between atoms: N_2  and  C_7
REMARK    2  A    between atoms: N_3  and  C_15
REMARK    3  A    between atoms: C_7  and  C_8
REMARK    4  A    between atoms: C_8  and  O_9
REMARK    5  A    between atoms: C_8  and  C_12
REMARK    6  A    between atoms: C_12  and  O_13
REMARK    7  A    between atoms: C_15  and  C_16
REMARK                            x       y       z     vdW  Elec       q    Type
REMARK                         _______ _______ _______ _____ _____    ______ ____
ROOT
ATOM      1  O   UNL     1      -0.313   1.080  -1.410  0.00  0.00    -0.253 OA
ATOM      2  N   UNL     1      -1.387   1.342   0.630  0.00  0.00    -0.286 N 
ATOM      3  N   UNL     1       0.877   1.713   0.480  0.00  0.00    -0.285 N 
ATOM      4  C   UNL     1      -0.277   1.353  -0.211  0.00  0.00    +0.301 C 
ATOM      5  H   UNL     1      -1.261   1.574   1.579  0.00  0.00    +0.151 HD
ATOM      6  H   UNL     1       0.804   1.913   1.442  0.00  0.00    +0.151 HD
ENDROOT
BRANCH   2   7
ATOM      7  C   UNL     1      -2.713   1.003   0.171  0.00  0.00    +0.132 C 
BRANCH   7   8
ATOM      8  C   UNL     1      -2.986  -0.491   0.295  0.00  0.00    +0.229 C 
BRANCH   8   9
ATOM      9  O   UNL     1      -2.910  -0.853   1.667  0.00  0.00    -0.373 OA
ATOM     10  H   UNL     1      -2.027  -0.644   2.009  0.00  0.00    +0.211 HD
ENDBRANCH   8   9
BRANCH   8  12
ATOM     11  O   UNL     1      -5.280  -1.286   0.486  0.00  0.00    -0.248 OA
ATOM     12  C   UNL     1      -4.374  -0.833  -0.198  0.00  0.00    +0.343 C 
BRANCH  12  13
ATOM     13  O   UNL     1      -4.486  -0.596  -1.530  0.00  0.00    -0.478 OA
ATOM     14  H   UNL     1      -3.758  -0.247  -2.006  0.00  0.00    +0.295 HD
ENDBRANCH  12  13
ENDBRANCH   8  12
ENDBRANCH   7   8
ENDBRANCH   2   7
BRANCH   3  15
ATOM     15  C   UNL     1       2.176   1.806  -0.144  0.00  0.00    +0.118 C 
BRANCH  15  16
ATOM     16  C   UNL     1       2.921   0.504  -0.090  0.00  0.00    -0.003 C 
ATOM     17  C   UNL     1       3.752   0.220   0.994  0.00  0.00    -0.003 C 
ATOM     18  C   UNL     1       2.781  -0.423  -1.123  0.00  0.00    -0.003 C 
ATOM     19  C   UNL     1       4.444  -0.990   1.044  0.00  0.00    -0.000 C 
ATOM     20  C   UNL     1       3.473  -1.633  -1.073  0.00  0.00    -0.000 C 
ATOM     21  C   UNL     1       4.304  -1.917   0.011  0.00  0.00    -0.000 C 
ENDBRANCH  15  16
ENDBRANCH   3  15
TORSDOF 7
