REMARK  Name = 16122580
REMARK  13 active torsions:
REMARK  status: ('A' for Active; 'I' for Inactive)
REMARK    1  A    between atoms: S_1  and  C_4
REMARK    2  A    between atoms: S_1  and  N_19
REMARK    3  A    between atoms: C_12  and  O_14
REMARK    4  A    between atoms: O_14  and  C_15
REMARK    5  A    between atoms: C_15  and  C_16
REMARK    6  A    between atoms: C_16  and  C_17
REMARK    7  A    between atoms: N_19  and  C_21
REMARK    8  A    between atoms: C_21  and  C_23
REMARK    9  A    between atoms: C_21  and  C_26
REMARK   10  A    between atoms: C_23  and  O_24
REMARK   11  A    between atoms: C_26  and  C_27
REMARK   12  A    between atoms: C_27  and  C_29
REMARK   13  A    between atoms: C_29  and  O_30
REMARK                            x       y       z     vdW  Elec       q    Type
REMARK                         _______ _______ _______ _____ _____    ______ ____
ROOT
ATOM      1  S   UNL     1      -2.588  -2.280   0.863  0.00  0.00    +0.061 S 
ATOM      2  O   UNL     1      -3.064  -3.290  -0.062  0.00  0.00    -0.153 OA
ATOM      3  O   UNL     1      -2.414  -2.600   2.267  0.00  0.00    -0.153 OA
ENDROOT
BRANCH   1   4
ATOM      4  C   UNL     1      -1.029  -1.692   0.272  0.00  0.00    +0.122 C 
ATOM      5  C   UNL     1       1.133  -0.667   0.712  0.00  0.00    +0.002 C 
ATOM      6  C   UNL     1       1.447  -0.756  -0.665  0.00  0.00    +0.003 C 
ATOM      7  C   UNL     1      -0.110  -1.139   1.164  0.00  0.00    +0.020 C 
ATOM      8  C   UNL     1      -0.720  -1.779  -1.082  0.00  0.00    +0.020 C 
ATOM      9  C   UNL     1       0.510  -1.315  -1.549  0.00  0.00    +0.001 C 
ATOM     10  C   UNL     1       2.690  -0.284  -1.118  0.00  0.00    +0.037 C 
ATOM     11  C   UNL     1       2.071  -0.108   1.595  0.00  0.00    +0.003 C 
ATOM     12  C   UNL     1       3.610   0.268  -0.226  0.00  0.00    +0.139 C 
ATOM     13  C   UNL     1       3.300   0.356   1.128  0.00  0.00    +0.037 C 
BRANCH  12  14
ATOM     14  O   UNL     1       4.811   0.720  -0.680  0.00  0.00    -0.475 OA
BRANCH  14  15
ATOM     15  C   UNL     1       5.914   0.651   0.222  0.00  0.00    +0.205 C 
BRANCH  15  16
ATOM     16  C   UNL     1       7.196   0.483  -0.581  0.00  0.00    +0.047 C 
BRANCH  16  17
ATOM     17  C   UNL     1       8.420   0.386   0.326  0.00  0.00    +0.004 C 
ATOM     18  C   UNL     1       9.693   0.175  -0.477  0.00  0.00    +0.000 C 
ENDBRANCH  16  17
ENDBRANCH  15  16
ENDBRANCH  14  15
ENDBRANCH  12  14
ENDBRANCH   1   4
BRANCH   1  19
ATOM     19  N   UNL     1      -3.559  -0.891   0.731  0.00  0.00    -0.170 NA
ATOM     20  H   UNL     1      -3.146  -0.184   1.339  0.00  0.00    +0.149 HD
BRANCH  19  21
ATOM     21  C   UNL     1      -3.760  -0.254  -0.590  0.00  0.00    +0.174 C 
BRANCH  21  23
ATOM     22  O   UNL     1      -6.094  -0.831  -0.220  0.00  0.00    -0.249 OA
ATOM     23  C   UNL     1      -5.221  -0.380  -0.951  0.00  0.00    +0.330 C 
BRANCH  23  24
ATOM     24  O   UNL     1      -5.482   0.090  -2.199  0.00  0.00    -0.479 OA
ATOM     25  H   UNL     1      -4.786   0.428  -2.727  0.00  0.00    +0.295 HD
ENDBRANCH  23  24
ENDBRANCH  21  23
BRANCH  21  26
ATOM     26  C   UNL     1      -3.227   1.183  -0.578  0.00  0.00    +0.040 C 
BRANCH  26  27
ATOM     27  C   UNL     1      -3.894   2.149   0.404  0.00  0.00    +0.111 C 
BRANCH  27  29
ATOM     28  O   UNL     1      -2.340   3.865  -0.286  0.00  0.00    -0.250 OA
ATOM     29  C   UNL     1      -3.314   3.541   0.382  0.00  0.00    +0.314 C 
BRANCH  29  30
ATOM     30  O   UNL     1      -3.975   4.399   1.198  0.00  0.00    -0.480 OA
ATOM     31  H   UNL     1      -4.716   4.102   1.689  0.00  0.00    +0.295 HD
ENDBRANCH  29  30
ENDBRANCH  27  29
ENDBRANCH  26  27
ENDBRANCH  21  26
ENDBRANCH  19  21
ENDBRANCH   1  19
TORSDOF 13
