REMARK  Name = 11524144
REMARK  6 active torsions:
REMARK  status: ('A' for Active; 'I' for Inactive)
REMARK    1  A    between atoms: C_1  and  O_22
REMARK    2  A    between atoms: C_2  and  C_10
REMARK    3  A    between atoms: C_12  and  C_17
REMARK    4  A    between atoms: O_22  and  C_23
REMARK    5  A    between atoms: C_23  and  C_24
REMARK    6  A    between atoms: C_24  and  N_25
REMARK                            x       y       z     vdW  Elec       q    Type
REMARK                         _______ _______ _______ _____ _____    ______ ____
ROOT
ATOM      1  C   UNL     1      -2.899   1.383   0.196  0.00  0.00    +0.138 C 
ATOM      2  C   UNL     1      -0.141   1.041   0.128  0.00  0.00    -0.001 C 
ATOM      3  C   UNL     1      -2.105   2.323  -0.450  0.00  0.00    +0.037 C 
ATOM      4  C   UNL     1      -2.328   0.273   0.808  0.00  0.00    +0.037 C 
ATOM      5  C   UNL     1      -0.721   2.152  -0.484  0.00  0.00    +0.003 C 
ATOM      6  C   UNL     1      -0.944   0.102   0.774  0.00  0.00    +0.003 C 
ENDROOT
BRANCH   2  10
ATOM      7  N   UNL     1       3.567   1.634   0.000  0.00  0.00    -0.193 N 
ATOM      8  N   UNL     1       3.241  -0.746   0.036  0.00  0.00    -0.231 NA
ATOM      9  N   UNL     1       4.568   2.552  -0.049  0.00  0.00    -0.179 NA
ATOM     10  C   UNL     1       1.318   0.861   0.093  0.00  0.00    +0.019 C 
ATOM     11  C   UNL     1       4.068   0.334  -0.007  0.00  0.00    +0.137 C 
ATOM     12  C   UNL     1       5.439   0.446  -0.061  0.00  0.00    +0.121 C 
ATOM     13  C   UNL     1       2.196   1.876   0.049  0.00  0.00    +0.145 C 
ATOM     14  C   UNL     1       1.968  -0.488   0.082  0.00  0.00    +0.097 C 
ATOM     15  C   UNL     1       5.685   1.825  -0.085  0.00  0.00    +0.103 C 
BRANCH  12  17
ATOM     16  N   UNL     1       8.111  -2.834  -0.136  0.00  0.00    -0.242 NA
ATOM     17  C   UNL     1       6.342  -0.664  -0.086  0.00  0.00    -0.007 C 
ATOM     18  C   UNL     1       7.616  -0.545   0.465  0.00  0.00    +0.017 C 
ATOM     19  C   UNL     1       5.956  -1.871  -0.662  0.00  0.00    +0.017 C 
ATOM     20  C   UNL     1       8.453  -1.648   0.415  0.00  0.00    +0.099 C 
ATOM     21  C   UNL     1       6.868  -2.915  -0.661  0.00  0.00    +0.099 C 
ENDBRANCH  12  17
ENDBRANCH   2  10
BRANCH   1  22
ATOM     22  O   UNL     1      -4.259   1.551   0.229  0.00  0.00    -0.478 OA
BRANCH  22  23
ATOM     23  C   UNL     1      -5.050   0.371   0.275  0.00  0.00    +0.183 C 
BRANCH  23  24
ATOM     24  C   UNL     1      -6.386   0.652  -0.395  0.00  0.00    -0.029 C 
BRANCH  24  25
ATOM     25  N   UNL     1      -7.229  -0.543  -0.386  0.00  0.00    +0.389 N 
ATOM     26  C   UNL     1      -7.521  -0.956   0.994  0.00  0.00    -0.077 C 
ATOM     27  C   UNL     1      -8.466  -0.304  -1.142  0.00  0.00    -0.077 C 
ATOM     28  C   UNL     1      -8.362  -2.233   1.022  0.00  0.00    -0.023 C 
ATOM     29  C   UNL     1      -9.338  -1.560  -1.184  0.00  0.00    -0.023 C 
ATOM     30  C   UNL     1      -9.648  -2.068   0.219  0.00  0.00    -0.004 C 
ATOM     31  H   UNL     1      -6.724  -1.303  -0.841  0.00  0.00    -0.080 HD
ENDBRANCH  24  25
ENDBRANCH  23  24
ENDBRANCH  22  23
ENDBRANCH   1  22
TORSDOF 6
