REMARK  Name = 5327096
REMARK  3 active torsions:
REMARK  status: ('A' for Active; 'I' for Inactive)
REMARK    1  A    between atoms: C_5  and  C_10
REMARK    2  A    between atoms: C_8  and  C_13
REMARK    3  A    between atoms: C_13  and  C_15
REMARK                            x       y       z     vdW  Elec       q    Type
REMARK                         _______ _______ _______ _____ _____    ______ ____
ROOT
ATOM      1  S   UNL     1       2.618   0.578   1.214  0.00  0.00    -0.056 S 
ATOM      2  O   UNL     1      -0.961  -1.629  -0.756  0.00  0.00    -0.274 OA
ATOM      3  N   UNL     1       0.192  -0.344   0.843  0.00  0.00    -0.264 N 
ATOM      4  N   UNL     1       1.872  -0.847  -0.810  0.00  0.00    -0.223 NA
ATOM      5  C   UNL     1       3.791   0.202   0.021  0.00  0.00    +0.029 C 
ATOM      6  C   UNL     1       3.212  -0.558  -0.974  0.00  0.00    +0.103 C 
ATOM      7  C   UNL     1       1.478  -0.299   0.299  0.00  0.00    +0.165 C 
ATOM      8  C   UNL     1      -0.910  -0.990   0.290  0.00  0.00    +0.232 C 
ATOM      9  H   UNL     1       0.052   0.126   1.697  0.00  0.00    +0.157 HD
ENDROOT
BRANCH   5  10
ATOM     10  C   UNL     1       5.179   0.684   0.155  0.00  0.00    +0.030 C 
ATOM     11  C   UNL     1       5.604   1.643  -0.983  0.00  0.00    +0.005 C 
ATOM     12  C   UNL     1       6.214  -0.461   0.271  0.00  0.00    +0.005 C 
ENDBRANCH   5  10
BRANCH   8  13
ATOM     13  C   UNL     1      -2.143  -0.818   1.178  0.00  0.00    +0.113 C 
BRANCH  13  15
ATOM     14  N   UNL     1      -5.303  -0.305  -0.810  0.00  0.00    -0.243 NA
ATOM     15  C   UNL     1      -3.284  -0.137   0.509  0.00  0.00    +0.006 C 
ATOM     16  C   UNL     1      -3.419   1.246   0.555  0.00  0.00    -0.001 C 
ATOM     17  C   UNL     1      -4.244  -0.861  -0.180  0.00  0.00    +0.095 C 
ATOM     18  C   UNL     1      -4.496   1.854  -0.081  0.00  0.00    +0.020 C 
ATOM     19  C   UNL     1      -5.401   1.042  -0.744  0.00  0.00    +0.099 C 
ENDBRANCH  13  15
ENDBRANCH   8  13
TORSDOF 3
