REMARK  Name = 1786
REMARK  8 active torsions:
REMARK  status: ('A' for Active; 'I' for Inactive)
REMARK    1  A    between atoms: O_1  and  C_2
REMARK    2  A    between atoms: O_1  and  C_13
REMARK    3  A    between atoms: C_3  and  C_10
REMARK    4  A    between atoms: C_13  and  C_14
REMARK    5  A    between atoms: C_14  and  C_15
REMARK    6  A    between atoms: C_15  and  C_16
REMARK    7  A    between atoms: C_16  and  C_17
REMARK    8  A    between atoms: C_17  and  C_20
REMARK                            x       y       z     vdW  Elec       q    Type
REMARK                         _______ _______ _______ _____ _____    ______ ____
ROOT
ATOM      1  O   UNL     1      -0.910  -0.273   1.375  0.00  0.00    -0.475 OA
ENDROOT
BRANCH   1   2
ATOM      2  C   UNL     1      -2.209  -0.199   0.944  0.00  0.00    +0.139 C 
ATOM      3  C   UNL     1      -4.845  -0.048   0.072  0.00  0.00    +0.053 C 
ATOM      4  C   UNL     1      -2.704   1.004   0.455  0.00  0.00    +0.037 C 
ATOM      5  C   UNL     1      -3.018  -1.328   1.002  0.00  0.00    +0.037 C 
ATOM      6  C   UNL     1      -4.027   1.080   0.017  0.00  0.00    +0.008 C 
ATOM      7  C   UNL     1      -4.341  -1.252   0.565  0.00  0.00    +0.008 C 
BRANCH   3  10
ATOM      8  O   UNL     1      -6.934  -1.126  -0.291  0.00  0.00    -0.458 OA
ATOM      9  N   UNL     1      -6.827   1.085  -0.863  0.00  0.00    -0.234 NA
ATOM     10  C   UNL     1      -6.239   0.032  -0.388  0.00  0.00    +0.220 C 
ATOM     11  C   UNL     1      -8.150  -0.870  -0.976  0.00  0.00    +0.233 C 
ATOM     12  C   UNL     1      -8.204   0.635  -1.089  0.00  0.00    +0.176 C 
ENDBRANCH   3  10
ENDBRANCH   1   2
BRANCH   1  13
ATOM     13  C   UNL     1       0.025   0.591   0.744  0.00  0.00    +0.205 C 
BRANCH  13  14
ATOM     14  C   UNL     1       1.397  -0.066   0.770  0.00  0.00    +0.047 C 
BRANCH  14  15
ATOM     15  C   UNL     1       2.453   0.804   0.092  0.00  0.00    +0.004 C 
BRANCH  15  16
ATOM     16  C   UNL     1       3.836   0.156   0.160  0.00  0.00    +0.008 C 
BRANCH  16  17
ATOM     17  C   UNL     1       4.888   1.014  -0.549  0.00  0.00    +0.067 C 
BRANCH  17  20
ATOM     18  O   UNL     1       6.978   0.773   0.613  0.00  0.00    -0.358 OA
ATOM     19  N   UNL     1       8.204   0.122   0.551  0.00  0.00    -0.082 NA
ATOM     20  C   UNL     1       6.260   0.397  -0.454  0.00  0.00    +0.154 C 
ATOM     21  C   UNL     1       6.923  -0.469  -1.237  0.00  0.00    +0.054 C 
ATOM     22  C   UNL     1       8.148  -0.614  -0.563  0.00  0.00    +0.101 C 
ATOM     23  C   UNL     1       9.298  -1.448  -0.948  0.00  0.00    +0.056 C 
ENDBRANCH  17  20
ENDBRANCH  16  17
ENDBRANCH  15  16
ENDBRANCH  14  15
ENDBRANCH  13  14
ENDBRANCH   1  13
TORSDOF 8
