REMARK  Name = 5289221
REMARK  8 active torsions:
REMARK  status: ('A' for Active; 'I' for Inactive)
REMARK    1  A    between atoms: C_1  and  C_7
REMARK    2  A    between atoms: C_6  and  O_19
REMARK    3  A    between atoms: C_8  and  C_12
REMARK    4  A    between atoms: C_9  and  C_16
REMARK    5  A    between atoms: C_16  and  O_17
REMARK    6  A    between atoms: O_19  and  P_20
REMARK    7  A    between atoms: P_20  and  O_22
REMARK    8  A    between atoms: P_20  and  O_24
REMARK                            x       y       z     vdW  Elec       q    Type
REMARK                         _______ _______ _______ _____ _____    ______ ____
ROOT
ATOM      1  C   UNL     1       0.536  -0.601  -0.347  0.00  0.00    -0.021 C 
ATOM      2  C   UNL     1      -0.442  -0.047  -1.173  0.00  0.00    -0.001 C 
ATOM      3  C   UNL     1       0.174  -1.186   0.867  0.00  0.00    -0.001 C 
ATOM      4  C   UNL     1      -1.782  -0.080  -0.786  0.00  0.00    +0.037 C 
ATOM      5  C   UNL     1      -1.165  -1.218   1.254  0.00  0.00    +0.037 C 
ATOM      6  C   UNL     1      -2.143  -0.665   0.427  0.00  0.00    +0.149 C 
ENDROOT
BRANCH   1   7
ATOM      7  C   UNL     1       1.967  -0.566  -0.760  0.00  0.00    +0.043 C 
ATOM      8  C   UNL     1       2.779   0.660  -0.470  0.00  0.00    +0.092 C 
ATOM      9  C   UNL     1       3.063  -0.621   0.259  0.00  0.00    +0.112 C 
BRANCH   8  12
ATOM     10  O   UNL     1       2.277   1.843   1.479  0.00  0.00    -0.275 OA
ATOM     11  N   UNL     1       1.452   2.652  -0.542  0.00  0.00    -0.303 N 
ATOM     12  C   UNL     1       2.150   1.772   0.263  0.00  0.00    +0.223 C 
ATOM     13  C   UNL     1       0.758   3.812  -0.029  0.00  0.00    +0.111 C 
ATOM     14  H   UNL     1       1.426   2.481  -1.511  0.00  0.00    +0.149 HD
ENDBRANCH   8  12
BRANCH   9  16
ATOM     15  O   UNL     1       5.417  -0.789   0.071  0.00  0.00    -0.250 OA
ATOM     16  C   UNL     1       4.325  -1.330  -0.018  0.00  0.00    +0.314 C 
BRANCH  16  17
ATOM     17  O   UNL     1       4.124  -2.621  -0.373  0.00  0.00    -0.480 OA
ATOM     18  H   UNL     1       3.253  -2.964  -0.420  0.00  0.00    +0.295 HD
ENDBRANCH  16  17
ENDBRANCH   9  16
ENDBRANCH   1   7
BRANCH   6  19
ATOM     19  O   UNL     1      -3.451  -0.697   0.805  0.00  0.00    -0.403 OA
BRANCH  19  20
ATOM     20  P   UNL     1      -4.685  -0.095  -0.053  0.00  0.00    +0.528 P 
ATOM     21  O   UNL     1      -4.610   1.377  -0.337  0.00  0.00    -0.216 OA
BRANCH  20  22
ATOM     22  O   UNL     1      -4.769  -1.056  -1.351  0.00  0.00    -0.293 OA
ATOM     23  H   UNL     1      -4.814  -1.982  -1.065  0.00  0.00    +0.223 HD
ENDBRANCH  20  22
BRANCH  20  24
ATOM     24  O   UNL     1      -5.976  -0.544   0.814  0.00  0.00    -0.293 OA
ATOM     25  H   UNL     1      -5.953  -1.503   0.955  0.00  0.00    +0.223 HD
ENDBRANCH  20  24
ENDBRANCH  19  20
ENDBRANCH   6  19
TORSDOF 8
