REMARK  Name = 42628063
REMARK  6 active torsions:
REMARK  status: ('A' for Active; 'I' for Inactive)
REMARK    1  A    between atoms: C_1  and  N_3
REMARK    2  A    between atoms: C_1  and  C_21
REMARK    3  A    between atoms: C_4  and  N_10
REMARK    4  A    between atoms: C_11  and  C_15
REMARK    5  A    between atoms: N_20  and  C_24
REMARK    6  A    between atoms: C_27  and  N_31
REMARK                            x       y       z     vdW  Elec       q    Type
REMARK                         _______ _______ _______ _____ _____    ______ ____
ROOT
ATOM      1  C   UNL     1       0.804  -2.660  -0.709  0.00  0.00    +0.010 C 
ENDROOT
BRANCH   1   3
ATOM      2  F   UNL     1       4.629  -3.539   1.445  0.00  0.00    -0.238 F 
ATOM      3  N   UNL     1       1.997  -2.537   0.115  0.00  0.00    +0.396 N 
ATOM      4  C   UNL     1       3.934  -1.418   0.720  0.00  0.00    +0.082 C 
ATOM      5  C   UNL     1       4.317  -2.840   0.321  0.00  0.00    +0.156 C 
ATOM      6  C   UNL     1       2.578  -1.195   0.062  0.00  0.00    -0.054 C 
ATOM      7  C   UNL     1       3.070  -3.440  -0.315  0.00  0.00    -0.039 C 
ATOM      8  H   UNL     1       1.673  -2.766   1.054  0.00  0.00    -0.079 HD
BRANCH   4  10
ATOM      9  O   UNL     1       4.506   1.080   2.014  0.00  0.00    -0.270 OA
ATOM     10  N   UNL     1       4.902  -0.440   0.307  0.00  0.00    -0.302 N 
ATOM     11  C   UNL     1       5.112   0.748   0.999  0.00  0.00    +0.252 C 
ATOM     12  H   UNL     1       5.439  -0.618  -0.498  0.00  0.00    +0.150 HD
BRANCH  11  15
ATOM     13 CL   UNL     1       9.007   2.961  -2.245  0.00  0.00    -0.075 Cl
ATOM     14  S   UNL     1       6.954   1.213  -1.003  0.00  0.00    -0.071 S 
ATOM     15  C   UNL     1       6.132   1.666   0.429  0.00  0.00    +0.084 C 
ATOM     16  C   UNL     1       6.543   2.895   0.895  0.00  0.00    +0.012 C 
ATOM     17  C   UNL     1       7.548   3.473   0.066  0.00  0.00    +0.019 C 
ATOM     18  C   UNL     1       7.865   2.663  -1.003  0.00  0.00    +0.087 C 
ENDBRANCH  11  15
ENDBRANCH   4  10
ENDBRANCH   1   3
BRANCH   1  21
ATOM     19  O   UNL     1      -0.466  -2.078   1.258  0.00  0.00    -0.277 OA
ATOM     20  N   UNL     1      -1.312  -1.561  -0.870  0.00  0.00    -0.284 N 
ATOM     21  C   UNL     1      -0.386  -2.076   0.034  0.00  0.00    +0.205 C 
ATOM     22  H   UNL     1      -1.081  -1.641  -1.823  0.00  0.00    +0.155 HD
BRANCH  20  24
ATOM     23  F   UNL     1      -2.983  -0.615  -2.891  0.00  0.00    -0.203 F 
ATOM     24  C   UNL     1      -2.547  -0.935  -0.577  0.00  0.00    +0.078 C 
ATOM     25  C   UNL     1      -3.361  -0.472  -1.612  0.00  0.00    +0.155 C 
ATOM     26  C   UNL     1      -2.951  -0.780   0.749  0.00  0.00    +0.018 C 
ATOM     27  C   UNL     1      -4.981   0.298   0.005  0.00  0.00    +0.061 C 
ATOM     28  C   UNL     1      -4.577   0.144  -1.321  0.00  0.00    +0.046 C 
ATOM     29  C   UNL     1      -4.168  -0.164   1.040  0.00  0.00    +0.017 C 
BRANCH  27  31
ATOM     30  O   UNL     1      -7.364   0.149  -1.627  0.00  0.00    -0.269 OA
ATOM     31  N   UNL     1      -6.246   0.939   0.308  0.00  0.00    -0.233 N 
ATOM     32  C   UNL     1      -7.333   0.822  -0.597  0.00  0.00    +0.257 C 
ATOM     33  C   UNL     1      -6.412   1.654   1.496  0.00  0.00    +0.072 C 
ATOM     34  C   UNL     1      -8.586   1.552  -0.231  0.00  0.00    +0.059 C 
ATOM     35  C   UNL     1      -7.554   2.271   1.817  0.00  0.00    +0.017 C 
ATOM     36  C   UNL     1      -8.670   2.222   0.921  0.00  0.00    +0.006 C 
ENDBRANCH  27  31
ENDBRANCH  20  24
ENDBRANCH   1  21
TORSDOF 6
