REMARK  Name = 3360
REMARK  10 active torsions:
REMARK  status: ('A' for Active; 'I' for Inactive)
REMARK    1  A    between atoms: N_1  and  C_5
REMARK    2  A    between atoms: N_1  and  C_17
REMARK    3  A    between atoms: C_7  and  C_16
REMARK    4  A    between atoms: C_18  and  C_24
REMARK    5  A    between atoms: C_24  and  O_25
REMARK    6  A    between atoms: O_25  and  C_26
REMARK    7  A    between atoms: C_26  and  C_27
REMARK    8  A    between atoms: C_27  and  O_28
REMARK    9  A    between atoms: C_27  and  C_30
REMARK   10  A    between atoms: C_30  and  O_31
REMARK                            x       y       z     vdW  Elec       q    Type
REMARK                         _______ _______ _______ _____ _____    ______ ____
ROOT
ATOM      1  N   UNL     1      -0.094   0.636  -0.121  0.00  0.00    -0.312 N 
ATOM      2  H   UNL     1      -0.427  -0.281  -0.255  0.00  0.00    +0.152 HD
ENDROOT
BRANCH   1   5
ATOM      3  N   UNL     1       3.957   0.895   0.947  0.00  0.00    -0.244 NA
ATOM      4  C   UNL     1       2.194  -0.265  -0.217  0.00  0.00    +0.031 C 
ATOM      5  C   UNL     1       1.277   0.700   0.223  0.00  0.00    +0.051 C 
ATOM      6  C   UNL     1       3.542  -0.126   0.173  0.00  0.00    +0.086 C 
ATOM      7  C   UNL     1       4.453  -1.084  -0.265  0.00  0.00    +0.089 C 
ATOM      8  C   UNL     1       1.796  -1.343  -1.025  0.00  0.00    +0.003 C 
ATOM      9  C   UNL     1       1.701   1.753   1.020  0.00  0.00    +0.035 C 
ATOM     10  C   UNL     1       4.058  -2.157  -1.068  0.00  0.00    +0.005 C 
ATOM     11  C   UNL     1       2.728  -2.287  -1.449  0.00  0.00    +0.000 C 
ATOM     12  C   UNL     1       3.040   1.804   1.351  0.00  0.00    +0.100 C 
BRANCH   7  16
ATOM     13  F   UNL     1       6.661  -1.997  -0.386  0.00  0.00    -0.166 F 
ATOM     14  F   UNL     1       6.493   0.164  -0.305  0.00  0.00    -0.166 F 
ATOM     15  F   UNL     1       6.079  -1.023   1.469  0.00  0.00    -0.166 F 
ATOM     16  C   UNL     1       5.897  -0.987   0.119  0.00  0.00    +0.420 C 
ENDBRANCH   7  16
ENDBRANCH   1   5
BRANCH   1  17
ATOM     17  C   UNL     1      -1.072   1.627  -0.310  0.00  0.00    +0.055 C 
ATOM     18  C   UNL     1      -2.421   1.373  -0.043  0.00  0.00    +0.089 C 
ATOM     19  C   UNL     1      -0.688   2.890  -0.772  0.00  0.00    +0.015 C 
ATOM     20  C   UNL     1      -3.376   2.371  -0.235  0.00  0.00    +0.008 C 
ATOM     21  C   UNL     1      -1.644   3.888  -0.965  0.00  0.00    +0.001 C 
ATOM     22  C   UNL     1      -2.987   3.629  -0.697  0.00  0.00    +0.000 C 
BRANCH  18  24
ATOM     23  O   UNL     1      -2.167  -0.686   1.132  0.00  0.00    -0.245 OA
ATOM     24  C   UNL     1      -2.859   0.069   0.441  0.00  0.00    +0.342 C 
BRANCH  24  25
ATOM     25  O   UNL     1      -4.133  -0.212   0.033  0.00  0.00    -0.443 OA
BRANCH  25  26
ATOM     26  C   UNL     1      -4.679  -1.469   0.447  0.00  0.00    +0.240 C 
BRANCH  26  27
ATOM     27  C   UNL     1      -6.097  -1.620  -0.090  0.00  0.00    +0.184 C 
BRANCH  27  28
ATOM     28  O   UNL     1      -6.906  -0.573   0.450  0.00  0.00    -0.378 OA
ATOM     29  H   UNL     1      -6.533   0.287   0.198  0.00  0.00    +0.211 HD
ENDBRANCH  27  28
BRANCH  27  30
ATOM     30  C   UNL     1      -6.712  -2.950   0.325  0.00  0.00    +0.170 C 
BRANCH  30  31
ATOM     31  O   UNL     1      -8.041  -3.023  -0.180  0.00  0.00    -0.379 OA
ATOM     32  H   UNL     1      -8.440  -3.868   0.080  0.00  0.00    +0.211 HD
ENDBRANCH  30  31
ENDBRANCH  27  30
ENDBRANCH  26  27
ENDBRANCH  25  26
ENDBRANCH  24  25
ENDBRANCH  18  24
ENDBRANCH   1  17
TORSDOF 10
