44112
  -OEChem-10051721283D

 56 58  0     1  0  0  0  0  0999 V2000
    1.1532   -1.8587   -0.3064 O   0  0  0  0  0  0  0  0  0  0  0  0
    0.7256    0.8875   -0.3646 O   0  0  0  0  0  0  0  0  0  0  0  0
    0.2986   -2.4254   -2.3673 O   0  0  0  0  0  0  0  0  0  0  0  0
    4.1919    0.2559   -0.2363 N   0  0  0  0  0  0  0  0  0  0  0  0
   -3.5127    2.4116    0.7979 N   0  0  0  0  0  0  0  0  0  0  0  0
    5.1444    0.5539    0.8247 C   0  0  0  0  0  0  0  0  0  0  0  0
    3.1629   -0.6631    0.2306 C   0  0  0  0  0  0  0  0  0  0  0  0
    2.1410   -0.9859   -0.8622 C   0  0  2  0  0  0  0  0  0  0  0  0
    5.8201   -0.7445    1.2811 C   0  0  0  0  0  0  0  0  0  0  0  0
    4.3881    1.1932    1.9940 C   0  0  0  0  0  0  0  0  0  0  0  0
    6.1928    1.5298    0.2801 C   0  0  0  0  0  0  0  0  0  0  0  0
    1.4392    0.2511   -1.4185 C   0  0  0  0  0  0  0  0  0  0  0  0
   -1.4881    1.7140    0.1726 C   0  0  0  0  0  0  0  0  0  0  0  0
   -0.4012    1.5827   -0.7144 C   0  0  0  0  0  0  0  0  0  0  0  0
   -2.6098    2.4356   -0.2410 C   0  0  0  0  0  0  0  0  0  0  0  0
   -1.7496    1.2572    1.4948 C   0  0  0  0  0  0  0  0  0  0  0  0
   -3.0019    1.7019    1.8513 C   0  0  0  0  0  0  0  0  0  0  0  0
   -0.4768    2.1765   -1.9796 C   0  0  0  0  0  0  0  0  0  0  0  0
   -2.6995    3.0347   -1.5025 C   0  0  0  0  0  0  0  0  0  0  0  0
    0.1821   -2.2700   -1.1616 C   0  0  0  0  0  0  0  0  0  0  0  0
   -1.6093    2.8908   -2.3655 C   0  0  0  0  0  0  0  0  0  0  0  0
   -3.7685    1.5233    3.0980 C   0  0  0  0  0  0  0  0  0  0  0  0
   -1.0850   -2.5154   -0.4276 C   0  0  0  0  0  0  0  0  0  0  0  0
   -2.2836   -2.3237   -1.0838 C   0  0  0  0  0  0  0  0  0  0  0  0
   -1.0247   -2.9278    0.8878 C   0  0  0  0  0  0  0  0  0  0  0  0
   -3.4741   -2.5545   -0.3945 C   0  0  0  0  0  0  0  0  0  0  0  0
   -2.2152   -3.1587    1.5771 C   0  0  0  0  0  0  0  0  0  0  0  0
   -3.4398   -2.9719    0.9359 C   0  0  0  0  0  0  0  0  0  0  0  0
    3.5763   -1.6264    0.5484 H   0  0  0  0  0  0  0  0  0  0  0  0
    2.5975   -0.2723    1.0825 H   0  0  0  0  0  0  0  0  0  0  0  0
    4.6720   -0.1485   -1.0399 H   0  0  0  0  0  0  0  0  0  0  0  0
    2.6565   -1.5127   -1.6766 H   0  0  0  0  0  0  0  0  0  0  0  0
    5.1675   -1.3934    1.8745 H   0  0  0  0  0  0  0  0  0  0  0  0
    6.2059   -1.3222    0.4326 H   0  0  0  0  0  0  0  0  0  0  0  0
    6.6789   -0.5163    1.9248 H   0  0  0  0  0  0  0  0  0  0  0  0
    3.8008    0.4797    2.5814 H   0  0  0  0  0  0  0  0  0  0  0  0
    3.7246    1.9993    1.6581 H   0  0  0  0  0  0  0  0  0  0  0  0
    5.0976    1.6434    2.7000 H   0  0  0  0  0  0  0  0  0  0  0  0
    5.7293    2.4617   -0.0648 H   0  0  0  0  0  0  0  0  0  0  0  0
    6.9274    1.7923    1.0500 H   0  0  0  0  0  0  0  0  0  0  0  0
    6.7416    1.0975   -0.5648 H   0  0  0  0  0  0  0  0  0  0  0  0
    2.1735    0.9551   -1.8271 H   0  0  0  0  0  0  0  0  0  0  0  0
    0.7710   -0.0399   -2.2362 H   0  0  0  0  0  0  0  0  0  0  0  0
   -1.0908    0.6655    2.1161 H   0  0  0  0  0  0  0  0  0  0  0  0
   -4.4208    2.8553    0.7817 H   0  0  0  0  0  0  0  0  0  0  0  0
    0.3459    2.1333   -2.6879 H   0  0  0  0  0  0  0  0  0  0  0  0
   -3.5799    3.5925   -1.8031 H   0  0  0  0  0  0  0  0  0  0  0  0
   -1.6446    3.3505   -3.3499 H   0  0  0  0  0  0  0  0  0  0  0  0
   -4.7111    1.0022    2.9014 H   0  0  0  0  0  0  0  0  0  0  0  0
   -3.2043    0.9332    3.8274 H   0  0  0  0  0  0  0  0  0  0  0  0
   -3.9980    2.4917    3.5542 H   0  0  0  0  0  0  0  0  0  0  0  0
   -2.3228   -1.9937   -2.1176 H   0  0  0  0  0  0  0  0  0  0  0  0
   -0.0849   -3.0928    1.4060 H   0  0  0  0  0  0  0  0  0  0  0  0
   -4.4277   -2.4072   -0.8930 H   0  0  0  0  0  0  0  0  0  0  0  0
   -2.1890   -3.4859    2.6125 H   0  0  0  0  0  0  0  0  0  0  0  0
   -4.3667   -3.1511    1.4728 H   0  0  0  0  0  0  0  0  0  0  0  0
  1  8  1  0  0  0  0
  1 20  1  0  0  0  0
  2 12  1  0  0  0  0
  2 14  1  0  0  0  0
  3 20  2  0  0  0  0
  4  6  1  0  0  0  0
  4  7  1  0  0  0  0
  4 31  1  0  0  0  0
  5 15  1  0  0  0  0
  5 17  1  0  0  0  0
  5 45  1  0  0  0  0
  6  9  1  0  0  0  0
  6 10  1  0  0  0  0
  6 11  1  0  0  0  0
  7  8  1  0  0  0  0
  7 29  1  0  0  0  0
  7 30  1  0  0  0  0
  8 12  1  0  0  0  0
  8 32  1  0  0  0  0
  9 33  1  0  0  0  0
  9 34  1  0  0  0  0
  9 35  1  0  0  0  0
 10 36  1  0  0  0  0
 10 37  1  0  0  0  0
 10 38  1  0  0  0  0
 11 39  1  0  0  0  0
 11 40  1  0  0  0  0
 11 41  1  0  0  0  0
 12 42  1  0  0  0  0
 12 43  1  0  0  0  0
 13 14  1  0  0  0  0
 13 15  2  0  0  0  0
 13 16  1  0  0  0  0
 14 18  2  0  0  0  0
 15 19  1  0  0  0  0
 16 17  2  0  0  0  0
 16 44  1  0  0  0  0
 17 22  1  0  0  0  0
 18 21  1  0  0  0  0
 18 46  1  0  0  0  0
 19 21  2  0  0  0  0
 19 47  1  0  0  0  0
 20 23  1  0  0  0  0
 21 48  1  0  0  0  0
 22 49  1  0  0  0  0
 22 50  1  0  0  0  0
 22 51  1  0  0  0  0
 23 24  2  0  0  0  0
 23 25  1  0  0  0  0
 24 26  1  0  0  0  0
 24 52  1  0  0  0  0
 25 27  2  0  0  0  0
 25 53  1  0  0  0  0
 26 28  2  0  0  0  0
 26 54  1  0  0  0  0
 27 28  1  0  0  0  0
 27 55  1  0  0  0  0
 28 56  1  0  0  0  0
M  END
> <DATABASE_ID>
DB08807

> <DATABASE_NAME>
drugbank

> <ORIGINAL_SOURCE>
PUBCHEM

> <ORIGINAL_SOURCE_URL>
https://pubchem.ncbi.nlm.nih.gov/rest/pug/compound/inchikey/UUOJIACWOAYWEZ-UHFFFAOYSA-N/SDF?record_type=3d

> <SMILES>
CC1=CC2=C(N1)C=CC=C2OCC(CNC(C)(C)C)OC(=O)C1=CC=CC=C1

> <INCHI_IDENTIFIER>
InChI=1S/C23H28N2O3/c1-16-13-19-20(25-16)11-8-12-21(19)27-15-18(14-24-23(2,3)4)28-22(26)17-9-6-5-7-10-17/h5-13,18,24-25H,14-15H2,1-4H3

> <INCHI_KEY>
UUOJIACWOAYWEZ-UHFFFAOYSA-N

> <FORMULA>
C23H28N2O3

> <MOLECULAR_WEIGHT>
380.48

> <EXACT_MASS>
380.209992772

> <JCHEM_ACCEPTOR_COUNT>
3

> <JCHEM_AVERAGE_POLARIZABILITY>
43.08334286783953

> <JCHEM_BIOAVAILABILITY>
1

> <JCHEM_DONOR_COUNT>
2

> <JCHEM_FORMAL_CHARGE>
0

> <JCHEM_GHOSE_FILTER>
1

> <JCHEM_IUPAC>
1-(tert-butylamino)-3-[(2-methyl-1H-indol-4-yl)oxy]propan-2-yl benzoate

> <ALOGPS_LOGP>
4.45

> <JCHEM_LOGP>
4.668419005666666

> <ALOGPS_LOGS>
-5.38

> <JCHEM_MDDR_LIKE_RULE>
1

> <JCHEM_NUMBER_OF_RINGS>
3

> <JCHEM_PHYSIOLOGICAL_CHARGE>
1

> <JCHEM_PKA_STRONGEST_ACIDIC>
16.797941540338005

> <JCHEM_PKA_STRONGEST_BASIC>
9.290179388621109

> <JCHEM_POLAR_SURFACE_AREA>
63.35

> <JCHEM_REFRACTIVITY>
111.0719

> <JCHEM_ROTATABLE_BOND_COUNT>
9

> <JCHEM_RULE_OF_FIVE>
1

> <ALOGPS_SOLUBILITY>
1.60e-03 g/l

> <JCHEM_TRADITIONAL_IUPAC>
bopindolol

> <JCHEM_VEBER_RULE>
0

> <DRUGBANK_ID>
DB08807

> <DRUG_GROUPS>
experimental

> <GENERIC_NAME>
Bopindolol

> <SYNONYMS>
Bopindolol; Bopindololum

> <INTERNATIONAL_BRANDS>
Sandonorm

$$$$
