REMARK  Name = 241868
REMARK  3 active torsions:
REMARK  status: ('A' for Active; 'I' for Inactive)
REMARK    1  A    between atoms: C_1  and  C_9
REMARK    2  A    between atoms: C_4  and  O_7
REMARK    3  A    between atoms: C_9  and  C_12
REMARK                            x       y       z     vdW  Elec       q    Type
REMARK                         _______ _______ _______ _____ _____    ______ ____
ROOT
ATOM      1  C   UNL     1      -0.629  -0.156   0.561  0.00  0.00    -0.013 C 
ATOM      2  C   UNL     1      -0.038  -1.368   0.205  0.00  0.00    -0.001 C 
ATOM      3  C   UNL     1       0.138   1.008   0.605  0.00  0.00    -0.001 C 
ATOM      4  C   UNL     1       2.088  -0.253  -0.063  0.00  0.00    +0.139 C 
ATOM      5  C   UNL     1       1.320  -1.417  -0.107  0.00  0.00    +0.037 C 
ATOM      6  C   UNL     1       1.497   0.960   0.293  0.00  0.00    +0.037 C 
ENDROOT
BRANCH   4   7
ATOM      7  O   UNL     1       3.414  -0.301  -0.366  0.00  0.00    -0.471 OA
ATOM      8  C   UNL     1       4.140   0.926  -0.301  0.00  0.00    +0.252 C 
ENDBRANCH   4   7
BRANCH   1   9
ATOM      9  C   UNL     1      -2.082  -0.104   0.894  0.00  0.00    +0.111 C 
BRANCH   9  12
ATOM     10  O   UNL     1      -2.562   0.268  -1.455  0.00  0.00    -0.275 OA
ATOM     11  N   UNL     1      -4.309   0.273   0.038  0.00  0.00    -0.329 N 
ATOM     12  C   UNL     1      -2.977   0.164  -0.304  0.00  0.00    +0.224 C 
ATOM     13  H   UNL     1      -4.983   0.447  -0.657  0.00  0.00    +0.145 HD
ATOM     14  H   UNL     1      -4.584   0.177   0.979  0.00  0.00    +0.145 HD
ENDBRANCH   9  12
ENDBRANCH   1   9
TORSDOF 3
