REMARK  Name = 45070
REMARK  2 active torsions:
REMARK  status: ('A' for Active; 'I' for Inactive)
REMARK    1  A    between atoms: N_1  and  C_13
REMARK    2  A    between atoms: C_13  and  C_14
REMARK                            x       y       z     vdW  Elec       q    Type
REMARK                         _______ _______ _______ _____ _____    ______ ____
ROOT
ATOM      1  N   UNL     1       0.065  -0.722  -0.604  0.00  0.00    -0.267 N 
ATOM      2  N   UNL     1      -0.155   1.732  -0.432  0.00  0.00    -0.228 NA
ATOM      3  N   UNL     1      -1.920  -1.923   0.016  0.00  0.00    -0.233 NA
ATOM      4  N   UNL     1      -2.317   1.766   0.335  0.00  0.00    -0.239 NA
ATOM      5  C   UNL     1      -0.535   0.491  -0.346  0.00  0.00    +0.151 C 
ATOM      6  C   UNL     1      -1.925   0.472   0.141  0.00  0.00    +0.140 C 
ATOM      7  C   UNL     1      -0.691  -1.866  -0.410  0.00  0.00    +0.223 C 
ATOM      8  C   UNL     1      -2.562  -0.709   0.306  0.00  0.00    +0.143 C 
ATOM      9  C   UNL     1      -1.264   2.449  -0.010  0.00  0.00    +0.252 C 
ATOM     10  N   UNL     1      -3.861  -0.698   0.763  0.00  0.00    -0.342 N 
ATOM     11  H   UNL     1      -4.345  -1.545   0.891  0.00  0.00    +0.144 HD
ATOM     12  H   UNL     1      -4.306   0.158   0.961  0.00  0.00    +0.144 HD
ENDROOT
BRANCH   1  13
ATOM     13  C   UNL     1       1.418  -0.792  -1.133  0.00  0.00    +0.120 C 
BRANCH  13  14
ATOM     14  C   UNL     1       2.376  -0.928   0.010  0.00  0.00    -0.013 C 
ATOM     15  C   UNL     1       3.386  -0.102   0.342  0.00  0.00    -0.046 C 
ATOM     16  C   UNL     1       4.315  -0.296   1.506  0.00  0.00    +0.026 C 
ATOM     17  C   UNL     1       3.670   1.126  -0.483  0.00  0.00    +0.026 C 
ENDBRANCH  13  14
ENDBRANCH   1  13
TORSDOF 2
