REMARK  Name = 11522441
REMARK  3 active torsions:
REMARK  status: ('A' for Active; 'I' for Inactive)
REMARK    1  A    between atoms: N_1  and  C_10
REMARK    2  A    between atoms: C_6  and  C_17
REMARK    3  A    between atoms: C_17  and  C_18
REMARK                            x       y       z     vdW  Elec       q    Type
REMARK                         _______ _______ _______ _____ _____    ______ ____
ROOT
ATOM      1  N   UNL     1      -1.337  -1.063  -0.030  0.00  0.00    -0.202 N 
ATOM      2  N   UNL     1      -0.097  -0.599  -0.048  0.00  0.00    -0.185 NA
ATOM      3  N   UNL     1      -3.643  -0.366   0.121  0.00  0.00    -0.232 NA
ATOM      4  N   UNL     1      -3.797   2.062   0.308  0.00  0.00    -0.234 NA
ATOM      5  C   UNL     1      -2.317  -0.160   0.079  0.00  0.00    +0.136 C 
ATOM      6  C   UNL     1      -0.297   0.719   0.059  0.00  0.00    +0.072 C 
ATOM      7  C   UNL     1      -1.660   1.057   0.142  0.00  0.00    +0.146 C 
ATOM      8  C   UNL     1      -2.450   2.196   0.261  0.00  0.00    +0.111 C 
ATOM      9  C   UNL     1      -4.303   0.807   0.236  0.00  0.00    +0.252 C 
ATOM     10  N   UNL     1      -1.871   3.476   0.333  0.00  0.00    -0.346 N 
ATOM     11  H   UNL     1      -2.445   4.271   0.416  0.00  0.00    +0.143 HD
ATOM     12  H   UNL     1      -0.893   3.576   0.299  0.00  0.00    +0.143 HD
ENDROOT
BRANCH   1  13
ATOM     13  C   UNL     1      -1.531  -2.536  -0.131  0.00  0.00    +0.081 C 
ATOM     14  C   UNL     1      -2.373  -2.866  -1.383  0.00  0.00    +0.022 C 
ATOM     15  C   UNL     1      -2.252  -3.055   1.133  0.00  0.00    +0.022 C 
ATOM     16  C   UNL     1      -0.211  -3.336  -0.254  0.00  0.00    +0.022 C 
ENDBRANCH   1  13
BRANCH   6  17
ATOM     17  C   UNL     1       0.866   1.625   0.077  0.00  0.00    +0.070 C 
BRANCH  17  18
ATOM     18  C   UNL     1       2.205   0.904  -0.034  0.00  0.00    -0.021 C 
ATOM     19  C   UNL     1       2.756   0.668  -1.276  0.00  0.00    -0.025 C 
ATOM     20  C   UNL     1       2.824   0.508   1.133  0.00  0.00    -0.008 C 
ATOM     21  C   UNL     1       4.050  -0.153   1.055  0.00  0.00    -0.022 C 
ATOM     22  C   UNL     1       3.982   0.008  -1.355  0.00  0.00    -0.005 C 
ATOM     23  C   UNL     1       2.083   1.099  -2.538  0.00  0.00    +0.031 C 
ATOM     24  C   UNL     1       4.629  -0.403  -0.189  0.00  0.00    -0.005 C 
ATOM     25  C   UNL     1       4.742  -0.592   2.301  0.00  0.00    +0.031 C 
ENDBRANCH  17  18
ENDBRANCH   6  17
TORSDOF 3
