REMARK  Name = 64950
REMARK  1 active torsions:
REMARK  status: ('A' for Active; 'I' for Inactive)
REMARK    1  A    between atoms: C_2  and  C_9
REMARK                            x       y       z     vdW  Elec       q    Type
REMARK                         _______ _______ _______ _____ _____    ______ ____
ROOT
ATOM      1  N   UNL     1      -1.980   1.369   0.183  0.00  0.00    -0.242 NA
ATOM      2  C   UNL     1      -0.107  -0.154   0.043  0.00  0.00    +0.072 C 
ATOM      3  C   UNL     1      -0.977  -1.211  -0.202  0.00  0.00    +0.008 C 
ATOM      4  C   UNL     1      -0.654   1.106   0.227  0.00  0.00    +0.103 C 
ATOM      5  C   UNL     1      -2.347  -0.980  -0.255  0.00  0.00    +0.021 C 
ATOM      6  C   UNL     1      -2.793   0.317  -0.057  0.00  0.00    +0.099 C 
ENDROOT
BRANCH   2   9
ATOM      7  O   UNL     1       1.793  -1.475   0.417  0.00  0.00    -0.270 OA
ATOM      8  N   UNL     1       2.146   0.725  -0.225  0.00  0.00    -0.299 N 
ATOM      9  C   UNL     1       1.329  -0.364   0.104  0.00  0.00    +0.247 C 
ATOM     10  C   UNL     1       3.590   0.667  -0.234  0.00  0.00    +0.111 C 
ATOM     11  H   UNL     1       1.713   1.576  -0.463  0.00  0.00    +0.150 HD
ENDBRANCH   2   9
TORSDOF 1
