REMARK  Name = 6914643
REMARK  4 active torsions:
REMARK  status: ('A' for Active; 'I' for Inactive)
REMARK    1  A    between atoms: N_4  and  C_24
REMARK    2  A    between atoms: C_8  and  N_20
REMARK    3  A    between atoms: C_24  and  C_25
REMARK    4  A    between atoms: C_26  and  C_32
REMARK                            x       y       z     vdW  Elec       q    Type
REMARK                         _______ _______ _______ _____ _____    ______ ____
ROOT
ATOM      1  O   UNL     1      -1.926  -2.107   1.266  0.00  0.00    -0.272 OA
ATOM      2  O   UNL     1      -5.654   0.368  -0.145  0.00  0.00    -0.252 OA
ATOM      3  N   UNL     1       1.196   2.001  -0.174  0.00  0.00    -0.274 N 
ATOM      4  N   UNL     1      -0.307   0.263   0.419  0.00  0.00    -0.254 N 
ATOM      5  N   UNL     1      -1.213   2.106  -0.449  0.00  0.00    -0.360 NA
ATOM      6  N   UNL     1      -3.550   1.340  -0.352  0.00  0.00    -0.218 N 
ATOM      7  N   UNL     1      -3.808  -0.886   0.566  0.00  0.00    -0.210 N 
ATOM      8  C   UNL     1       3.366   2.220   0.964  0.00  0.00    -0.045 C 
ATOM      9  C   UNL     1       1.872   2.573   0.997  0.00  0.00    +0.073 C 
ATOM     10  C   UNL     1       4.005   2.630  -0.367  0.00  0.00    -0.018 C 
ATOM     11  C   UNL     1       1.760   2.372  -1.477  0.00  0.00    +0.094 C 
ATOM     12  C   UNL     1       3.241   2.008  -1.533  0.00  0.00    +0.019 C 
ATOM     13  C   UNL     1      -0.091   1.517  -0.091  0.00  0.00    +0.243 C 
ATOM     14  C   UNL     1      -1.655   0.045   0.381  0.00  0.00    +0.221 C 
ATOM     15  C   UNL     1      -2.185   1.187  -0.154  0.00  0.00    +0.197 C 
ATOM     16  C   UNL     1      -2.420  -1.089   0.787  0.00  0.00    +0.259 C 
ATOM     17  C   UNL     1      -4.430   0.289   0.008  0.00  0.00    +0.318 C 
ATOM     18  C   UNL     1      -4.067   2.577  -0.925  0.00  0.00    +0.124 C 
ATOM     19  C   UNL     1      -4.697  -1.981   0.942  0.00  0.00    +0.124 C 
ENDROOT
BRANCH   8  20
ATOM     20  N   UNL     1       4.059   2.878   2.070  0.00  0.00    +0.383 N 
ATOM     21  H   UNL     1       3.629   2.601   2.953  0.00  0.00    -0.089 HD
ATOM     22  H   UNL     1       3.990   3.890   1.961  0.00  0.00    -0.089 HD
ATOM     23  H   UNL     1       5.041   2.602   2.069  0.00  0.00    -0.089 HD
ENDBRANCH   8  20
BRANCH   4  24
ATOM     24  C   UNL     1       0.697  -0.656   0.905  0.00  0.00    +0.123 C 
BRANCH  24  25
ATOM     25  C   UNL     1       1.203  -1.549  -0.196  0.00  0.00    +0.007 C 
ATOM     26  C   UNL     1       2.176  -2.511   0.048  0.00  0.00    +0.066 C 
ATOM     27  C   UNL     1       0.670  -1.386  -1.469  0.00  0.00    -0.002 C 
ATOM     28  C   UNL     1       2.623  -3.321  -0.995  0.00  0.00    +0.010 C 
ATOM     29  C   UNL     1       1.117  -2.196  -2.513  0.00  0.00    -0.000 C 
ATOM     30  C   UNL     1       2.094  -3.164  -2.276  0.00  0.00    +0.001 C 
BRANCH  26  32
ATOM     31  N   UNL     1       3.189  -2.837   2.411  0.00  0.00    -0.191 NA
ATOM     32  C   UNL     1       2.736  -2.691   1.353  0.00  0.00    +0.100 C 
ENDBRANCH  26  32
ENDBRANCH  24  25
ENDBRANCH   4  24
TORSDOF 4
