REMARK  Name = 13949633
REMARK  5 active torsions:
REMARK  status: ('A' for Active; 'I' for Inactive)
REMARK    1  A    between atoms: C_1  and  N_2
REMARK    2  A    between atoms: C_1  and  C_6
REMARK    3  A    between atoms: C_1  and  C_10
REMARK    4  A    between atoms: C_6  and  O_8
REMARK    5  A    between atoms: C_10  and  C_11
REMARK                            x       y       z     vdW  Elec       q    Type
REMARK                         _______ _______ _______ _____ _____    ______ ____
ROOT
ATOM      1  C   UNL     1       1.642   0.788   0.173  0.00  0.00    -0.034 C 
ENDROOT
BRANCH   1   2
ATOM      2  N   UNL     1       2.843   1.481  -0.311  0.00  0.00    +0.384 N 
ATOM      3  H   UNL     1       2.629   2.467  -0.463  0.00  0.00    -0.089 HD
ATOM      4  H   UNL     1       3.148   1.061  -1.189  0.00  0.00    -0.089 HD
ATOM      5  H   UNL     1       3.587   1.397   0.382  0.00  0.00    -0.089 HD
ENDBRANCH   1   2
BRANCH   1   6
ATOM      6  C   UNL     1       1.942  -0.709   0.410  0.00  0.00    +0.091 C 
ATOM      7  C   UNL     1       3.097  -0.999   1.363  0.00  0.00    +0.030 C 
BRANCH   6   8
ATOM      8  O   UNL     1       2.247  -1.331  -0.842  0.00  0.00    -0.387 OA
ATOM      9  H   UNL     1       1.527  -1.163  -1.470  0.00  0.00    +0.210 HD
ENDBRANCH   6   8
ENDBRANCH   1   6
BRANCH   1  10
ATOM     10  C   UNL     1       0.497   1.050  -0.824  0.00  0.00    +0.007 C 
BRANCH  10  11
ATOM     11  C   UNL     1      -0.831   0.477  -0.391  0.00  0.00    -0.024 C 
ATOM     12  C   UNL     1      -1.169  -0.814  -0.766  0.00  0.00    -0.004 C 
ATOM     13  C   UNL     1      -1.688   1.252   0.374  0.00  0.00    -0.004 C 
ATOM     14  C   UNL     1      -2.395  -1.343  -0.366  0.00  0.00    -0.000 C 
ATOM     15  C   UNL     1      -2.915   0.722   0.775  0.00  0.00    -0.000 C 
ATOM     16  C   UNL     1      -3.269  -0.575   0.405  0.00  0.00    -0.000 C 
ENDBRANCH  10  11
ENDBRANCH   1  10
TORSDOF 5
