REMARK  Name = 46937170
REMARK  7 active torsions:
REMARK  status: ('A' for Active; 'I' for Inactive)
REMARK    1  A    between atoms: C_2  and  S_16
REMARK    2  A    between atoms: C_3  and  C_18
REMARK    3  A    between atoms: C_5  and  N_8
REMARK    4  A    between atoms: C_18  and  O_19
REMARK    5  A    between atoms: O_19  and  P_20
REMARK    6  A    between atoms: P_20  and  O_22
REMARK    7  A    between atoms: P_20  and  O_24
REMARK                            x       y       z     vdW  Elec       q    Type
REMARK                         _______ _______ _______ _____ _____    ______ ____
ROOT
ATOM      1  O   UNL     1       0.452  -1.316   1.008  0.00  0.00    -0.336 OA
ATOM      2  C   UNL     1       1.041  -2.844  -0.724  0.00  0.00    +0.078 C 
ATOM      3  C   UNL     1       1.585  -1.837   0.288  0.00  0.00    +0.157 C 
ATOM      4  C   UNL     1      -0.352  -2.315  -0.994  0.00  0.00    +0.064 C 
ATOM      5  C   UNL     1      -0.755  -1.706   0.339  0.00  0.00    +0.200 C 
ENDROOT
BRANCH   5   8
ATOM      6  O   UNL     1      -3.602  -1.766   0.361  0.00  0.00    -0.252 OA
ATOM      7  O   UNL     1      -3.869   2.786  -0.237  0.00  0.00    -0.270 OA
ATOM      8  N   UNL     1      -1.608  -0.563   0.194  0.00  0.00    -0.219 N 
ATOM      9  N   UNL     1      -3.721   0.505   0.062  0.00  0.00    -0.236 N 
ATOM     10  C   UNL     1      -1.021   0.685   0.027  0.00  0.00    +0.071 C 
ATOM     11  C   UNL     1      -3.014  -0.692   0.216  0.00  0.00    +0.315 C 
ATOM     12  C   UNL     1      -1.701   1.829  -0.120  0.00  0.00    +0.047 C 
ATOM     13  C   UNL     1      -3.187   1.774  -0.107  0.00  0.00    +0.250 C 
ATOM     14  C   UNL     1      -1.048   3.162  -0.297  0.00  0.00    +0.037 C 
ATOM     15  H   UNL     1      -4.703   0.441   0.076  0.00  0.00    +0.159 HD
ENDBRANCH   5   8
BRANCH   2  16
ATOM     16  S   UNL     1       0.961  -4.519   0.006  0.00  0.00    -0.166 S 
ATOM     17  H   UNL     1       2.222  -4.973   0.239  0.00  0.00    +0.102 HD
ENDBRANCH   2  16
BRANCH   3  18
ATOM     18  C   UNL     1       2.289  -0.662  -0.386  0.00  0.00    +0.184 C 
BRANCH  18  19
ATOM     19  O   UNL     1       2.753   0.228   0.616  0.00  0.00    -0.271 OA
BRANCH  19  20
ATOM     20  P   UNL     1       3.540   1.565   0.155  0.00  0.00    +0.473 P 
ATOM     21  O   UNL     1       3.996   2.450   1.278  0.00  0.00    -0.227 OA
BRANCH  20  22
ATOM     22  O   UNL     1       2.534   2.256  -0.906  0.00  0.00    -0.303 OA
ATOM     23  H   UNL     1       2.295   1.612  -1.591  0.00  0.00    +0.222 HD
ENDBRANCH  20  22
BRANCH  20  24
ATOM     24  O   UNL     1       4.724   0.982  -0.779  0.00  0.00    -0.303 OA
ATOM     25  H   UNL     1       4.342   0.423  -1.474  0.00  0.00    +0.222 HD
ENDBRANCH  20  24
ENDBRANCH  19  20
ENDBRANCH  18  19
ENDBRANCH   3  18
TORSDOF 7
