REMARK  Name = 21066096
REMARK  4 active torsions:
REMARK  status: ('A' for Active; 'I' for Inactive)
REMARK    1  A    between atoms: C_4  and  N_17
REMARK    2  A    between atoms: C_6  and  C_11
REMARK    3  A    between atoms: N_17  and  C_19
REMARK    4  A    between atoms: C_19  and  C_21
REMARK                            x       y       z     vdW  Elec       q    Type
REMARK                         _______ _______ _______ _____ _____    ______ ____
ROOT
ATOM      1  N   UNL     1      -0.063  -1.981   0.148  0.00  0.00    -0.152 N 
ATOM      2  N   UNL     1       2.298  -1.511   0.206  0.00  0.00    -0.389 NA
ATOM      3  N   UNL     1      -0.910  -3.049   0.160  0.00  0.00    -0.174 NA
ATOM      4  C   UNL     1      -0.399  -0.619   0.083  0.00  0.00    +0.126 C 
ATOM      5  C   UNL     1       1.268  -2.399   0.204  0.00  0.00    +0.190 C 
ATOM      6  C   UNL     1       1.988  -0.247   0.160  0.00  0.00    +0.137 C 
ATOM      7  C   UNL     1       0.593   0.288   0.083  0.00  0.00    +0.064 C 
ATOM      8  C   UNL     1       1.246  -3.774   0.251  0.00  0.00    +0.125 C 
ATOM      9  C   UNL     1      -0.112  -4.113   0.222  0.00  0.00    +0.101 C 
ENDROOT
BRANCH   6  11
ATOM     10  F   UNL     1       4.000  -0.162  -1.823  0.00  0.00    -0.204 F 
ATOM     11  C   UNL     1       3.083   0.759   0.166  0.00  0.00    +0.057 C 
ATOM     12  C   UNL     1       4.048   0.750  -0.842  0.00  0.00    +0.143 C 
ATOM     13  C   UNL     1       3.143   1.714   1.181  0.00  0.00    +0.005 C 
ATOM     14  C   UNL     1       5.073   1.696  -0.834  0.00  0.00    +0.030 C 
ATOM     15  C   UNL     1       4.168   2.660   1.189  0.00  0.00    +0.000 C 
ATOM     16  C   UNL     1       5.133   2.651   0.181  0.00  0.00    +0.002 C 
ENDBRANCH   6  11
BRANCH   4  17
ATOM     17  N   UNL     1      -1.725  -0.299   0.014  0.00  0.00    -0.316 N 
ATOM     18  H   UNL     1      -2.383  -1.031   0.019  0.00  0.00    +0.148 HD
BRANCH  17  19
ATOM     19  C   UNL     1      -2.208   1.054  -0.065  0.00  0.00    +0.115 C 
BRANCH  19  21
ATOM     20  N   UNL     1      -6.506   1.117  -0.138  0.00  0.00    -0.242 NA
ATOM     21  C   UNL     1      -3.711   1.076  -0.090  0.00  0.00    +0.000 C 
ATOM     22  C   UNL     1      -4.429   1.149   1.099  0.00  0.00    +0.018 C 
ATOM     23  C   UNL     1      -4.390   1.024  -1.303  0.00  0.00    +0.018 C 
ATOM     24  C   UNL     1      -5.812   1.167   1.021  0.00  0.00    +0.099 C 
ATOM     25  C   UNL     1      -5.775   1.047  -1.273  0.00  0.00    +0.099 C 
ENDBRANCH  19  21
ENDBRANCH  17  19
ENDBRANCH   4  17
TORSDOF 4
