REMARK  Name = 24832027
REMARK  14 active torsions:
REMARK  status: ('A' for Active; 'I' for Inactive)
REMARK    1  A    between atoms: C_1  and  C_3
REMARK    2  A    between atoms: C_1  and  C_6
REMARK    3  A    between atoms: C_1  and  C_18
REMARK    4  A    between atoms: C_3  and  O_4
REMARK    5  A    between atoms: C_6  and  C_7
REMARK    6  A    between atoms: C_7  and  C_9
REMARK    7  A    between atoms: C_7  and  C_12
REMARK    8  A    between atoms: C_9  and  O_10
REMARK    9  A    between atoms: C_12  and  C_13
REMARK   10  A    between atoms: C_13  and  C_15
REMARK   11  A    between atoms: C_15  and  O_16
REMARK   12  A    between atoms: C_18  and  C_19
REMARK   13  A    between atoms: C_19  and  C_22
REMARK   14  A    between atoms: C_22  and  O_23
REMARK                            x       y       z     vdW  Elec       q    Type
REMARK                         _______ _______ _______ _____ _____    ______ ____
ROOT
ATOM      1  C   UNL     1       1.050  -0.385   0.420  0.00  0.00    +0.100 C 
ENDROOT
BRANCH   1   3
ATOM      2  O   UNL     1       0.690  -2.695  -0.298  0.00  0.00    -0.250 OA
ATOM      3  C   UNL     1       0.845  -1.515  -0.576  0.00  0.00    +0.313 C 
BRANCH   3   4
ATOM      4  O   UNL     1       0.869  -1.042  -1.849  0.00  0.00    -0.480 OA
ATOM      5  H   UNL     1       0.991  -0.126  -2.006  0.00  0.00    +0.295 HD
ENDBRANCH   3   4
ENDBRANCH   1   3
BRANCH   1   6
ATOM      6  C   UNL     1      -0.170  -0.218   1.347  0.00  0.00    +0.022 C 
BRANCH   6   7
ATOM      7  C   UNL     1      -1.474   0.153   0.610  0.00  0.00    +0.100 C 
BRANCH   7   9
ATOM      8  O   UNL     1      -1.020   2.523   0.333  0.00  0.00    -0.250 OA
ATOM      9  C   UNL     1      -1.297   1.443  -0.172  0.00  0.00    +0.313 C 
BRANCH   9  10
ATOM     10  O   UNL     1      -1.488   1.263  -1.503  0.00  0.00    -0.480 OA
ATOM     11  H   UNL     1      -1.698   0.413  -1.835  0.00  0.00    +0.295 HD
ENDBRANCH   9  10
ENDBRANCH   7   9
BRANCH   7  12
ATOM     12  C   UNL     1      -2.676   0.304   1.568  0.00  0.00    +0.023 C 
BRANCH  12  13
ATOM     13  C   UNL     1      -3.998   0.615   0.864  0.00  0.00    +0.110 C 
BRANCH  13  15
ATOM     14  O   UNL     1      -4.185  -1.626  -0.014  0.00  0.00    -0.250 OA
ATOM     15  C   UNL     1      -4.426  -0.431  -0.132  0.00  0.00    +0.314 C 
BRANCH  15  16
ATOM     16  O   UNL     1      -5.099   0.093  -1.186  0.00  0.00    -0.480 OA
ATOM     17  H   UNL     1      -5.258   1.015  -1.229  0.00  0.00    +0.295 HD
ENDBRANCH  15  16
ENDBRANCH  13  15
ENDBRANCH  12  13
ENDBRANCH   7  12
ENDBRANCH   6   7
ENDBRANCH   1   6
BRANCH   1  18
ATOM     18  C   UNL     1       2.381  -0.592   1.178  0.00  0.00    +0.022 C 
BRANCH  18  19
ATOM     19  C   UNL     1       3.666  -0.525   0.325  0.00  0.00    +0.099 C 
ATOM     20  C   UNL     1       4.905  -0.651   1.212  0.00  0.00    +0.012 C 
BRANCH  19  22
ATOM     21  O   UNL     1       3.814   1.895   0.087  0.00  0.00    -0.250 OA
ATOM     22  C   UNL     1       3.786   0.787  -0.434  0.00  0.00    +0.313 C 
BRANCH  22  23
ATOM     23  O   UNL     1       3.825   0.606  -1.779  0.00  0.00    -0.480 OA
ATOM     24  H   UNL     1       3.801  -0.261  -2.136  0.00  0.00    +0.295 HD
ENDBRANCH  22  23
ENDBRANCH  19  22
ENDBRANCH  18  19
ENDBRANCH   1  18
TORSDOF 14
