REMARK  Name = 5326869
REMARK  6 active torsions:
REMARK  status: ('A' for Active; 'I' for Inactive)
REMARK    1  A    between atoms: N_2  and  C_11
REMARK    2  A    between atoms: C_3  and  C_25
REMARK    3  A    between atoms: N_5  and  C_14
REMARK    4  A    between atoms: C_14  and  C_15
REMARK    5  A    between atoms: C_15  and  C_17
REMARK    6  A    between atoms: C_23  and  N_30
REMARK                            x       y       z     vdW  Elec       q    Type
REMARK                         _______ _______ _______ _____ _____    ______ ____
ROOT
ATOM      1  O   UNL     1      -0.108   0.055  -1.075  0.00  0.00    -0.270 OA
ATOM      2  N   UNL     1       0.553  -1.816   0.186  0.00  0.00    -0.280 N 
ATOM      3  C   UNL     1      -0.366  -0.948  -0.419  0.00  0.00    +0.250 C 
ATOM      4  H   UNL     1       0.168  -2.577   0.678  0.00  0.00    +0.155 HD
ENDROOT
BRANCH   2  11
ATOM      5  N   UNL     1       4.833   0.270  -1.052  0.00  0.00    -0.286 N 
ATOM      6  C   UNL     1       3.966  -0.635  -0.482  0.00  0.00    +0.053 C 
ATOM      7  C   UNL     1       4.743  -1.590   0.176  0.00  0.00    +0.015 C 
ATOM      8  C   UNL     1       6.128  -0.080  -0.777  0.00  0.00    +0.065 C 
ATOM      9  C   UNL     1       2.567  -0.680  -0.500  0.00  0.00    +0.029 C 
ATOM     10  C   UNL     1       6.105  -1.227  -0.018  0.00  0.00    +0.017 C 
ATOM     11  C   UNL     1       1.946  -1.734   0.177  0.00  0.00    +0.052 C 
ATOM     12  C   UNL     1       4.094  -2.643   0.852  0.00  0.00    +0.003 C 
ATOM     13  C   UNL     1       2.696  -2.701   0.843  0.00  0.00    +0.015 C 
BRANCH   5  14
ATOM     14  C   UNL     1       4.449   1.428  -1.830  0.00  0.00    +0.100 C 
BRANCH  14  15
ATOM     15  C   UNL     1       4.247   2.691  -0.987  0.00  0.00    +0.048 C 
BRANCH  15  17
ATOM     16  N   UNL     1       1.087   2.330   1.885  0.00  0.00    -0.242 NA
ATOM     17  C   UNL     1       3.135   2.565   0.024  0.00  0.00    -0.017 C 
ATOM     18  C   UNL     1       1.848   2.922  -0.331  0.00  0.00    +0.016 C 
ATOM     19  C   UNL     1       3.418   2.092   1.292  0.00  0.00    +0.016 C 
ATOM     20  C   UNL     1       0.862   2.787   0.633  0.00  0.00    +0.099 C 
ATOM     21  C   UNL     1       2.362   1.994   2.183  0.00  0.00    +0.099 C 
ENDBRANCH  15  17
ENDBRANCH  14  15
ENDBRANCH   5  14
ENDBRANCH   2  11
BRANCH   3  25
ATOM     22  F   UNL     1      -3.845  -4.192   0.450  0.00  0.00    -0.204 F 
ATOM     23  C   UNL     1      -4.077  -0.595  -0.043  0.00  0.00    +0.050 C 
ATOM     24  C   UNL     1      -2.734  -0.276  -0.244  0.00  0.00    +0.019 C 
ATOM     25  C   UNL     1      -1.797  -1.287  -0.207  0.00  0.00    +0.057 C 
ATOM     26  C   UNL     1      -4.452  -1.917   0.191  0.00  0.00    +0.044 C 
ATOM     27  C   UNL     1      -2.142  -2.603   0.023  0.00  0.00    +0.034 C 
ATOM     28  C   UNL     1      -3.485  -2.922   0.224  0.00  0.00    +0.142 C 
BRANCH  23  30
ATOM     29  O   UNL     1      -6.898   2.504  -0.392  0.00  0.00    -0.350 OA
ATOM     30  N   UNL     1      -5.047   0.412  -0.076  0.00  0.00    -0.303 N 
ATOM     31  C   UNL     1      -4.699   1.778   0.332  0.00  0.00    +0.123 C 
ATOM     32  C   UNL     1      -6.117   0.312  -1.078  0.00  0.00    +0.123 C 
ATOM     33  C   UNL     1      -5.966   2.548   0.688  0.00  0.00    +0.164 C 
ATOM     34  C   UNL     1      -7.308   1.160  -0.647  0.00  0.00    +0.164 C 
ENDBRANCH  23  30
ENDBRANCH   3  25
TORSDOF 6
