REMARK  Name = 3777900
REMARK  4 active torsions:
REMARK  status: ('A' for Active; 'I' for Inactive)
REMARK    1  A    between atoms: C_4  and  O_11
REMARK    2  A    between atoms: O_11  and  C_12
REMARK    3  A    between atoms: C_12  and  C_13
REMARK    4  A    between atoms: C_13  and  O_14
REMARK                            x       y       z     vdW  Elec       q    Type
REMARK                         _______ _______ _______ _____ _____    ______ ____
ROOT
ATOM      1  N   UNL     1      -0.594   0.902  -0.003  0.00  0.00    -0.295 NA
ATOM      2  N   UNL     1      -2.967   0.485   0.004  0.00  0.00    -0.337 NA
ATOM      3  N   UNL     1      -2.130   2.676   0.004  0.00  0.00    -0.283 N 
ATOM      4  C   UNL     1      -0.397  -0.432  -0.005  0.00  0.00    +0.272 C 
ATOM      5  C   UNL     1      -2.697  -0.837   0.002  0.00  0.00    +0.111 C 
ATOM      6  C   UNL     1      -1.420  -1.359  -0.002  0.00  0.00    +0.155 C 
ATOM      7  C   UNL     1      -3.868  -1.762   0.006  0.00  0.00    +0.063 C 
ATOM      8  C   UNL     1      -1.885   1.286   0.002  0.00  0.00    +0.198 C 
ATOM      9  H   UNL     1      -1.375   3.309   0.003  0.00  0.00    +0.156 HD
ATOM     10  H   UNL     1      -3.055   3.013   0.008  0.00  0.00    +0.156 HD
ENDROOT
BRANCH   4  11
ATOM     11  O   UNL     1       0.901  -0.871  -0.010  0.00  0.00    -0.451 OA
BRANCH  11  12
ATOM     12  C   UNL     1       1.914   0.128  -0.012  0.00  0.00    +0.240 C 
BRANCH  12  13
ATOM     13  C   UNL     1       3.273  -0.546   0.007  0.00  0.00    +0.189 C 
BRANCH  13  14
ATOM     14  O   UNL     1       4.286   0.452  -0.016  0.00  0.00    -0.347 OA
ATOM     15  C   UNL     1       5.585  -0.123   0.023  0.00  0.00    +0.174 C 
ENDBRANCH  13  14
ENDBRANCH  12  13
ENDBRANCH  11  12
ENDBRANCH   4  11
TORSDOF 4
