REMARK  Name = 2200
REMARK  5 active torsions:
REMARK  status: ('A' for Active; 'I' for Inactive)
REMARK    1  A    between atoms: N_1  and  C_2
REMARK    2  A    between atoms: N_1  and  C_8
REMARK    3  A    between atoms: N_1  and  C_15
REMARK    4  A    between atoms: C_8  and  C_11
REMARK    5  A    between atoms: C_15  and  C_16
REMARK                            x       y       z     vdW  Elec       q    Type
REMARK                         _______ _______ _______ _____ _____    ______ ____
ROOT
ATOM      1  N   UNL     1      -0.284   0.219  -0.083  0.00  0.00    -0.297 N 
ENDROOT
BRANCH   1   2
ATOM      2  C   UNL     1      -0.344  -1.185  -0.065  0.00  0.00    +0.048 C 
ATOM      3  C   UNL     1      -0.801  -1.853   1.073  0.00  0.00    +0.015 C 
ATOM      4  C   UNL     1       0.052  -1.919  -1.186  0.00  0.00    +0.015 C 
ATOM      5  C   UNL     1      -0.862  -3.247   1.091  0.00  0.00    +0.001 C 
ATOM      6  C   UNL     1      -0.009  -3.313  -1.168  0.00  0.00    +0.001 C 
ATOM      7  C   UNL     1      -0.466  -3.976  -0.029  0.00  0.00    +0.000 C 
ENDBRANCH   1   2
BRANCH   1   8
ATOM      8  C   UNL     1      -1.013   0.994  -1.047  0.00  0.00    +0.153 C 
BRANCH   8  11
ATOM      9  N   UNL     1      -3.407   0.483  -0.600  0.00  0.00    -0.298 N 
ATOM     10  N   UNL     1      -2.538   2.404   0.256  0.00  0.00    -0.230 NA
ATOM     11  C   UNL     1      -2.343   1.320  -0.451  0.00  0.00    +0.129 C 
ATOM     12  C   UNL     1      -4.544   1.004   0.097  0.00  0.00    +0.084 C 
ATOM     13  C   UNL     1      -3.980   2.323   0.646  0.00  0.00    +0.116 C 
ATOM     14  H   UNL     1      -3.396  -0.358  -1.112  0.00  0.00    +0.153 HD
ENDBRANCH   8  11
ENDBRANCH   1   8
BRANCH   1  15
ATOM     15  C   UNL     1       0.556   0.918   0.897  0.00  0.00    +0.118 C 
BRANCH  15  16
ATOM     16  C   UNL     1       2.002   0.946   0.479  0.00  0.00    -0.002 C 
ATOM     17  C   UNL     1       2.847  -0.083   0.871  0.00  0.00    -0.003 C 
ATOM     18  C   UNL     1       2.470   2.000  -0.292  0.00  0.00    -0.003 C 
ATOM     19  C   UNL     1       4.186  -0.058   0.484  0.00  0.00    -0.000 C 
ATOM     20  C   UNL     1       3.810   2.026  -0.680  0.00  0.00    -0.000 C 
ATOM     21  C   UNL     1       4.668   0.997  -0.291  0.00  0.00    -0.000 C 
ENDBRANCH  15  16
ENDBRANCH   1  15
TORSDOF 5
