REMARK  Name = 441047
REMARK  15 active torsions:
REMARK  status: ('A' for Active; 'I' for Inactive)
REMARK    1  A    between atoms: C_1  and  C_2
REMARK    2  A    between atoms: C_1  and  C_17
REMARK    3  A    between atoms: C_2  and  C_3
REMARK    4  A    between atoms: C_3  and  C_6
REMARK    5  A    between atoms: C_8  and  C_9
REMARK    6  A    between atoms: C_9  and  O_10
REMARK    7  A    between atoms: O_10  and  C_11
REMARK    8  A    between atoms: C_11  and  O_12
REMARK    9  A    between atoms: O_12  and  C_13
REMARK   10  A    between atoms: C_13  and  C_14
REMARK   11  A    between atoms: C_14  and  O_15
REMARK   12  A    between atoms: C_17  and  C_18
REMARK   13  A    between atoms: C_18  and  O_19
REMARK   14  A    between atoms: O_19  and  C_22
REMARK   15  A    between atoms: C_23  and  C_30
REMARK                            x       y       z     vdW  Elec       q    Type
REMARK                         _______ _______ _______ _____ _____    ______ ____
ROOT
ATOM      1  C   UNL     1       0.356  -1.188  -0.764  0.00  0.00    +0.004 C 
ENDROOT
BRANCH   1   2
ATOM      2  C   UNL     1       1.813  -1.215  -0.300  0.00  0.00    +0.008 C 
BRANCH   2   3
ATOM      3  C   UNL     1       2.723  -1.839  -1.362  0.00  0.00    +0.067 C 
BRANCH   3   6
ATOM      4  O   UNL     1       4.593  -2.927  -0.237  0.00  0.00    -0.358 OA
ATOM      5  N   UNL     1       5.934  -2.767   0.090  0.00  0.00    -0.079 NA
ATOM      6  C   UNL     1       4.166  -1.837  -0.925  0.00  0.00    +0.154 C 
ATOM      7  C   UNL     1       5.198  -0.947  -1.065  0.00  0.00    +0.056 C 
ATOM      8  C   UNL     1       6.273  -1.577  -0.415  0.00  0.00    +0.130 C 
BRANCH   8   9
ATOM      9  C   UNL     1       7.647  -1.077  -0.252  0.00  0.00    +0.194 C 
BRANCH   9  10
ATOM     10  O   UNL     1       7.816  -0.309   0.946  0.00  0.00    -0.320 OA
BRANCH  10  11
ATOM     11  C   UNL     1       9.150   0.166   1.087  0.00  0.00    +0.294 C 
BRANCH  11  12
ATOM     12  O   UNL     1       9.456   1.300   0.276  0.00  0.00    -0.324 OA
BRANCH  12  13
ATOM     13  C   UNL     1       8.640   2.421   0.588  0.00  0.00    +0.177 C 
BRANCH  13  14
ATOM     14  C   UNL     1       9.025   3.580  -0.312  0.00  0.00    +0.169 C 
BRANCH  14  15
ATOM     15  O   UNL     1      10.387   3.915  -0.079  0.00  0.00    -0.379 OA
ATOM     16  H   UNL     1      10.641   4.656  -0.652  0.00  0.00    +0.211 HD
ENDBRANCH  14  15
ENDBRANCH  13  14
ENDBRANCH  12  13
ENDBRANCH  11  12
ENDBRANCH  10  11
ENDBRANCH   9  10
ENDBRANCH   8   9
ENDBRANCH   3   6
ENDBRANCH   2   3
ENDBRANCH   1   2
BRANCH   1  17
ATOM     17  C   UNL     1      -0.557  -0.596   0.308  0.00  0.00    +0.047 C 
BRANCH  17  18
ATOM     18  C   UNL     1      -2.003  -0.525  -0.161  0.00  0.00    +0.205 C 
BRANCH  18  19
ATOM     19  O   UNL     1      -2.799   0.018   0.883  0.00  0.00    -0.474 OA
BRANCH  19  22
ATOM     20 CL   UNL     1      -4.471  -2.348   1.600  0.00  0.00    -0.079 Cl
ATOM     21 CL   UNL     1      -3.535   2.661  -0.296  0.00  0.00    -0.079 Cl
ATOM     22  C   UNL     1      -4.136   0.171   0.626  0.00  0.00    +0.159 C 
ATOM     23  C   UNL     1      -6.859   0.481   0.101  0.00  0.00    +0.055 C 
ATOM     24  C   UNL     1      -5.025  -0.864   0.915  0.00  0.00    +0.093 C 
ATOM     25  C   UNL     1      -4.609   1.362   0.074  0.00  0.00    +0.093 C 
ATOM     26  C   UNL     1      -6.386  -0.709   0.653  0.00  0.00    +0.019 C 
ATOM     27  C   UNL     1      -5.970   1.517  -0.188  0.00  0.00    +0.019 C 
BRANCH  23  30
ATOM     28  O   UNL     1      -9.056  -0.429   0.141  0.00  0.00    -0.458 OA
ATOM     29  N   UNL     1      -8.858   1.694  -0.684  0.00  0.00    -0.234 NA
ATOM     30  C   UNL     1      -8.293   0.645  -0.176  0.00  0.00    +0.220 C 
ATOM     31  C   UNL     1     -10.333  -0.131  -0.401  0.00  0.00    +0.233 C 
ATOM     32  C   UNL     1     -10.285   1.354  -0.673  0.00  0.00    +0.176 C 
ENDBRANCH  23  30
ENDBRANCH  19  22
ENDBRANCH  18  19
ENDBRANCH  17  18
ENDBRANCH   1  17
TORSDOF 15
