REMARK  Name = 447360
REMARK  5 active torsions:
REMARK  status: ('A' for Active; 'I' for Inactive)
REMARK    1  A    between atoms: N_2  and  C_19
REMARK    2  A    between atoms: N_3  and  S_8
REMARK    3  A    between atoms: S_8  and  C_11
REMARK    4  A    between atoms: C_12  and  C_15
REMARK    5  A    between atoms: C_19  and  C_22
REMARK                            x       y       z     vdW  Elec       q    Type
REMARK                         _______ _______ _______ _____ _____    ______ ____
ROOT
ATOM      1  O   UNL     1       1.286   1.927  -1.564  0.00  0.00    -0.273 OA
ATOM      2  N   UNL     1       1.448   1.232   0.642  0.00  0.00    -0.271 N 
ATOM      3  N   UNL     1      -0.604  -0.616   0.185  0.00  0.00    -0.144 NA
ATOM      4  C   UNL     1       1.046   0.290   1.682  0.00  0.00    +0.113 C 
ATOM      5  C   UNL     1      -0.407  -0.119   1.564  0.00  0.00    +0.118 C 
ATOM      6  C   UNL     1      -0.405   0.456  -0.809  0.00  0.00    +0.181 C 
ATOM      7  C   UNL     1       0.864   1.250  -0.621  0.00  0.00    +0.244 C 
ENDROOT
BRANCH   3   8
ATOM      8  S   UNL     1      -1.977  -1.608  -0.061  0.00  0.00    +0.065 S 
ATOM      9  O   UNL     1      -2.080  -2.511   1.073  0.00  0.00    -0.153 OA
ATOM     10  O   UNL     1      -1.903  -2.145  -1.409  0.00  0.00    -0.153 OA
BRANCH   8  11
ATOM     11  C   UNL     1      -3.314  -0.508   0.006  0.00  0.00    +0.141 C 
ATOM     12  C   UNL     1      -4.537  -1.026  -0.159  0.00  0.00    +0.028 C 
BRANCH  12  15
ATOM     13 CL   UNL     1      -9.795   0.452  -0.220  0.00  0.00    -0.075 Cl
ATOM     14  S   UNL     1      -7.234  -1.049  -0.294  0.00  0.00    -0.075 S 
ATOM     15  C   UNL     1      -5.742  -0.251  -0.115  0.00  0.00    +0.032 C 
ATOM     16  C   UNL     1      -5.865   1.096   0.057  0.00  0.00    +0.008 C 
ATOM     17  C   UNL     1      -7.232   1.497   0.044  0.00  0.00    +0.018 C 
ATOM     18  C   UNL     1      -8.083   0.430  -0.139  0.00  0.00    +0.087 C 
ENDBRANCH  12  15
ENDBRANCH   8  11
ENDBRANCH   3   8
BRANCH   2  19
ATOM     19  C   UNL     1       2.656   2.002   0.902  0.00  0.00    +0.135 C 
BRANCH  19  22
ATOM     20  N   UNL     1       4.411   1.153  -0.630  0.00  0.00    -0.314 N 
ATOM     21  N   UNL     1       7.526  -1.463  -0.085  0.00  0.00    -0.242 NA
ATOM     22  C   UNL     1       3.861   1.160   0.611  0.00  0.00    +0.046 C 
ATOM     23  C   UNL     1       4.567   0.331   1.426  0.00  0.00    +0.015 C 
ATOM     24  C   UNL     1       5.497   0.308  -0.641  0.00  0.00    +0.051 C 
ATOM     25  C   UNL     1       5.618  -0.223   0.644  0.00  0.00    +0.034 C 
ATOM     26  C   UNL     1       6.372  -0.023  -1.671  0.00  0.00    +0.035 C 
ATOM     27  C   UNL     1       6.659  -1.121   0.898  0.00  0.00    +0.100 C 
ATOM     28  C   UNL     1       7.367  -0.921  -1.314  0.00  0.00    +0.100 C 
ATOM     29  H   UNL     1       4.084   1.670  -1.401  0.00  0.00    +0.152 HD
ENDBRANCH  19  22
ENDBRANCH   2  19
TORSDOF 5
