REMARK  Name = 1536
REMARK  4 active torsions:
REMARK  status: ('A' for Active; 'I' for Inactive)
REMARK    1  A    between atoms: S_1  and  C_4
REMARK    2  A    between atoms: S_1  and  C_12
REMARK    3  A    between atoms: C_13  and  C_22
REMARK    4  A    between atoms: C_15  and  N_18
REMARK                            x       y       z     vdW  Elec       q    Type
REMARK                         _______ _______ _______ _____ _____    ______ ____
ROOT
ATOM      1  S   UNL     1      -0.061  -0.392  -1.532  0.00  0.00    +0.028 S 
ATOM      2  O   UNL     1       0.100  -1.631  -2.275  0.00  0.00    -0.164 OA
ATOM      3  O   UNL     1      -0.268   0.862  -2.241  0.00  0.00    -0.164 OA
ENDROOT
BRANCH   1   4
ATOM      4  C   UNL     1       1.400  -0.141  -0.564  0.00  0.00    +0.110 C 
ATOM      5  C   UNL     1       2.171  -1.235  -0.214  0.00  0.00    +0.014 C 
ATOM      6  C   UNL     1       1.739   1.142  -0.178  0.00  0.00    +0.014 C 
ATOM      7  C   UNL     1       3.322  -1.037   0.549  0.00  0.00    -0.021 C 
ATOM      8  C   UNL     1       2.890   1.340   0.585  0.00  0.00    -0.021 C 
ATOM      9  C   UNL     1       3.681   0.250   0.948  0.00  0.00    -0.008 C 
ATOM     10  C   UNL     1       4.167  -2.202   0.938  0.00  0.00    +0.031 C 
ATOM     11  C   UNL     1       3.275   2.716   1.012  0.00  0.00    +0.031 C 
ENDBRANCH   1   4
BRANCH   1  12
ATOM     12  C   UNL     1      -1.407  -0.652  -0.439  0.00  0.00    +0.121 C 
ATOM     13  C   UNL     1      -2.184   0.401   0.042  0.00  0.00    +0.099 C 
ATOM     14  C   UNL     1      -1.689  -1.962  -0.049  0.00  0.00    +0.020 C 
ATOM     15  C   UNL     1      -3.244   0.146   0.912  0.00  0.00    +0.053 C 
ATOM     16  C   UNL     1      -2.749  -2.217   0.821  0.00  0.00    +0.003 C 
ATOM     17  C   UNL     1      -3.526  -1.163   1.302  0.00  0.00    +0.015 C 
BRANCH  15  18
ATOM     18  N   UNL     1      -4.051   1.192   1.416  0.00  0.00    -0.356 N 
ATOM     19  H   UNL     1      -3.870   2.123   1.154  0.00  0.00    +0.142 HD
ATOM     20  H   UNL     1      -4.795   0.988   2.029  0.00  0.00    +0.142 HD
ENDBRANCH  15  18
BRANCH  13  22
ATOM     21  N   UNL     1      -1.667   2.837  -0.676  0.00  0.00    -0.191 NA
ATOM     22  C   UNL     1      -1.898   1.750  -0.356  0.00  0.00    +0.103 C 
ENDBRANCH  13  22
ENDBRANCH   1  12
TORSDOF 4
