REMARK  Name = 449242
REMARK  12 active torsions:
REMARK  status: ('A' for Active; 'I' for Inactive)
REMARK    1  A    between atoms: P_1  and  O_3
REMARK    2  A    between atoms: P_1  and  O_5
REMARK    3  A    between atoms: P_1  and  C_16
REMARK    4  A    between atoms: O_5  and  C_6
REMARK    5  A    between atoms: C_6  and  C_7
REMARK    6  A    between atoms: C_12  and  N_15
REMARK    7  A    between atoms: C_16  and  C_17
REMARK    8  A    between atoms: C_17  and  C_18
REMARK    9  A    between atoms: C_18  and  C_21
REMARK   10  A    between atoms: N_20  and  C_23
REMARK   11  A    between atoms: C_23  and  C_25
REMARK   12  A    between atoms: C_25  and  O_26
REMARK                            x       y       z     vdW  Elec       q    Type
REMARK                         _______ _______ _______ _____ _____    ______ ____
ROOT
ATOM      1  P   UNL     1       0.159   3.184  -0.283  0.00  0.00    +0.340 P 
ATOM      2  O   UNL     1      -0.079   3.845  -1.598  0.00  0.00    -0.258 OA
ENDROOT
BRANCH   1   3
ATOM      3  O   UNL     1       0.863   4.116   0.828  0.00  0.00    -0.323 OA
ATOM      4  H   UNL     1       1.706   4.448   0.484  0.00  0.00    +0.220 HD
ENDBRANCH   1   3
BRANCH   1   5
ATOM      5  O   UNL     1       1.063   1.852  -0.338  0.00  0.00    -0.289 OA
BRANCH   5   6
ATOM      6  C   UNL     1       1.453   1.173   0.843  0.00  0.00    +0.178 C 
BRANCH   6   7
ATOM      7  C   UNL     1       2.641   0.308   0.540  0.00  0.00    +0.008 C 
ATOM      8  C   UNL     1       3.930   0.820   0.682  0.00  0.00    -0.000 C 
ATOM      9  C   UNL     1       2.456  -1.009   0.119  0.00  0.00    -0.000 C 
ATOM     10  C   UNL     1       5.035   0.016   0.402  0.00  0.00    +0.024 C 
ATOM     11  C   UNL     1       3.560  -1.813  -0.161  0.00  0.00    +0.024 C 
ATOM     12  C   UNL     1       4.850  -1.301  -0.019  0.00  0.00    +0.143 C 
BRANCH  12  15
ATOM     13  O   UNL     1       7.126  -1.641  -0.168  0.00  0.00    -0.126 OA
ATOM     14  O   UNL     1       5.786  -3.302  -0.680  0.00  0.00    -0.126 OA
ATOM     15  N   UNL     1       5.974  -2.120  -0.302  0.00  0.00    +0.058 N 
ENDBRANCH  12  15
ENDBRANCH   6   7
ENDBRANCH   5   6
ENDBRANCH   1   5
BRANCH   1  16
ATOM     16  C   UNL     1      -1.369   2.672   0.532  0.00  0.00    +0.116 C 
BRANCH  16  17
ATOM     17  C   UNL     1      -2.190   1.678  -0.279  0.00  0.00    +0.022 C 
BRANCH  17  18
ATOM     18  C   UNL     1      -3.469   1.261   0.444  0.00  0.00    +0.086 C 
BRANCH  18  21
ATOM     19  O   UNL     1      -3.920  -0.194  -1.437  0.00  0.00    -0.275 OA
ATOM     20  N   UNL     1      -5.428  -0.128   0.329  0.00  0.00    -0.295 N 
ATOM     21  C   UNL     1      -4.271   0.238  -0.343  0.00  0.00    +0.223 C 
ATOM     22  H   UNL     1      -5.613   0.282   1.205  0.00  0.00    +0.150 HD
BRANCH  20  23
ATOM     23  C   UNL     1      -6.375  -1.083  -0.199  0.00  0.00    +0.200 C 
BRANCH  23  25
ATOM     24  O   UNL     1      -6.746  -3.461  -0.134  0.00  0.00    -0.248 OA
ATOM     25  C   UNL     1      -6.070  -2.500   0.214  0.00  0.00    +0.334 C 
BRANCH  25  26
ATOM     26  O   UNL     1      -4.979  -2.610   1.007  0.00  0.00    -0.479 OA
ATOM     27  H   UNL     1      -4.495  -1.845   1.246  0.00  0.00    +0.295 HD
ENDBRANCH  25  26
ENDBRANCH  23  25
ENDBRANCH  20  23
ENDBRANCH  18  21
ENDBRANCH  17  18
ENDBRANCH  16  17
ENDBRANCH   1  16
TORSDOF 12
