REMARK  Name = 5327066
REMARK  6 active torsions:
REMARK  status: ('A' for Active; 'I' for Inactive)
REMARK    1  A    between atoms: C_2  and  C_6
REMARK    2  A    between atoms: C_2  and  C_20
REMARK    3  A    between atoms: C_3  and  O_9
REMARK    4  A    between atoms: O_9  and  C_11
REMARK    5  A    between atoms: N_18  and  C_24
REMARK    6  A    between atoms: C_21  and  N_30
REMARK                            x       y       z     vdW  Elec       q    Type
REMARK                         _______ _______ _______ _____ _____    ______ ____
ROOT
ATOM      1  O   UNL     1       0.251   3.656  -0.462  0.00  0.00    -0.286 OA
ATOM      2  C   UNL     1      -0.172   2.543  -0.114  0.00  0.00    +0.200 C 
ENDROOT
BRANCH   2   6
ATOM      3  C   UNL     1      -3.503   0.847  -0.255  0.00  0.00    +0.138 C 
ATOM      4  C   UNL     1      -2.128   1.048  -0.296  0.00  0.00    +0.040 C 
ATOM      5  C   UNL     1      -4.366   1.905   0.006  0.00  0.00    +0.037 C 
ATOM      6  C   UNL     1      -1.610   2.324  -0.073  0.00  0.00    +0.042 C 
ATOM      7  C   UNL     1      -3.848   3.180   0.230  0.00  0.00    +0.003 C 
ATOM      8  C   UNL     1      -2.470   3.390   0.190  0.00  0.00    +0.003 C 
BRANCH   3   9
ATOM      9  O   UNL     1      -4.012  -0.406  -0.474  0.00  0.00    -0.479 OA
BRANCH   9  11
ATOM     10  N   UNL     1      -4.976  -3.852  -0.484  0.00  0.00    +0.384 N 
ATOM     11  C   UNL     1      -3.596  -1.434   0.423  0.00  0.00    +0.162 C 
ATOM     12  C   UNL     1      -2.882  -2.541  -0.353  0.00  0.00    +0.020 C 
ATOM     13  C   UNL     1      -4.828  -1.989   1.137  0.00  0.00    +0.020 C 
ATOM     14  C   UNL     1      -3.850  -3.316  -1.250  0.00  0.00    -0.078 C 
ATOM     15  C   UNL     1      -5.722  -2.787   0.186  0.00  0.00    -0.078 C 
ATOM     16  H   UNL     1      -4.620  -4.501   0.218  0.00  0.00    -0.085 HD
ATOM     17  H   UNL     1      -5.606  -4.327  -1.131  0.00  0.00    -0.085 HD
ENDBRANCH   9  11
ENDBRANCH   3   9
ENDBRANCH   2   6
BRANCH   2  20
ATOM     18  N   UNL     1       2.498   0.211   0.391  0.00  0.00    -0.177 N 
ATOM     19  N   UNL     1       1.637  -0.340   1.263  0.00  0.00    -0.171 NA
ATOM     20  C   UNL     1       0.770   1.469   0.264  0.00  0.00    +0.088 C 
ATOM     21  C   UNL     1       2.010   1.318  -0.240  0.00  0.00    +0.122 C 
ATOM     22  C   UNL     1       0.566   0.453   1.174  0.00  0.00    +0.124 C 
BRANCH  18  24
ATOM     23  F   UNL     1       7.468  -2.064  -0.317  0.00  0.00    -0.204 F 
ATOM     24  C   UNL     1       3.757  -0.365   0.212  0.00  0.00    +0.075 C 
ATOM     25  C   UNL     1       4.833   0.438  -0.140  0.00  0.00    +0.019 C 
ATOM     26  C   UNL     1       3.914  -1.733   0.388  0.00  0.00    +0.019 C 
ATOM     27  C   UNL     1       6.090  -0.138  -0.320  0.00  0.00    +0.031 C 
ATOM     28  C   UNL     1       5.172  -2.309   0.209  0.00  0.00    +0.031 C 
ATOM     29  C   UNL     1       6.260  -1.511  -0.145  0.00  0.00    +0.140 C 
ENDBRANCH  18  24
BRANCH  21  30
ATOM     30  N   UNL     1       2.735   2.005  -1.151  0.00  0.00    -0.344 N 
ATOM     31  H   UNL     1       3.647   1.711  -1.378  0.00  0.00    +0.144 HD
ATOM     32  H   UNL     1       2.351   2.799  -1.588  0.00  0.00    +0.144 HD
ENDBRANCH  21  30
ENDBRANCH   2  20
TORSDOF 6
