REMARK  Name = 5289045
REMARK  8 active torsions:
REMARK  status: ('A' for Active; 'I' for Inactive)
REMARK    1  A    between atoms: C_1  and  N_2
REMARK    2  A    between atoms: C_1  and  C_6
REMARK    3  A    between atoms: C_1  and  C_13
REMARK    4  A    between atoms: C_6  and  C_7
REMARK    5  A    between atoms: C_13  and  O_14
REMARK    6  A    between atoms: C_13  and  C_17
REMARK    7  A    between atoms: C_17  and  O_18
REMARK    8  A    between atoms: O_18  and  C_19
REMARK                            x       y       z     vdW  Elec       q    Type
REMARK                         _______ _______ _______ _____ _____    ______ ____
ROOT
ATOM      1  C   UNL     1       0.049   1.405   0.292  0.00  0.00    -0.027 C 
ENDROOT
BRANCH   1   2
ATOM      2  N   UNL     1       0.604   2.446   1.166  0.00  0.00    +0.384 N 
ATOM      3  H   UNL     1       1.619   2.460   1.075  0.00  0.00    -0.089 HD
ATOM      4  H   UNL     1       0.352   2.247   2.134  0.00  0.00    -0.089 HD
ATOM      5  H   UNL     1       0.225   3.354   0.895  0.00  0.00    -0.089 HD
ENDBRANCH   1   2
BRANCH   1   6
ATOM      6  C   UNL     1       0.673   0.030   0.606  0.00  0.00    -0.019 C 
BRANCH   6   7
ATOM      7  C   UNL     1       2.195   0.006   0.473  0.00  0.00    -0.002 C 
ATOM      8  C   UNL     1       2.749  -1.380   0.828  0.00  0.00    -0.000 C 
ATOM      9  C   UNL     1       2.621   0.419  -0.942  0.00  0.00    -0.000 C 
ATOM     10  C   UNL     1       4.264  -1.444   0.651  0.00  0.00    -0.000 C 
ATOM     11  C   UNL     1       4.137   0.352  -1.116  0.00  0.00    -0.000 C 
ATOM     12  C   UNL     1       4.685  -1.024  -0.754  0.00  0.00    -0.000 C 
ENDBRANCH   6   7
ENDBRANCH   1   6
BRANCH   1  13
ATOM     13  C   UNL     1      -1.484   1.412   0.455  0.00  0.00    +0.189 C 
BRANCH  13  14
ATOM     14  O   UNL     1      -2.000   2.707   0.176  0.00  0.00    -0.376 OA
ATOM     15  H   UNL     1      -1.581   3.355   0.763  0.00  0.00    +0.211 HD
ENDBRANCH  13  14
BRANCH  13  17
ATOM     16  O   UNL     1      -2.504   0.680  -1.628  0.00  0.00    -0.247 OA
ATOM     17  C   UNL     1      -2.162   0.425  -0.481  0.00  0.00    +0.342 C 
BRANCH  17  18
ATOM     18  O   UNL     1      -2.301  -0.781   0.143  0.00  0.00    -0.451 OA
BRANCH  18  19
ATOM     19  C   UNL     1      -3.413  -1.573  -0.284  0.00  0.00    +0.169 C 
ATOM     20  C   UNL     1      -3.412  -2.891   0.475  0.00  0.00    +0.047 C 
ATOM     21  C   UNL     1      -4.699  -0.792  -0.061  0.00  0.00    +0.047 C 
ENDBRANCH  18  19
ENDBRANCH  17  18
ENDBRANCH  13  17
ENDBRANCH   1  13
TORSDOF 8
