REMARK  Name = 10019998
REMARK  7 active torsions:
REMARK  status: ('A' for Active; 'I' for Inactive)
REMARK    1  A    between atoms: C_2  and  O_16
REMARK    2  A    between atoms: C_3  and  C_18
REMARK    3  A    between atoms: C_5  and  N_8
REMARK    4  A    between atoms: C_18  and  O_19
REMARK    5  A    between atoms: O_19  and  P_21
REMARK    6  A    between atoms: P_21  and  O_22
REMARK    7  A    between atoms: P_21  and  O_24
REMARK                            x       y       z     vdW  Elec       q    Type
REMARK                         _______ _______ _______ _____ _____    ______ ____
ROOT
ATOM      1  O   UNL     1      -0.391   1.220   0.944  0.00  0.00    -0.335 OA
ATOM      2  C   UNL     1      -0.961   2.744  -0.781  0.00  0.00    +0.144 C 
ATOM      3  C   UNL     1      -1.515   1.703   0.183  0.00  0.00    +0.174 C 
ATOM      4  C   UNL     1       0.455   2.272  -1.017  0.00  0.00    +0.083 C 
ATOM      5  C   UNL     1       0.826   1.659   0.323  0.00  0.00    +0.202 C 
ENDROOT
BRANCH   5   8
ATOM      6  O   UNL     1       3.665   1.810   0.480  0.00  0.00    -0.252 OA
ATOM      7  O   UNL     1       4.111  -2.719  -0.181  0.00  0.00    -0.270 OA
ATOM      8  N   UNL     1       1.722   0.547   0.198  0.00  0.00    -0.219 N 
ATOM      9  N   UNL     1       3.873  -0.450   0.149  0.00  0.00    -0.236 N 
ATOM     10  C   UNL     1       1.185  -0.716  -0.018  0.00  0.00    +0.071 C 
ATOM     11  C   UNL     1       3.120   0.721   0.290  0.00  0.00    +0.315 C 
ATOM     12  C   UNL     1       1.909  -1.834  -0.153  0.00  0.00    +0.047 C 
ATOM     13  C   UNL     1       3.390  -1.731  -0.067  0.00  0.00    +0.250 C 
ATOM     14  C   UNL     1       1.310  -3.184  -0.385  0.00  0.00    +0.037 C 
ATOM     15  H   UNL     1       4.851  -0.353   0.209  0.00  0.00    +0.159 HD
ENDBRANCH   5   8
BRANCH   2  16
ATOM     16  O   UNL     1      -0.942   4.024  -0.154  0.00  0.00    -0.382 OA
ATOM     17  H   UNL     1      -1.852   4.324  -0.003  0.00  0.00    +0.210 HD
ENDBRANCH   2  16
BRANCH   3  18
ATOM     18  C   UNL     1      -2.145   0.513  -0.529  0.00  0.00    +0.183 C 
BRANCH  18  19
ATOM     19  O   UNL     1      -2.620  -0.403   0.444  0.00  0.00    -0.295 OA
BRANCH  19  21
ATOM     20  S   UNL     1      -3.678  -2.708  -1.240  0.00  0.00    +0.022 S 
ATOM     21  P   UNL     1      -3.907  -1.333   0.112  0.00  0.00    +0.304 P 
BRANCH  21  22
ATOM     22  O   UNL     1      -5.078  -0.248  -0.175  0.00  0.00    -0.327 OA
ATOM     23  H   UNL     1      -4.933   0.163  -1.042  0.00  0.00    +0.219 HD
ENDBRANCH  21  22
BRANCH  21  24
ATOM     24  O   UNL     1      -4.329  -1.888   1.577  0.00  0.00    -0.327 OA
ATOM     25  H   UNL     1      -3.690  -2.559   1.864  0.00  0.00    +0.219 HD
ENDBRANCH  21  24
ENDBRANCH  19  21
ENDBRANCH  18  19
ENDBRANCH   3  18
TORSDOF 7
