REMARK  Name = 35802
REMARK  4 active torsions:
REMARK  status: ('A' for Active; 'I' for Inactive)
REMARK    1  A    between atoms: N_4  and  C_11
REMARK    2  A    between atoms: C_7  and  C_17
REMARK    3  A    between atoms: C_12  and  O_25
REMARK    4  A    between atoms: C_17  and  C_19
REMARK                            x       y       z     vdW  Elec       q    Type
REMARK                         _______ _______ _______ _____ _____    ______ ____
ROOT
ATOM      1  N   UNL     1       1.702   0.859  -0.002  0.00  0.00    -0.302 N 
ATOM      2  N   UNL     1       2.922  -0.999  -0.001  0.00  0.00    -0.302 N 
ATOM      3  C   UNL     1       0.798  -0.173  -0.001  0.00  0.00    +0.060 C 
ATOM      4  C   UNL     1       1.585  -1.322  -0.001  0.00  0.00    +0.060 C 
ATOM      5  C   UNL     1      -1.203  -1.459   0.000  0.00  0.00    +0.040 C 
ATOM      6  C   UNL     1      -0.597  -0.199   0.000  0.00  0.00    +0.019 C 
ATOM      7  C   UNL     1       0.959  -2.580   0.000  0.00  0.00    +0.016 C 
ATOM      8  C   UNL     1      -0.441  -2.630   0.001  0.00  0.00    +0.005 C 
ATOM      9  C   UNL     1       2.957   0.314  -0.002  0.00  0.00    +0.229 C 
ATOM     10  H   UNL     1       1.487   1.819  -0.002  0.00  0.00    +0.150 HD
ATOM     11  H   UNL     1       3.688  -1.619  -0.001  0.00  0.00    +0.150 HD
ENDROOT
BRANCH   9  13
ATOM     12  O   UNL     1       5.839  -0.416  -0.001  0.00  0.00    -0.226 OA
ATOM     13  N   UNL     1       4.063   1.124   0.000  0.00  0.00    -0.240 N 
ATOM     14  C   UNL     1       5.401   0.728   0.000  0.00  0.00    +0.404 C 
ATOM     15  H   UNL     1       3.894   2.094   0.001  0.00  0.00    +0.156 HD
BRANCH  14  16
ATOM     16  O   UNL     1       6.202   1.839   0.002  0.00  0.00    -0.431 OA
ATOM     17  C   UNL     1       7.614   1.598   0.002  0.00  0.00    +0.257 C 
ENDBRANCH  14  16
ENDBRANCH   9  13
BRANCH   5  19
ATOM     18  O   UNL     1      -3.211  -2.659   0.001  0.00  0.00    -0.287 OA
ATOM     19  C   UNL     1      -2.655  -1.551   0.001  0.00  0.00    +0.196 C 
BRANCH  19  21
ATOM     20  F   UNL     1      -5.936   2.967   0.000  0.00  0.00    -0.204 F 
ATOM     21  C   UNL     1      -3.533  -0.342   0.000  0.00  0.00    +0.039 C 
ATOM     22  C   UNL     1      -3.920   0.190  -1.208  0.00  0.00    +0.005 C 
ATOM     23  C   UNL     1      -3.919   0.191   1.208  0.00  0.00    +0.005 C 
ATOM     24  C   UNL     1      -4.739   1.319  -1.208  0.00  0.00    +0.030 C 
ATOM     25  C   UNL     1      -4.739   1.319   1.208  0.00  0.00    +0.030 C 
ATOM     26  C   UNL     1      -5.149   1.883   0.000  0.00  0.00    +0.140 C 
ENDBRANCH  19  21
ENDBRANCH   5  19
TORSDOF 4
