24779675
  -OEChem-10051721193D

 47 50  0     0  0  0  0  0  0999 V2000
    1.5408   -0.3295   -0.2157 N   0  0  0  0  0  0  0  0  0  0  0  0
    0.4956    1.7114   -0.0677 N   0  0  0  0  0  0  0  0  0  0  0  0
   -0.7942   -0.2994   -0.0826 N   0  0  0  0  0  0  0  0  0  0  0  0
   -1.8530    1.7251    0.0658 N   0  0  0  0  0  0  0  0  0  0  0  0
   -3.1597   -0.2421    0.0538 N   0  0  0  0  0  0  0  0  0  0  0  0
   -2.9340    2.5192    0.1622 N   0  0  0  0  0  0  0  0  0  0  0  0
    0.6370    5.7298    0.1058 N   0  0  0  0  0  0  0  0  0  0  0  0
    3.9063   -0.8489   -0.3649 C   0  0  0  0  0  0  0  0  0  0  0  0
    5.2330   -0.2867   -0.8934 C   0  0  0  0  0  0  0  0  0  0  0  0
    4.1054   -1.5329    0.9942 C   0  0  0  0  0  0  0  0  0  0  0  0
    6.3166   -1.3609   -0.9524 C   0  0  0  0  0  0  0  0  0  0  0  0
    5.1912   -2.6049    0.9322 C   0  0  0  0  0  0  0  0  0  0  0  0
    6.5056   -2.0445    0.3982 C   0  0  0  0  0  0  0  0  0  0  0  0
    2.8547    0.2546   -0.2646 C   0  0  0  0  0  0  0  0  0  0  0  0
    0.4105    0.4002   -0.1200 C   0  0  0  0  0  0  0  0  0  0  0  0
   -0.6658    2.3971    0.0286 C   0  0  0  0  0  0  0  0  0  0  0  0
   -1.9227    0.3421    0.0090 C   0  0  0  0  0  0  0  0  0  0  0  0
   -0.9958    3.7307    0.1076 C   0  0  0  0  0  0  0  0  0  0  0  0
   -2.4030    3.7452    0.1880 C   0  0  0  0  0  0  0  0  0  0  0  0
   -3.4442   -1.6077    0.0107 C   0  0  0  0  0  0  0  0  0  0  0  0
   -4.6422   -2.0537   -0.5477 C   0  0  0  0  0  0  0  0  0  0  0  0
   -2.5305   -2.5270    0.5266 C   0  0  0  0  0  0  0  0  0  0  0  0
   -0.0971    4.8311    0.1065 C   0  0  0  0  0  0  0  0  0  0  0  0
   -4.9266   -3.4186   -0.5901 C   0  0  0  0  0  0  0  0  0  0  0  0
   -2.8150   -3.8919    0.4841 C   0  0  0  0  0  0  0  0  0  0  0  0
   -4.0131   -4.3376   -0.0743 C   0  0  0  0  0  0  0  0  0  0  0  0
    3.5641   -1.6074   -1.0837 H   0  0  0  0  0  0  0  0  0  0  0  0
    5.5724    0.5345   -0.2490 H   0  0  0  0  0  0  0  0  0  0  0  0
    5.0902    0.1339   -1.8960 H   0  0  0  0  0  0  0  0  0  0  0  0
    3.1701   -1.9946    1.3314 H   0  0  0  0  0  0  0  0  0  0  0  0
    4.3821   -0.7881    1.7514 H   0  0  0  0  0  0  0  0  0  0  0  0
    6.0467   -2.1104   -1.7065 H   0  0  0  0  0  0  0  0  0  0  0  0
    7.2633   -0.9117   -1.2735 H   0  0  0  0  0  0  0  0  0  0  0  0
    5.3496   -3.0269    1.9310 H   0  0  0  0  0  0  0  0  0  0  0  0
    4.8557   -3.4268    0.2877 H   0  0  0  0  0  0  0  0  0  0  0  0
    6.9141   -1.3243    1.1176 H   0  0  0  0  0  0  0  0  0  0  0  0
    7.2397   -2.8525    0.3033 H   0  0  0  0  0  0  0  0  0  0  0  0
    2.9178    0.9023   -1.1476 H   0  0  0  0  0  0  0  0  0  0  0  0
    3.0352    0.8807    0.6176 H   0  0  0  0  0  0  0  0  0  0  0  0
    1.4640   -1.3417   -0.2595 H   0  0  0  0  0  0  0  0  0  0  0  0
   -3.9764    0.3599   -0.0121 H   0  0  0  0  0  0  0  0  0  0  0  0
   -3.0663    4.5954    0.2640 H   0  0  0  0  0  0  0  0  0  0  0  0
   -5.3625   -1.3481   -0.9540 H   0  0  0  0  0  0  0  0  0  0  0  0
   -1.6123   -2.2304    1.0218 H   0  0  0  0  0  0  0  0  0  0  0  0
   -5.8596   -3.7659   -1.0243 H   0  0  0  0  0  0  0  0  0  0  0  0
   -2.1100   -4.6075    0.8973 H   0  0  0  0  0  0  0  0  0  0  0  0
   -4.2359   -5.4001   -0.1045 H   0  0  0  0  0  0  0  0  0  0  0  0
  1 14  1  0  0  0  0
  1 15  1  0  0  0  0
  1 40  1  0  0  0  0
  2 15  2  0  0  0  0
  2 16  1  0  0  0  0
  3 15  1  0  0  0  0
  3 17  2  0  0  0  0
  4  6  1  0  0  0  0
  4 16  1  0  0  0  0
  4 17  1  0  0  0  0
  5 17  1  0  0  0  0
  5 20  1  0  0  0  0
  5 41  1  0  0  0  0
  6 19  2  0  0  0  0
  7 23  3  0  0  0  0
  8  9  1  0  0  0  0
  8 10  1  0  0  0  0
  8 14  1  0  0  0  0
  8 27  1  0  0  0  0
  9 11  1  0  0  0  0
  9 28  1  0  0  0  0
  9 29  1  0  0  0  0
 10 12  1  0  0  0  0
 10 30  1  0  0  0  0
 10 31  1  0  0  0  0
 11 13  1  0  0  0  0
 11 32  1  0  0  0  0
 11 33  1  0  0  0  0
 12 13  1  0  0  0  0
 12 34  1  0  0  0  0
 12 35  1  0  0  0  0
 13 36  1  0  0  0  0
 13 37  1  0  0  0  0
 14 38  1  0  0  0  0
 14 39  1  0  0  0  0
 16 18  2  0  0  0  0
 18 19  1  0  0  0  0
 18 23  1  0  0  0  0
 19 42  1  0  0  0  0
 20 21  2  0  0  0  0
 20 22  1  0  0  0  0
 21 24  1  0  0  0  0
 21 43  1  0  0  0  0
 22 25  2  0  0  0  0
 22 44  1  0  0  0  0
 24 26  2  0  0  0  0
 24 45  1  0  0  0  0
 25 26  1  0  0  0  0
 25 46  1  0  0  0  0
 26 47  1  0  0  0  0
M  END
> <DATABASE_ID>
DB08353

> <DATABASE_NAME>
drugbank

> <ORIGINAL_SOURCE>
PUBCHEM

> <ORIGINAL_SOURCE_URL>
https://pubchem.ncbi.nlm.nih.gov/rest/pug/compound/inchikey/NCVMTHVSAJMOPI-UHFFFAOYSA-N/SDF?record_type=3d

> <SMILES>
N#CC1=C2N=C(NCC3CCCCC3)N=C(NC3=CC=CC=C3)N2N=C1

> <INCHI_IDENTIFIER>
InChI=1S/C19H21N7/c20-11-15-13-22-26-17(15)24-18(21-12-14-7-3-1-4-8-14)25-19(26)23-16-9-5-2-6-10-16/h2,5-6,9-10,13-14H,1,3-4,7-8,12H2,(H2,21,23,24,25)

> <INCHI_KEY>
NCVMTHVSAJMOPI-UHFFFAOYSA-N

> <FORMULA>
C19H21N7

> <MOLECULAR_WEIGHT>
347.4169

> <EXACT_MASS>
347.185843707

> <JCHEM_ACCEPTOR_COUNT>
6

> <JCHEM_AVERAGE_POLARIZABILITY>
37.825935007397504

> <JCHEM_BIOAVAILABILITY>
1

> <JCHEM_DONOR_COUNT>
2

> <JCHEM_FORMAL_CHARGE>
0

> <JCHEM_GHOSE_FILTER>
1

> <JCHEM_IUPAC>
2-[(cyclohexylmethyl)amino]-4-(phenylamino)pyrazolo[1,5-a][1,3,5]triazine-8-carbonitrile

> <ALOGPS_LOGP>
3.90

> <JCHEM_LOGP>
4.2125723656666665

> <ALOGPS_LOGS>
-4.16

> <JCHEM_MDDR_LIKE_RULE>
0

> <JCHEM_NUMBER_OF_RINGS>
4

> <JCHEM_PHYSIOLOGICAL_CHARGE>
0

> <JCHEM_PKA>
16.011191478723063

> <JCHEM_PKA_STRONGEST_ACIDIC>
14.029779812028341

> <JCHEM_PKA_STRONGEST_BASIC>
1.7325926104549896

> <JCHEM_POLAR_SURFACE_AREA>
90.93

> <JCHEM_REFRACTIVITY>
112.51360000000001

> <JCHEM_ROTATABLE_BOND_COUNT>
5

> <JCHEM_RULE_OF_FIVE>
1

> <ALOGPS_SOLUBILITY>
2.40e-02 g/l

> <JCHEM_TRADITIONAL_IUPAC>
2-[(cyclohexylmethyl)amino]-4-(phenylamino)pyrazolo[1,5-a][1,3,5]triazine-8-carbonitrile

> <JCHEM_VEBER_RULE>
0

> <DRUGBANK_ID>
DB08353

> <DRUG_GROUPS>
experimental

> <GENERIC_NAME>
2-(CYCLOHEXYLMETHYLAMINO)-4-(PHENYLAMINO)PYRAZOLO[1,5-A][1,3,5]TRIAZINE-8-CARBONITRILE

$$$$
