REMARK  Name = 70164
REMARK  5 active torsions:
REMARK  status: ('A' for Active; 'I' for Inactive)
REMARK    1  A    between atoms: C_1  and  C_14
REMARK    2  A    between atoms: C_2  and  O_7
REMARK    3  A    between atoms: C_3  and  O_9
REMARK    4  A    between atoms: C_4  and  O_11
REMARK    5  A    between atoms: C_14  and  O_15
REMARK                            x       y       z     vdW  Elec       q    Type
REMARK                         _______ _______ _______ _____ _____    ______ ____
ROOT
ATOM      1  C   UNL     1      -0.933   0.141   0.057  0.00  0.00    +0.082 C 
ATOM      2  C   UNL     1       1.257   1.152  -0.068  0.00  0.00    +0.175 C 
ATOM      3  C   UNL     1       1.027  -1.250  -0.186  0.00  0.00    +0.175 C 
ATOM      4  C   UNL     1       1.834  -0.112  -0.188  0.00  0.00    +0.202 C 
ATOM      5  C   UNL     1      -0.126   1.279   0.055  0.00  0.00    +0.047 C 
ATOM      6  C   UNL     1      -0.356  -1.123  -0.064  0.00  0.00    +0.047 C 
ENDROOT
BRANCH   2   7
ATOM      7  O   UNL     1       2.034   2.271  -0.069  0.00  0.00    -0.468 OA
ATOM      8  C   UNL     1       1.366   3.525   0.059  0.00  0.00    +0.253 C 
ENDBRANCH   2   7
BRANCH   3   9
ATOM      9  O   UNL     1       1.578  -2.490  -0.306  0.00  0.00    -0.468 OA
ATOM     10  C   UNL     1       1.948  -3.154   0.901  0.00  0.00    +0.253 C 
ENDBRANCH   3   9
BRANCH   4  11
ATOM     11  O   UNL     1       3.187  -0.236  -0.307  0.00  0.00    -0.501 OA
ATOM     12  H   UNL     1       3.729   0.528  -0.309  0.00  0.00    +0.292 HD
ENDBRANCH   4  11
BRANCH   1  14
ATOM     13  O   UNL     1      -2.944   1.186   0.797  0.00  0.00    -0.245 OA
ATOM     14  C   UNL     1      -2.376   0.273   0.184  0.00  0.00    +0.342 C 
BRANCH  14  15
ATOM     15  O   UNL     1      -3.033  -0.741  -0.460  0.00  0.00    -0.441 OA
ATOM     16  C   UNL     1      -4.463  -0.721  -0.407  0.00  0.00    +0.256 C 
ENDBRANCH  14  15
ENDBRANCH   1  14
TORSDOF 5
