REMARK  Name = 24812721
REMARK  6 active torsions:
REMARK  status: ('A' for Active; 'I' for Inactive)
REMARK    1  A    between atoms: C_1  and  N_8
REMARK    2  A    between atoms: C_4  and  N_26
REMARK    3  A    between atoms: C_5  and  C_23
REMARK    4  A    between atoms: N_26  and  C_28
REMARK    5  A    between atoms: C_28  and  C_29
REMARK    6  A    between atoms: C_29  and  O_30
REMARK                            x       y       z     vdW  Elec       q    Type
REMARK                         _______ _______ _______ _____ _____    ______ ____
ROOT
ATOM      1  C   UNL     1      -0.045   0.677   0.448  0.00  0.00    +0.065 C 
ATOM      2  C   UNL     1       0.993  -0.141   0.002  0.00  0.00    +0.032 C 
ATOM      3  C   UNL     1       0.240   1.838   1.167  0.00  0.00    +0.018 C 
ATOM      4  C   UNL     1       2.317   0.203   0.276  0.00  0.00    +0.051 C 
ATOM      5  C   UNL     1       2.603   1.363   0.995  0.00  0.00    +0.066 C 
ATOM      6  C   UNL     1       1.564   2.180   1.441  0.00  0.00    +0.007 C 
ENDROOT
BRANCH   1   8
ATOM      7  O   UNL     1      -5.342  -1.939  -0.021  0.00  0.00    -0.291 OA
ATOM      8  N   UNL     1      -1.373   0.333   0.174  0.00  0.00    -0.310 N 
ATOM      9  C   UNL     1      -1.987  -0.821   0.567  0.00  0.00    +0.044 A 
ATOM     10  C   UNL     1      -3.283  -0.809   0.097  0.00  0.00    +0.048 A 
ATOM     11  C   UNL     1      -1.346  -1.897   1.365  0.00  0.00    +0.045 C 
ATOM     12  C   UNL     1      -2.444  -2.716   2.061  0.00  0.00    +0.014 C 
ATOM     13  C   UNL     1      -3.472   0.414  -0.607  0.00  0.00    +0.020 A 
ATOM     14  C   UNL     1      -2.258   1.109  -0.543  0.00  0.00    +0.064 A 
ATOM     15  C   UNL     1      -3.568  -3.121   1.096  0.00  0.00    +0.070 C 
ATOM     16  C   UNL     1      -4.177  -1.924   0.366  0.00  0.00    +0.174 C 
ATOM     17  C   UNL     1      -4.551   1.006  -1.296  0.00  0.00    +0.002 C 
ATOM     18  C   UNL     1      -2.075   2.365  -1.135  0.00  0.00    +0.018 C 
ATOM     19  C   UNL     1      -4.380   2.261  -1.892  0.00  0.00    +0.000 C 
ATOM     20  C   UNL     1      -3.161   2.928  -1.811  0.00  0.00    +0.001 C 
ENDBRANCH   1   8
BRANCH   5  23
ATOM     21  O   UNL     1       4.544   1.357   2.328  0.00  0.00    -0.270 OA
ATOM     22  N   UNL     1       4.633   2.559   0.377  0.00  0.00    -0.325 N 
ATOM     23  C   UNL     1       3.975   1.750   1.296  0.00  0.00    +0.244 C 
ATOM     24  H   UNL     1       5.561   2.841   0.546  0.00  0.00    +0.145 HD
ATOM     25  H   UNL     1       4.171   2.850  -0.442  0.00  0.00    +0.145 HD
ENDBRANCH   5  23
BRANCH   4  26
ATOM     26  N   UNL     1       3.355  -0.639  -0.183  0.00  0.00    -0.330 N 
ATOM     27  H   UNL     1       4.287  -0.390   0.014  0.00  0.00    +0.147 HD
BRANCH  26  28
ATOM     28  C   UNL     1       3.110  -1.837  -0.922  0.00  0.00    +0.120 C 
BRANCH  28  29
ATOM     29  C   UNL     1       4.425  -2.531  -1.237  0.00  0.00    +0.163 C 
BRANCH  29  30
ATOM     30  O   UNL     1       5.231  -1.678  -2.040  0.00  0.00    -0.349 OA
ATOM     31  C   UNL     1       6.471  -2.289  -2.366  0.00  0.00    +0.174 C 
ENDBRANCH  29  30
ENDBRANCH  28  29
ENDBRANCH  26  28
ENDBRANCH   4  26
TORSDOF 6
