REMARK  Name = 9458
REMARK  5 active torsions:
REMARK  status: ('A' for Active; 'I' for Inactive)
REMARK    1  A    between atoms: C_1  and  C_10
REMARK    2  A    between atoms: C_2  and  O_15
REMARK    3  A    between atoms: C_3  and  C_12
REMARK    4  A    between atoms: C_12  and  O_13
REMARK    5  A    between atoms: O_15  and  C_17
REMARK                            x       y       z     vdW  Elec       q    Type
REMARK                         _______ _______ _______ _____ _____    ______ ____
ROOT
ATOM      1  C   UNL     1       1.744  -0.181  -0.054  0.00  0.00    +0.074 C 
ATOM      2  C   UNL     1      -0.603   0.247  -0.435  0.00  0.00    +0.155 C 
ATOM      3  C   UNL     1      -0.896  -1.080  -0.122  0.00  0.00    +0.110 C 
ATOM      4  C   UNL     1       0.717   0.697  -0.401  0.00  0.00    +0.042 C 
ATOM      5  C   UNL     1       1.451  -1.508   0.259  0.00  0.00    +0.004 C 
ATOM      6  C   UNL     1       0.131  -1.958   0.225  0.00  0.00    +0.009 C 
ENDROOT
BRANCH   1  10
ATOM      7  F   UNL     1       4.053  -0.666   0.340  0.00  0.00    -0.166 F 
ATOM      8  F   UNL     1       3.603   0.776  -1.215  0.00  0.00    -0.166 F 
ATOM      9  F   UNL     1       3.340   1.317   0.874  0.00  0.00    -0.166 F 
ATOM     10  C   UNL     1       3.155   0.299  -0.016  0.00  0.00    +0.419 C 
ENDBRANCH   1  10
BRANCH   3  12
ATOM     11  O   UNL     1      -3.161  -1.145  -0.891  0.00  0.00    -0.245 OA
ATOM     12  C   UNL     1      -2.267  -1.570  -0.154  0.00  0.00    +0.341 C 
BRANCH  12  13
ATOM     13  O   UNL     1      -2.478  -2.577   0.736  0.00  0.00    -0.477 OA
ATOM     14  H   UNL     1      -1.777  -2.875   1.281  0.00  0.00    +0.295 HD
ENDBRANCH  12  13
ENDBRANCH   3  12
BRANCH   2  15
ATOM     15  O   UNL     1      -1.593   1.120  -0.777  0.00  0.00    -0.424 OA
BRANCH  15  17
ATOM     16  O   UNL     1      -1.822   1.679   1.485  0.00  0.00    -0.250 OA
ATOM     17  C   UNL     1      -2.150   1.808   0.313  0.00  0.00    +0.322 C 
ATOM     18  C   UNL     1      -3.224   2.739  -0.165  0.00  0.00    +0.122 C 
ENDBRANCH  15  17
ENDBRANCH   2  15
TORSDOF 5
