REMARK  Name = 54723327
REMARK  6 active torsions:
REMARK  status: ('A' for Active; 'I' for Inactive)
REMARK    1  A    between atoms: N_2  and  C_5
REMARK    2  A    between atoms: C_3  and  C_18
REMARK    3  A    between atoms: C_6  and  C_11
REMARK    4  A    between atoms: C_17  and  C_19
REMARK    5  A    between atoms: C_17  and  O_22
REMARK    6  A    between atoms: C_18  and  C_25
REMARK                            x       y       z     vdW  Elec       q    Type
REMARK                         _______ _______ _______ _____ _____    ______ ____
ROOT
ATOM      1  O   UNL     1      -1.922   0.780  -1.457  0.00  0.00    -0.269 OA
ATOM      2  N   UNL     1      -1.166  -0.516   0.346  0.00  0.00    -0.280 N 
ATOM      3  C   UNL     1      -2.120   0.050  -0.492  0.00  0.00    +0.262 C 
ATOM      4  H   UNL     1      -1.507  -1.083   1.075  0.00  0.00    +0.155 HD
ENDROOT
BRANCH   2   5
ATOM      5  C   UNL     1       0.241  -0.371   0.269  0.00  0.00    +0.051 C 
ATOM      6  C   UNL     1       3.011  -0.084   0.118  0.00  0.00    +0.000 C 
ATOM      7  C   UNL     1       1.060  -1.013   1.198  0.00  0.00    +0.015 C 
ATOM      8  C   UNL     1       0.807   0.415  -0.735  0.00  0.00    +0.015 C 
ATOM      9  C   UNL     1       2.445  -0.870   1.122  0.00  0.00    +0.001 C 
ATOM     10  C   UNL     1       2.192   0.558  -0.811  0.00  0.00    +0.001 C 
BRANCH   6  11
ATOM     11  C   UNL     1       4.448   0.065   0.038  0.00  0.00    +0.000 C 
ATOM     12  C   UNL     1       5.080   1.104   0.722  0.00  0.00    +0.000 C 
ATOM     13  C   UNL     1       5.201  -0.829  -0.723  0.00  0.00    +0.000 C 
ATOM     14  C   UNL     1       6.466   1.248   0.645  0.00  0.00    +0.000 C 
ATOM     15  C   UNL     1       6.587  -0.685  -0.799  0.00  0.00    +0.000 C 
ATOM     16  C   UNL     1       7.219   0.353  -0.116  0.00  0.00    +0.000 C 
ENDBRANCH   6  11
ENDBRANCH   2   5
BRANCH   3  18
ATOM     17  C   UNL     1      -4.411   0.638   0.221  0.00  0.00    +0.125 C 
ATOM     18  C   UNL     1      -3.523  -0.331  -0.100  0.00  0.00    +0.151 C 
BRANCH  17  19
ATOM     19  C   UNL     1      -5.827   0.376   0.602  0.00  0.00    +0.057 C 
ATOM     20  C   UNL     1      -6.846   1.456   0.385  0.00  0.00    +0.008 C 
ATOM     21  C   UNL     1      -6.855   0.232  -0.482  0.00  0.00    +0.008 C 
ENDBRANCH  17  19
BRANCH  17  22
ATOM     22  O   UNL     1      -3.993   1.966   0.224  0.00  0.00    -0.509 OA
ATOM     23  H   UNL     1      -4.598   2.646   0.444  0.00  0.00    +0.292 HD
ENDBRANCH  17  22
BRANCH  18  25
ATOM     24  N   UNL     1      -4.196  -2.832  -0.085  0.00  0.00    -0.191 NA
ATOM     25  C   UNL     1      -3.897  -1.710  -0.091  0.00  0.00    +0.108 C 
ENDBRANCH  18  25
ENDBRANCH   3  18
TORSDOF 6
