REMARK  Name = 9952008
REMARK  0 active torsions:
REMARK  status: ('A' for Active; 'I' for Inactive)
REMARK                            x       y       z     vdW  Elec       q    Type
REMARK                         _______ _______ _______ _____ _____    ______ ____
ROOT
ATOM      1 BR   UNL     1       5.440  -1.231   0.156  0.00  0.00    -0.043 Br
ATOM      2  S   UNL     1      -3.205  -1.133  -0.556  0.00  0.00    +0.060 S 
ATOM      3  O   UNL     1      -4.179  -1.521   0.446  0.00  0.00    -0.153 OA
ATOM      4  O   UNL     1      -3.583  -1.001  -1.950  0.00  0.00    -0.153 OA
ATOM      5  N   UNL     1      -1.862  -2.172  -0.450  0.00  0.00    -0.179 NA
ATOM      6  N   UNL     1       2.393  -2.019   0.201  0.00  0.00    -0.307 N 
ATOM      7  N   UNL     1       0.637   2.370  -0.295  0.00  0.00    -0.247 N 
ATOM      8  N   UNL     1       1.563   0.183  -0.143  0.00  0.00    -0.322 NA
ATOM      9  N   UNL     1       2.987   2.054  -0.365  0.00  0.00    -0.169 NA
ATOM     10  C   UNL     1       0.082  -2.242   1.099  0.00  0.00    +0.040 C 
ATOM     11  C   UNL     1      -1.352  -2.703   0.830  0.00  0.00    +0.093 C 
ATOM     12  C   UNL     1       1.073  -2.598  -0.018  0.00  0.00    +0.091 C 
ATOM     13  C   UNL     1      -2.561   0.448  -0.095  0.00  0.00    +0.123 C 
ATOM     14  C   UNL     1      -1.269   0.807  -0.483  0.00  0.00    +0.035 C 
ATOM     15  C   UNL     1      -0.722   2.042  -0.098  0.00  0.00    +0.059 C 
ATOM     16  C   UNL     1      -3.354   1.323   0.642  0.00  0.00    +0.020 C 
ATOM     17  C   UNL     1       2.610  -0.655   0.025  0.00  0.00    +0.201 C 
ATOM     18  C   UNL     1      -1.536   2.925   0.629  0.00  0.00    +0.015 C 
ATOM     19  C   UNL     1      -2.840   2.570   0.989  0.00  0.00    +0.003 C 
ATOM     20  C   UNL     1       1.756   1.511  -0.298  0.00  0.00    +0.150 C 
ATOM     21  C   UNL     1       3.897  -0.159  -0.029  0.00  0.00    +0.099 C 
ATOM     22  C   UNL     1       4.027   1.202  -0.235  0.00  0.00    +0.122 C 
ATOM     23  H   UNL     1      -1.083  -1.668  -0.874  0.00  0.00    +0.149 HD
ATOM     24  H   UNL     1       3.139  -2.599   0.477  0.00  0.00    +0.149 HD
ATOM     25  H   UNL     1       0.829   3.323  -0.450  0.00  0.00    +0.165 HD
ENDROOT
TORSDOF 0
