REMARK  Name = 6420120
REMARK  8 active torsions:
REMARK  status: ('A' for Active; 'I' for Inactive)
REMARK    1  A    between atoms: N_2  and  C_7
REMARK    2  A    between atoms: N_3  and  C_13
REMARK    3  A    between atoms: C_13  and  C_14
REMARK    4  A    between atoms: C_14  and  C_15
REMARK    5  A    between atoms: C_15  and  C_16
REMARK    6  A    between atoms: C_16  and  C_17
REMARK    7  A    between atoms: C_17  and  C_19
REMARK    8  A    between atoms: C_19  and  O_20
REMARK                            x       y       z     vdW  Elec       q    Type
REMARK                         _______ _______ _______ _____ _____    ______ ____
ROOT
ATOM      1  O   UNL     1      -1.719  -2.216   1.175  0.00  0.00    -0.253 OA
ATOM      2  N   UNL     1      -2.451  -0.607  -0.330  0.00  0.00    -0.291 N 
ATOM      3  N   UNL     1      -0.543  -1.815  -0.785  0.00  0.00    -0.289 N 
ATOM      4  C   UNL     1      -1.585  -1.601   0.118  0.00  0.00    +0.301 C 
ATOM      5  H   UNL     1      -2.259  -0.172  -1.192  0.00  0.00    +0.151 HD
ATOM      6  H   UNL     1      -0.516  -1.275  -1.608  0.00  0.00    +0.151 HD
ENDROOT
BRANCH   2   7
ATOM      7  C   UNL     1      -3.618  -0.182   0.410  0.00  0.00    +0.073 C 
ATOM      8  C   UNL     1      -3.265   0.927   1.407  0.00  0.00    +0.020 C 
ATOM      9  C   UNL     1      -4.740   0.259  -0.536  0.00  0.00    +0.020 C 
ATOM     10  C   UNL     1      -2.965   2.259   0.719  0.00  0.00    +0.002 C 
ATOM     11  C   UNL     1      -4.438   1.591  -1.221  0.00  0.00    +0.002 C 
ATOM     12  C   UNL     1      -4.100   2.681  -0.208  0.00  0.00    +0.000 C 
ENDBRANCH   2   7
BRANCH   3  13
ATOM     13  C   UNL     1       0.494  -2.788  -0.569  0.00  0.00    +0.091 C 
BRANCH  13  14
ATOM     14  C   UNL     1       1.676  -2.185   0.183  0.00  0.00    +0.021 C 
BRANCH  14  15
ATOM     15  C   UNL     1       2.341  -1.025  -0.560  0.00  0.00    +0.002 C 
BRANCH  15  16
ATOM     16  C   UNL     1       3.546  -0.440   0.180  0.00  0.00    +0.012 C 
BRANCH  16  17
ATOM     17  C   UNL     1       4.180   0.704  -0.611  0.00  0.00    +0.109 C 
BRANCH  17  19
ATOM     18  O   UNL     1       5.852   0.870   1.151  0.00  0.00    -0.250 OA
ATOM     19  C   UNL     1       5.395   1.269   0.089  0.00  0.00    +0.314 C 
BRANCH  19  20
ATOM     20  O   UNL     1       5.937   2.299  -0.613  0.00  0.00    -0.480 OA
ATOM     21  H   UNL     1       5.551   2.569  -1.423  0.00  0.00    +0.295 HD
ENDBRANCH  19  20
ENDBRANCH  17  19
ENDBRANCH  16  17
ENDBRANCH  15  16
ENDBRANCH  14  15
ENDBRANCH  13  14
ENDBRANCH   3  13
TORSDOF 8
