REMARK  Name = 3256857
REMARK  9 active torsions:
REMARK  status: ('A' for Active; 'I' for Inactive)
REMARK    1  A    between atoms: C_1  and  C_18
REMARK    2  A    between atoms: C_6  and  N_8
REMARK    3  A    between atoms: C_9  and  C_11
REMARK    4  A    between atoms: C_11  and  C_12
REMARK    5  A    between atoms: C_12  and  C_13
REMARK    6  A    between atoms: C_13  and  C_15
REMARK    7  A    between atoms: C_15  and  O_16
REMARK    8  A    between atoms: C_18  and  C_19
REMARK    9  A    between atoms: C_19  and  N_21
REMARK                            x       y       z     vdW  Elec       q    Type
REMARK                         _______ _______ _______ _____ _____    ______ ____
ROOT
ATOM      1  C   UNL     1       1.626  -0.523  -0.523  0.00  0.00    -0.024 C 
ATOM      2  C   UNL     1       1.159  -1.717   0.026  0.00  0.00    -0.003 C 
ATOM      3  C   UNL     1       0.731   0.501  -0.831  0.00  0.00    -0.003 C 
ATOM      4  C   UNL     1      -0.205  -1.887   0.268  0.00  0.00    +0.014 C 
ATOM      5  C   UNL     1      -0.632   0.331  -0.590  0.00  0.00    +0.014 C 
ATOM      6  C   UNL     1      -1.100  -0.862  -0.041  0.00  0.00    +0.050 C 
ENDROOT
BRANCH   6   8
ATOM      7  O   UNL     1      -3.407   1.002  -0.513  0.00  0.00    -0.275 OA
ATOM      8  N   UNL     1      -2.464  -1.032   0.201  0.00  0.00    -0.284 N 
ATOM      9  C   UNL     1      -3.508  -0.125  -0.040  0.00  0.00    +0.226 C 
ATOM     10  H   UNL     1      -2.727  -1.898   0.590  0.00  0.00    +0.155 HD
BRANCH   9  11
ATOM     11  C   UNL     1      -4.852  -0.712   0.370  0.00  0.00    +0.086 C 
BRANCH  11  12
ATOM     12  C   UNL     1      -6.013   0.250   0.121  0.00  0.00    +0.021 C 
BRANCH  12  13
ATOM     13  C   UNL     1      -7.367  -0.362   0.464  0.00  0.00    +0.110 C 
BRANCH  13  15
ATOM     14  O   UNL     1      -8.351   1.696  -0.326  0.00  0.00    -0.250 OA
ATOM     15  C   UNL     1      -8.503   0.579   0.151  0.00  0.00    +0.314 C 
BRANCH  15  16
ATOM     16  O   UNL     1      -9.716   0.069   0.478  0.00  0.00    -0.480 OA
ATOM     17  H   UNL     1      -9.780  -0.792   0.841  0.00  0.00    +0.295 HD
ENDBRANCH  15  16
ENDBRANCH  13  15
ENDBRANCH  12  13
ENDBRANCH  11  12
ENDBRANCH   9  11
ENDBRANCH   6   8
BRANCH   1  18
ATOM     18  C   UNL     1       3.101  -0.341  -0.784  0.00  0.00    +0.009 C 
BRANCH  18  19
ATOM     19  C   UNL     1       3.846   0.261   0.399  0.00  0.00    -0.023 C 
BRANCH  19  21
ATOM     20  O   UNL     1       5.341   1.395  -0.981  0.00  0.00    -0.290 OA
ATOM     21  N   UNL     1       5.292   0.513   0.069  0.00  0.00    +0.430 N 
ATOM     22  C   UNL     1       5.955  -0.795  -0.311  0.00  0.00    -0.028 C 
ATOM     23  C   UNL     1       5.988   1.101   1.281  0.00  0.00    -0.028 C 
ATOM     24  C   UNL     1       7.448  -0.628  -0.569  0.00  0.00    -0.017 C 
ATOM     25  C   UNL     1       7.480   1.297   1.047  0.00  0.00    -0.017 C 
ATOM     26  C   UNL     1       8.151  -0.009   0.634  0.00  0.00    -0.004 C 
ENDBRANCH  19  21
ENDBRANCH  18  19
ENDBRANCH   1  18
TORSDOF 9
