REMARK  Name = 6540299
REMARK  6 active torsions:
REMARK  status: ('A' for Active; 'I' for Inactive)
REMARK    1  A    between atoms: N_2  and  C_29
REMARK    2  A    between atoms: N_4  and  C_21
REMARK    3  A    between atoms: N_6  and  C_15
REMARK    4  A    between atoms: C_26  and  O_27
REMARK    5  A    between atoms: C_29  and  C_31
REMARK    6  A    between atoms: C_31  and  O_34
REMARK                            x       y       z     vdW  Elec       q    Type
REMARK                         _______ _______ _______ _____ _____    ______ ____
ROOT
ATOM      1  O   UNL     1      -3.111  -1.358  -0.765  0.00  0.00    -0.251 OA
ATOM      2  N   UNL     1       3.376   1.175   0.210  0.00  0.00    -0.267 N 
ATOM      3  N   UNL     1       1.266   0.204  -0.118  0.00  0.00    -0.322 NA
ATOM      4  N   UNL     1      -0.874  -0.736  -0.475  0.00  0.00    -0.196 N 
ATOM      5  N   UNL     1       1.820   2.327  -1.115  0.00  0.00    -0.170 NA
ATOM      6  N   UNL     1      -2.659   0.801  -0.017  0.00  0.00    -0.267 N 
ATOM      7  C   UNL     1       2.119   1.237  -0.357  0.00  0.00    +0.146 C 
ATOM      8  C   UNL     1       0.046   0.297  -0.687  0.00  0.00    +0.208 C 
ATOM      9  C   UNL     1      -0.355   1.360  -1.471  0.00  0.00    +0.071 C 
ATOM     10  C   UNL     1       0.583   2.355  -1.653  0.00  0.00    +0.116 C 
ATOM     11  C   UNL     1      -2.302  -0.478  -0.461  0.00  0.00    +0.317 C 
ATOM     12  H   UNL     1       3.601   0.391   0.762  0.00  0.00    +0.159 HD
ATOM     13  H   UNL     1      -1.916   1.394   0.239  0.00  0.00    +0.156 HD
ENDROOT
BRANCH   6  15
ATOM     14 CL   UNL     1      -3.045   2.877   2.172  0.00  0.00    -0.081 Cl
ATOM     15  C   UNL     1      -3.961   1.344   0.106  0.00  0.00    +0.062 C 
ATOM     16  C   UNL     1      -4.244   2.297   1.071  0.00  0.00    +0.071 C 
ATOM     17  C   UNL     1      -4.939   0.890  -0.766  0.00  0.00    +0.016 C 
ATOM     18  C   UNL     1      -5.538   2.811   1.167  0.00  0.00    +0.013 C 
ATOM     19  C   UNL     1      -6.232   1.403  -0.670  0.00  0.00    +0.001 C 
ATOM     20  C   UNL     1      -6.532   2.363   0.297  0.00  0.00    +0.001 C 
ENDBRANCH   6  15
BRANCH   4  21
ATOM     21  C   UNL     1      -0.388  -2.098  -0.264  0.00  0.00    +0.062 C 
ATOM     22  C   UNL     1       0.784  -2.450  -0.864  0.00  0.00    +0.018 C 
ATOM     23  C   UNL     1      -1.140  -2.923   0.519  0.00  0.00    +0.018 C 
ATOM     24  C   UNL     1       1.248  -3.750  -0.662  0.00  0.00    +0.038 C 
ATOM     25  C   UNL     1      -0.675  -4.223   0.721  0.00  0.00    +0.038 C 
ATOM     26  C   UNL     1       0.518  -4.636   0.130  0.00  0.00    +0.139 C 
BRANCH  26  27
ATOM     27  O   UNL     1       0.972  -5.904   0.328  0.00  0.00    -0.471 OA
ATOM     28  C   UNL     1       0.177  -6.758   1.149  0.00  0.00    +0.252 C 
ENDBRANCH  26  27
ENDBRANCH   4  21
BRANCH   2  29
ATOM     29  C   UNL     1       4.384   2.206   0.036  0.00  0.00    +0.104 C 
ATOM     30  C   UNL     1       4.000   3.382   0.936  0.00  0.00    +0.024 C 
BRANCH  29  31
ATOM     31  C   UNL     1       5.801   1.635   0.312  0.00  0.00    +0.105 C 
ATOM     32  C   UNL     1       6.133   0.459  -0.618  0.00  0.00    +0.031 C 
ATOM     33  C   UNL     1       6.878   2.714   0.144  0.00  0.00    +0.031 C 
BRANCH  31  34
ATOM     34  O   UNL     1       5.892   1.176   1.663  0.00  0.00    -0.385 OA
ATOM     35  H   UNL     1       5.225   0.488   1.816  0.00  0.00    +0.210 HD
ENDBRANCH  31  34
ENDBRANCH  29  31
ENDBRANCH   2  29
TORSDOF 6
