REMARK  Name = 11582002
REMARK  12 active torsions:
REMARK  status: ('A' for Active; 'I' for Inactive)
REMARK    1  A    between atoms: N_2  and  C_7
REMARK    2  A    between atoms: N_2  and  O_20
REMARK    3  A    between atoms: C_3  and  O_16
REMARK    4  A    between atoms: C_4  and  O_18
REMARK    5  A    between atoms: C_5  and  N_9
REMARK    6  A    between atoms: C_6  and  C_31
REMARK    7  A    between atoms: C_10  and  C_12
REMARK    8  A    between atoms: C_12  and  C_13
REMARK    9  A    between atoms: C_13  and  C_14
REMARK   10  A    between atoms: O_20  and  C_23
REMARK   11  A    between atoms: N_22  and  C_25
REMARK   12  A    between atoms: C_31  and  O_32
REMARK                            x       y       z     vdW  Elec       q    Type
REMARK                         _______ _______ _______ _____ _____    ______ ____
ROOT
ATOM      1  O   UNL     1      -0.386  -1.753   0.517  0.00  0.00    -0.333 OA
ATOM      2  C   UNL     1      -2.751  -1.949  -1.168  0.00  0.00    +0.161 C 
ATOM      3  C   UNL     1      -2.104  -3.144  -0.465  0.00  0.00    +0.169 C 
ATOM      4  C   UNL     1      -1.988  -0.637  -0.974  0.00  0.00    +0.149 C 
ATOM      5  C   UNL     1      -1.438  -2.691   0.830  0.00  0.00    +0.175 C 
ATOM      6  C   UNL     1      -0.606  -0.798  -0.405  0.00  0.00    +0.251 C 
ENDROOT
BRANCH   4   8
ATOM      7  O   UNL     1      -3.941   1.394  -1.605  0.00  0.00    -0.275 OA
ATOM      8  N   UNL     1      -2.657   0.243  -0.047  0.00  0.00    -0.300 N 
ATOM      9  C   UNL     1      -3.586   1.194  -0.446  0.00  0.00    +0.223 C 
ATOM     10  H   UNL     1      -2.445   0.166   0.911  0.00  0.00    +0.150 HD
BRANCH   9  11
ATOM     11  C   UNL     1      -4.130   1.976   0.737  0.00  0.00    +0.085 C 
BRANCH  11  12
ATOM     12  C   UNL     1      -5.155   3.028   0.320  0.00  0.00    +0.010 C 
BRANCH  12  13
ATOM     13  C   UNL     1      -5.714   3.772   1.532  0.00  0.00    +0.001 C 
ATOM     14  C   UNL     1      -6.763   4.794   1.123  0.00  0.00    +0.000 C 
ENDBRANCH  12  13
ENDBRANCH  11  12
ENDBRANCH   9  11
ENDBRANCH   4   8
BRANCH   2  15
ATOM     15  O   UNL     1      -2.819  -2.257  -2.564  0.00  0.00    -0.380 OA
ATOM     16  H   UNL     1      -3.302  -3.088  -2.689  0.00  0.00    +0.211 HD
ENDBRANCH   2  15
BRANCH   3  17
ATOM     17  O   UNL     1      -3.118  -4.112  -0.215  0.00  0.00    -0.379 OA
ATOM     18  H   UNL     1      -3.523  -4.381  -1.055  0.00  0.00    +0.211 HD
ENDBRANCH   3  17
BRANCH   6  19
ATOM     19  N   UNL     1       0.362  -0.019  -0.759  0.00  0.00    +0.008 NA
BRANCH  19  20
ATOM     20  O   UNL     1       1.516  -0.410  -0.069  0.00  0.00    -0.330 OA
BRANCH  20  23
ATOM     21  O   UNL     1       2.449   1.329  -1.240  0.00  0.00    -0.224 OA
ATOM     22  N   UNL     1       3.687   0.017   0.250  0.00  0.00    -0.249 N 
ATOM     23  C   UNL     1       2.553   0.410  -0.435  0.00  0.00    +0.425 C 
ATOM     24  H   UNL     1       3.578  -0.748   0.860  0.00  0.00    +0.158 HD
BRANCH  22  25
ATOM     25  C   UNL     1       4.983   0.577   0.185  0.00  0.00    +0.053 C 
ATOM     26  C   UNL     1       6.014   0.042   0.958  0.00  0.00    +0.015 C 
ATOM     27  C   UNL     1       5.232   1.664  -0.653  0.00  0.00    +0.015 C 
ATOM     28  C   UNL     1       7.293   0.595   0.893  0.00  0.00    +0.001 C 
ATOM     29  C   UNL     1       6.511   2.217  -0.718  0.00  0.00    +0.001 C 
ATOM     30  C   UNL     1       7.541   1.682   0.055  0.00  0.00    +0.000 C 
ENDBRANCH  22  25
ENDBRANCH  20  23
ENDBRANCH  19  20
ENDBRANCH   6  19
BRANCH   5  31
ATOM     31  C   UNL     1      -0.791  -3.841   1.595  0.00  0.00    +0.169 C 
BRANCH  31  32
ATOM     32  O   UNL     1      -0.194  -3.323   2.770  0.00  0.00    -0.379 OA
ATOM     33  H   UNL     1       0.222  -4.045   3.267  0.00  0.00    +0.211 HD
ENDBRANCH  31  32
ENDBRANCH   5  31
TORSDOF 12
