REMARK  Name = 11779629
REMARK  9 active torsions:
REMARK  status: ('A' for Active; 'I' for Inactive)
REMARK    1  A    between atoms: N_1  and  C_4
REMARK    2  A    between atoms: N_1  and  C_17
REMARK    3  A    between atoms: C_4  and  C_6
REMARK    4  A    between atoms: C_6  and  C_7
REMARK    5  A    between atoms: C_6  and  O_15
REMARK    6  A    between atoms: C_12  and  O_13
REMARK    7  A    between atoms: C_17  and  C_19
REMARK    8  A    between atoms: C_19  and  O_20
REMARK    9  A    between atoms: O_20  and  C_21
REMARK                            x       y       z     vdW  Elec       q    Type
REMARK                         _______ _______ _______ _____ _____    ______ ____
ROOT
ATOM      1  N   UNL     1      -0.449  -0.856  -0.298  0.00  0.00    +0.391 N 
ATOM      2  H   UNL     1      -0.866   0.028  -0.004  0.00  0.00    -0.084 HD
ATOM      3  H   UNL     1      -0.202  -0.816  -1.287  0.00  0.00    -0.084 HD
ENDROOT
BRANCH   1   4
ATOM      4  C   UNL     1      -1.420  -1.939  -0.095  0.00  0.00    -0.030 C 
ATOM      5  C   UNL     1      -0.773  -3.245  -0.558  0.00  0.00    -0.021 C 
BRANCH   4   6
ATOM      6  C   UNL     1      -2.723  -1.618  -0.860  0.00  0.00    +0.113 C 
BRANCH   6   7
ATOM      7  C   UNL     1      -3.361  -0.306  -0.454  0.00  0.00    +0.002 C 
ATOM      8  C   UNL     1      -3.600   0.656  -1.420  0.00  0.00    +0.001 C 
ATOM      9  C   UNL     1      -3.690  -0.098   0.874  0.00  0.00    +0.001 C 
ATOM     10  C   UNL     1      -4.188   1.864  -1.046  0.00  0.00    +0.036 C 
ATOM     11  C   UNL     1      -4.278   1.110   1.248  0.00  0.00    +0.036 C 
ATOM     12  C   UNL     1      -4.527   2.091   0.288  0.00  0.00    +0.134 C 
BRANCH  12  13
ATOM     13  O   UNL     1      -5.099   3.271   0.653  0.00  0.00    -0.506 OA
ATOM     14  H   UNL     1      -5.266   3.930   0.008  0.00  0.00    +0.292 HD
ENDBRANCH  12  13
ENDBRANCH   6   7
BRANCH   6  15
ATOM     15  O   UNL     1      -3.694  -2.640  -0.618  0.00  0.00    -0.382 OA
ATOM     16  H   UNL     1      -3.324  -3.502  -0.866  0.00  0.00    +0.211 HD
ENDBRANCH   6  15
ENDBRANCH   4   6
ENDBRANCH   1   4
BRANCH   1  17
ATOM     17  C   UNL     1       0.755  -1.098   0.477  0.00  0.00    -0.017 C 
ATOM     18  C   UNL     1       0.415  -1.169   1.966  0.00  0.00    -0.020 C 
BRANCH  17  19
ATOM     19  C   UNL     1       1.776   0.001   0.179  0.00  0.00    +0.184 C 
BRANCH  19  20
ATOM     20  O   UNL     1       2.976  -0.252   0.900  0.00  0.00    -0.478 OA
BRANCH  20  21
ATOM     21  C   UNL     1       4.137   0.224   0.351  0.00  0.00    +0.138 C 
ATOM     22  C   UNL     1       4.109   1.373  -0.430  0.00  0.00    +0.037 C 
ATOM     23  C   UNL     1       5.332  -0.449   0.579  0.00  0.00    +0.037 C 
ATOM     24  C   UNL     1       5.292   1.857  -0.991  0.00  0.00    +0.003 C 
ATOM     25  C   UNL     1       6.515   0.034   0.019  0.00  0.00    +0.003 C 
ATOM     26  C   UNL     1       6.495   1.187  -0.765  0.00  0.00    +0.000 C 
ENDBRANCH  20  21
ENDBRANCH  19  20
ENDBRANCH  17  19
ENDBRANCH   1  17
TORSDOF 9
