REMARK  Name = 54689025
REMARK  9 active torsions:
REMARK  status: ('A' for Active; 'I' for Inactive)
REMARK    1  A    between atoms: C_1  and  C_21
REMARK    2  A    between atoms: C_4  and  N_8
REMARK    3  A    between atoms: C_9  and  C_11
REMARK    4  A    between atoms: C_11  and  N_13
REMARK    5  A    between atoms: C_14  and  O_16
REMARK    6  A    between atoms: O_16  and  C_17
REMARK    7  A    between atoms: C_21  and  C_24
REMARK    8  A    between atoms: C_21  and  C_35
REMARK    9  A    between atoms: C_25  and  O_33
REMARK                            x       y       z     vdW  Elec       q    Type
REMARK                         _______ _______ _______ _____ _____    ______ ____
ROOT
ATOM      1  C   UNL     1      -2.656  -1.986  -0.086  0.00  0.00    -0.017 C 
ATOM      2  C   UNL     1      -1.264  -2.058  -0.044  0.00  0.00    +0.011 C 
ATOM      3  C   UNL     1      -3.424  -2.891   0.647  0.00  0.00    -0.004 C 
ATOM      4  C   UNL     1      -0.639  -3.034   0.732  0.00  0.00    +0.050 C 
ATOM      5  C   UNL     1      -2.799  -3.868   1.422  0.00  0.00    +0.001 C 
ATOM      6  C   UNL     1      -1.407  -3.939   1.465  0.00  0.00    +0.015 C 
ENDROOT
BRANCH   4   8
ATOM      7  O   UNL     1       1.441  -1.352  -0.636  0.00  0.00    -0.273 OA
ATOM      8  N   UNL     1       0.754  -3.107   0.774  0.00  0.00    -0.283 N 
ATOM      9  C   UNL     1       1.687  -2.293   0.112  0.00  0.00    +0.246 C 
ATOM     10  H   UNL     1       1.130  -3.819   1.341  0.00  0.00    +0.155 HD
BRANCH   9  11
ATOM     11  C   UNL     1       3.107  -2.719   0.438  0.00  0.00    +0.179 C 
BRANCH  11  13
ATOM     12  O   UNL     1       4.306  -0.235   1.350  0.00  0.00    -0.226 OA
ATOM     13  N   UNL     1       4.049  -1.891  -0.257  0.00  0.00    -0.262 N 
ATOM     14  C   UNL     1       4.574  -0.715   0.253  0.00  0.00    +0.402 C 
ATOM     15  H   UNL     1       4.341  -2.176  -1.153  0.00  0.00    +0.153 HD
BRANCH  14  16
ATOM     16  O   UNL     1       5.441  -0.160  -0.646  0.00  0.00    -0.442 OA
BRANCH  16  17
ATOM     17  C   UNL     1       6.058   1.067  -0.241  0.00  0.00    +0.138 C 
ATOM     18  C   UNL     1       4.964   2.107  -0.004  0.00  0.00    +0.044 C 
ATOM     19  C   UNL     1       6.985   1.510  -1.372  0.00  0.00    +0.044 C 
ATOM     20  C   UNL     1       6.854   0.812   1.038  0.00  0.00    +0.044 C 
ENDBRANCH  16  17
ENDBRANCH  14  16
ENDBRANCH  11  13
ENDBRANCH   9  11
ENDBRANCH   4   8
BRANCH   1  21
ATOM     21  C   UNL     1      -3.336  -0.923  -0.930  0.00  0.00    +0.054 C 
BRANCH  21  24
ATOM     22  O   UNL     1      -3.704   2.224   1.142  0.00  0.00    -0.421 OA
ATOM     23  O   UNL     1      -4.873   0.275   1.046  0.00  0.00    -0.245 OA
ATOM     24  C   UNL     1      -3.009   0.456  -0.424  0.00  0.00    +0.091 A 
ATOM     25  C   UNL     1      -1.988   1.225  -0.848  0.00  0.00    +0.139 A 
ATOM     26  C   UNL     1      -3.937   0.953   0.633  0.00  0.00    +0.345 A 
ATOM     27  C   UNL     1      -1.770   2.561  -0.290  0.00  0.00    +0.068 A 
ATOM     28  C   UNL     1      -2.639   3.023   0.693  0.00  0.00    +0.152 A 
ATOM     29  C   UNL     1      -0.728   3.408  -0.693  0.00  0.00    +0.006 C 
ATOM     30  C   UNL     1      -2.502   4.284   1.276  0.00  0.00    +0.038 C 
ATOM     31  C   UNL     1      -0.576   4.675  -0.118  0.00  0.00    +0.000 C 
ATOM     32  C   UNL     1      -1.463   5.112   0.864  0.00  0.00    +0.003 C 
BRANCH  25  33
ATOM     33  O   UNL     1      -1.075   0.852  -1.812  0.00  0.00    -0.506 OA
ATOM     34  H   UNL     1      -1.142   0.012  -2.221  0.00  0.00    +0.292 HD
ENDBRANCH  25  33
ENDBRANCH  21  24
BRANCH  21  35
ATOM     35  C   UNL     1      -3.007  -1.022  -2.434  0.00  0.00    +0.009 C 
ATOM     36  C   UNL     1      -3.428  -2.353  -3.048  0.00  0.00    +0.001 C 
ENDBRANCH  21  35
ENDBRANCH   1  21
TORSDOF 9
