REMARK  Name = 11840989
REMARK  5 active torsions:
REMARK  status: ('A' for Active; 'I' for Inactive)
REMARK    1  A    between atoms: N_1  and  C_6
REMARK    2  A    between atoms: N_1  and  N_11
REMARK    3  A    between atoms: N_4  and  C_7
REMARK    4  A    between atoms: N_5  and  C_8
REMARK    5  A    between atoms: N_11  and  C_14
REMARK                            x       y       z     vdW  Elec       q    Type
REMARK                         _______ _______ _______ _____ _____    ______ ____
ROOT
ATOM      1  N   UNL     1      -0.815   0.606  -0.001  0.00  0.00    -0.120 NA
ENDROOT
BRANCH   1   4
ATOM      2  N   UNL     1      -4.375   0.202   0.000  0.00  0.00    -0.133 NA
ATOM      3  N   UNL     1      -3.995  -1.025   0.000  0.00  0.00    -0.133 NA
ATOM      4  C   UNL     1      -2.054   0.250   0.000  0.00  0.00    +0.207 C 
ATOM      5  C   UNL     1      -3.279   1.048   0.000  0.00  0.00    +0.168 C 
ATOM      6  C   UNL     1      -2.614  -1.100   0.000  0.00  0.00    +0.168 C 
BRANCH   5   7
ATOM      7  N   UNL     1      -3.337   2.331  -0.001  0.00  0.00    -0.249 NA
ATOM      8  H   UNL     1      -4.211   2.784  -0.001  0.00  0.00    +0.171 HD
ENDBRANCH   5   7
BRANCH   6   9
ATOM      9  N   UNL     1      -1.924  -2.184   0.002  0.00  0.00    -0.249 NA
ATOM     10  H   UNL     1      -2.380  -3.057   0.002  0.00  0.00    +0.171 HD
ENDBRANCH   6   9
ENDBRANCH   1   4
BRANCH   1  11
ATOM     11  N   UNL     1       0.035  -0.436   0.000  0.00  0.00    -0.261 N 
ATOM     12  H   UNL     1      -0.320  -1.355   0.001  0.00  0.00    +0.168 HD
BRANCH  11  14
ATOM     13  F   UNL     1       5.511   0.396   0.000  0.00  0.00    -0.204 F 
ATOM     14  C   UNL     1       1.429  -0.224   0.000  0.00  0.00    +0.060 C 
ATOM     15  C   UNL     1       2.300  -1.313  -0.002  0.00  0.00    +0.018 C 
ATOM     16  C   UNL     1       1.937   1.075   0.002  0.00  0.00    +0.018 C 
ATOM     17  C   UNL     1       3.679  -1.104  -0.002  0.00  0.00    +0.031 C 
ATOM     18  C   UNL     1       3.316   1.285   0.002  0.00  0.00    +0.031 C 
ATOM     19  C   UNL     1       4.187   0.195   0.000  0.00  0.00    +0.140 C 
ENDBRANCH  11  14
ENDBRANCH   1  11
TORSDOF 5
