REMARK  Name = 44574544
REMARK  2 active torsions:
REMARK  status: ('A' for Active; 'I' for Inactive)
REMARK    1  A    between atoms: C_10  and  C_25
REMARK    2  A    between atoms: C_17  and  O_31
REMARK                            x       y       z     vdW  Elec       q    Type
REMARK                         _______ _______ _______ _____ _____    ______ ____
ROOT
ATOM      1  O   UNL     1      -1.953   2.760   1.001  0.00  0.00    -0.292 OA
ATOM      2  O   UNL     1      -0.504   0.068   3.537  0.00  0.00    -0.275 OA
ATOM      3  N   UNL     1       0.208  -0.634   1.430  0.00  0.00    -0.251 N 
ATOM      4  N   UNL     1      -0.936  -1.404  -1.196  0.00  0.00    -0.313 N 
ATOM      5  C   UNL     1      -4.155   0.486  -0.789  0.00  0.00    +0.013 C 
ATOM      6  C   UNL     1      -3.055  -0.298  -1.522  0.00  0.00    +0.041 C 
ATOM      7  C   UNL     1      -3.610   1.873  -0.447  0.00  0.00    +0.069 C 
ATOM      8  C   UNL     1      -1.712  -0.327  -0.808  0.00  0.00    +0.026 C 
ATOM      9  C   UNL     1      -1.356   0.653   0.052  0.00  0.00    +0.044 C 
ATOM     10  C   UNL     1      -0.044   0.691   0.810  0.00  0.00    +0.129 C 
ATOM     11  C   UNL     1      -2.285   1.819   0.278  0.00  0.00    +0.172 C 
ATOM     12  C   UNL     1      -5.376   0.634  -1.716  0.00  0.00    +0.001 C 
ATOM     13  C   UNL     1      -4.609  -0.254   0.486  0.00  0.00    +0.001 C 
ATOM     14  C   UNL     1       0.784  -1.640   0.598  0.00  0.00    +0.071 C 
ATOM     15  C   UNL     1       0.241  -1.957  -0.659  0.00  0.00    +0.096 C 
ATOM     16  C   UNL     1      -0.062  -0.817   2.797  0.00  0.00    +0.230 C 
ATOM     17  C   UNL     1       0.904  -2.928  -1.441  0.00  0.00    +0.148 C 
ATOM     18  C   UNL     1       1.955  -2.289   1.036  0.00  0.00    +0.016 C 
ATOM     19  C   UNL     1       2.061  -3.567  -0.995  0.00  0.00    +0.038 C 
ATOM     20  C   UNL     1       2.587  -3.247   0.247  0.00  0.00    +0.004 C 
ATOM     21  C   UNL     1       0.147  -2.200   3.375  0.00  0.00    +0.095 C 
ATOM     22  H   UNL     1      -1.269  -1.869  -1.997  0.00  0.00    +0.152 HD
ENDROOT
BRANCH  10  25
ATOM     23 CL   UNL     1       2.119   2.155   2.479  0.00  0.00    -0.082 Cl
ATOM     24 CL   UNL     1       4.693   2.947  -2.180  0.00  0.00    -0.082 Cl
ATOM     25  C   UNL     1       1.167   1.274   0.082  0.00  0.00    +0.011 C 
ATOM     26  C   UNL     1       2.180   1.945   0.767  0.00  0.00    +0.056 C 
ATOM     27  C   UNL     1       1.245   1.120  -1.302  0.00  0.00    -0.001 C 
ATOM     28  C   UNL     1       3.271   2.463   0.068  0.00  0.00    +0.023 C 
ATOM     29  C   UNL     1       2.335   1.637  -2.002  0.00  0.00    +0.011 C 
ATOM     30  C   UNL     1       3.348   2.309  -1.317  0.00  0.00    +0.058 C 
ENDBRANCH  10  25
BRANCH  17  31
ATOM     31  O   UNL     1       0.414  -3.274  -2.671  0.00  0.00    -0.504 OA
ATOM     32  H   UNL     1      -0.361  -2.862  -2.998  0.00  0.00    +0.292 HD
ENDBRANCH  17  31
TORSDOF 2
