REMARK  Name = 107970
REMARK  15 active torsions:
REMARK  status: ('A' for Active; 'I' for Inactive)
REMARK    1  A    between atoms: C_1  and  C_7
REMARK    2  A    between atoms: C_2  and  C_20
REMARK    3  A    between atoms: C_7  and  C_8
REMARK    4  A    between atoms: C_8  and  C_9
REMARK    5  A    between atoms: C_9  and  N_10
REMARK    6  A    between atoms: C_9  and  C_14
REMARK    7  A    between atoms: C_9  and  C_17
REMARK    8  A    between atoms: C_14  and  O_15
REMARK    9  A    between atoms: C_17  and  O_18
REMARK   10  A    between atoms: C_20  and  C_21
REMARK   11  A    between atoms: C_21  and  C_22
REMARK   12  A    between atoms: C_22  and  C_23
REMARK   13  A    between atoms: C_23  and  C_24
REMARK   14  A    between atoms: C_24  and  C_25
REMARK   15  A    between atoms: C_25  and  C_26
REMARK                            x       y       z     vdW  Elec       q    Type
REMARK                         _______ _______ _______ _____ _____    ______ ____
ROOT
ATOM      1  C   UNL     1      -2.221   1.244  -0.126  0.00  0.00    -0.022 C 
ATOM      2  C   UNL     1       0.507   1.736  -0.152  0.00  0.00    -0.022 C 
ATOM      3  C   UNL     1      -1.536   1.315  -1.340  0.00  0.00    -0.005 C 
ATOM      4  C   UNL     1      -1.534   1.421   1.074  0.00  0.00    -0.005 C 
ATOM      5  C   UNL     1      -0.164   1.562  -1.352  0.00  0.00    -0.005 C 
ATOM      6  C   UNL     1      -0.161   1.669   1.061  0.00  0.00    -0.005 C 
ENDROOT
BRANCH   1   7
ATOM      7  C   UNL     1      -3.689   0.979  -0.112  0.00  0.00    +0.024 C 
BRANCH   7   8
ATOM      8  C   UNL     1      -4.004  -0.530  -0.045  0.00  0.00    -0.011 C 
BRANCH   8   9
ATOM      9  C   UNL     1      -5.510  -0.908  -0.101  0.00  0.00    +0.006 C 
BRANCH   9  10
ATOM     10  N   UNL     1      -6.091  -0.399  -1.353  0.00  0.00    +0.386 N 
ATOM     11  H   UNL     1      -5.580  -0.786  -2.147  0.00  0.00    -0.089 HD
ATOM     12  H   UNL     1      -6.025   0.618  -1.369  0.00  0.00    -0.089 HD
ATOM     13  H   UNL     1      -7.071  -0.678  -1.410  0.00  0.00    -0.089 HD
ENDBRANCH   9  10
BRANCH   9  14
ATOM     14  C   UNL     1      -5.662  -2.449  -0.064  0.00  0.00    +0.120 C 
BRANCH  14  15
ATOM     15  O   UNL     1      -4.995  -3.082  -1.149  0.00  0.00    -0.384 OA
ATOM     16  H   UNL     1      -5.116  -4.043  -1.086  0.00  0.00    +0.210 HD
ENDBRANCH  14  15
ENDBRANCH   9  14
BRANCH   9  17
ATOM     17  C   UNL     1      -6.318  -0.294   1.060  0.00  0.00    +0.120 C 
BRANCH  17  18
ATOM     18  O   UNL     1      -5.822  -0.751   2.313  0.00  0.00    -0.384 OA
ATOM     19  H   UNL     1      -6.342  -0.354   3.030  0.00  0.00    +0.210 HD
ENDBRANCH  17  18
ENDBRANCH   9  17
ENDBRANCH   8   9
ENDBRANCH   7   8
ENDBRANCH   1   7
BRANCH   2  20
ATOM     20  C   UNL     1       1.991   2.005  -0.166  0.00  0.00    +0.026 C 
BRANCH  20  21
ATOM     21  C   UNL     1       2.799   0.706  -0.109  0.00  0.00    +0.005 C 
BRANCH  21  22
ATOM     22  C   UNL     1       4.311   0.932  -0.029  0.00  0.00    +0.000 C 
BRANCH  22  23
ATOM     23  C   UNL     1       5.170  -0.331   0.087  0.00  0.00    +0.000 C 
BRANCH  23  24
ATOM     24  C   UNL     1       6.674  -0.049   0.077  0.00  0.00    +0.000 C 
BRANCH  24  25
ATOM     25  C   UNL     1       7.481  -1.349   0.105  0.00  0.00    +0.000 C 
BRANCH  25  26
ATOM     26  C   UNL     1       8.984  -1.070   0.128  0.00  0.00    +0.000 C 
ATOM     27  C   UNL     1       9.789  -2.358   0.190  0.00  0.00    +0.000 C 
ENDBRANCH  25  26
ENDBRANCH  24  25
ENDBRANCH  23  24
ENDBRANCH  22  23
ENDBRANCH  21  22
ENDBRANCH  20  21
ENDBRANCH   2  20
TORSDOF 15
