REMARK  Name = 11840968
REMARK  2 active torsions:
REMARK  status: ('A' for Active; 'I' for Inactive)
REMARK    1  A    between atoms: C_4  and  C_19
REMARK    2  A    between atoms: C_6  and  C_13
REMARK                            x       y       z     vdW  Elec       q    Type
REMARK                         _______ _______ _______ _____ _____    ______ ____
ROOT
ATOM      1  O   UNL     1       2.964   1.666   1.560  0.00  0.00    -0.252 OA
ATOM      2  N   UNL     1       1.095   0.937   0.443  0.00  0.00    -0.254 N 
ATOM      3  N   UNL     1       2.040   3.104   0.023  0.00  0.00    -0.261 N 
ATOM      4  C   UNL     1       1.239  -0.444   0.926  0.00  0.00    +0.122 C 
ATOM      5  C   UNL     1      -0.279   1.199  -0.004  0.00  0.00    +0.122 C 
ATOM      6  C   UNL     1      -1.018  -0.054   0.367  0.00  0.00    -0.002 C 
ATOM      7  C   UNL     1      -0.166  -0.962   0.869  0.00  0.00    -0.005 C 
ATOM      8  C   UNL     1       2.086   1.887   0.714  0.00  0.00    +0.308 C 
ATOM      9  C   UNL     1       1.530   3.276  -1.332  0.00  0.00    +0.117 C 
ATOM     10  C   UNL     1       2.727   4.261   0.583  0.00  0.00    +0.117 C 
ENDROOT
BRANCH   6  13
ATOM     11  F   UNL     1      -2.636  -1.703   2.006  0.00  0.00    -0.204 F 
ATOM     12  F   UNL     1      -5.093   1.006  -2.062  0.00  0.00    -0.204 F 
ATOM     13  C   UNL     1      -2.471  -0.205   0.166  0.00  0.00    +0.027 C 
ATOM     14  C   UNL     1      -3.228  -1.034   1.005  0.00  0.00    +0.140 C 
ATOM     15  C   UNL     1      -3.114   0.483  -0.872  0.00  0.00    +0.032 C 
ATOM     16  C   UNL     1      -4.488   0.344  -1.067  0.00  0.00    +0.140 C 
ATOM     17  C   UNL     1      -4.602  -1.172   0.810  0.00  0.00    +0.032 C 
ATOM     18  C   UNL     1      -5.232  -0.483  -0.226  0.00  0.00    +0.032 C 
ENDBRANCH   6  13
BRANCH   4  19
ATOM     19  C   UNL     1       2.212  -1.263   0.105  0.00  0.00    -0.000 C 
ATOM     20  C   UNL     1       2.879  -2.341   0.686  0.00  0.00    -0.002 C 
ATOM     21  C   UNL     1       2.440  -0.940  -1.232  0.00  0.00    -0.002 C 
ATOM     22  C   UNL     1       3.775  -3.096  -0.071  0.00  0.00    -0.000 C 
ATOM     23  C   UNL     1       3.337  -1.694  -1.989  0.00  0.00    -0.000 C 
ATOM     24  C   UNL     1       4.004  -2.773  -1.408  0.00  0.00    -0.000 C 
ENDBRANCH   4  19
TORSDOF 2
