REMARK  Name = 11675645
REMARK  3 active torsions:
REMARK  status: ('A' for Active; 'I' for Inactive)
REMARK    1  A    between atoms: N_2  and  C_19
REMARK    2  A    between atoms: C_4  and  C_26
REMARK    3  A    between atoms: C_7  and  C_12
REMARK                            x       y       z     vdW  Elec       q    Type
REMARK                         _______ _______ _______ _____ _____    ______ ____
ROOT
ATOM      1  O   UNL     1      -2.535   0.913   2.309  0.00  0.00    -0.252 OA
ATOM      2  N   UNL     1      -2.414  -1.192   1.394  0.00  0.00    -0.264 N 
ATOM      3  N   UNL     1      -0.742   0.472   0.944  0.00  0.00    -0.254 N 
ATOM      4  C   UNL     1      -0.333   1.883   0.880  0.00  0.00    +0.122 C 
ATOM      5  C   UNL     1       0.370  -0.416   0.586  0.00  0.00    +0.122 C 
ATOM      6  C   UNL     1      -1.935   0.111   1.581  0.00  0.00    +0.308 C 
ATOM      7  C   UNL     1       1.537   0.518   0.438  0.00  0.00    -0.002 C 
ATOM      8  C   UNL     1       1.134   1.788   0.591  0.00  0.00    -0.005 C 
ATOM      9  C   UNL     1      -3.345  -1.748   2.367  0.00  0.00    +0.116 C 
ENDROOT
BRANCH   7  12
ATOM     10  F   UNL     1       3.862   1.893   1.291  0.00  0.00    -0.204 F 
ATOM     11  F   UNL     1       4.559  -2.734  -1.542  0.00  0.00    -0.204 F 
ATOM     12  C   UNL     1       2.902   0.040   0.150  0.00  0.00    +0.027 C 
ATOM     13  C   UNL     1       4.020   0.757   0.595  0.00  0.00    +0.140 C 
ATOM     14  C   UNL     1       3.096  -1.144  -0.574  0.00  0.00    +0.032 C 
ATOM     15  C   UNL     1       4.384  -1.602  -0.849  0.00  0.00    +0.140 C 
ATOM     16  C   UNL     1       5.309   0.299   0.321  0.00  0.00    +0.032 C 
ATOM     17  C   UNL     1       5.491  -0.880  -0.402  0.00  0.00    +0.032 C 
ENDBRANCH   7  12
BRANCH   2  19
ATOM     18  N   UNL     1      -2.634  -4.463  -1.280  0.00  0.00    +0.384 N 
ATOM     19  C   UNL     1      -2.225  -1.977   0.200  0.00  0.00    +0.073 C 
ATOM     20  C   UNL     1      -1.430  -3.248   0.504  0.00  0.00    -0.004 C 
ATOM     21  C   UNL     1      -3.566  -2.332  -0.444  0.00  0.00    -0.004 C 
ATOM     22  C   UNL     1      -1.317  -4.139  -0.732  0.00  0.00    -0.080 C 
ATOM     23  C   UNL     1      -3.375  -3.256  -1.646  0.00  0.00    -0.080 C 
ATOM     24  H   UNL     1      -3.167  -4.980  -0.581  0.00  0.00    -0.085 HD
ATOM     25  H   UNL     1      -2.501  -5.024  -2.122  0.00  0.00    -0.085 HD
ENDBRANCH   2  19
BRANCH   4  26
ATOM     26  C   UNL     1      -1.098   2.677  -0.158  0.00  0.00    -0.000 C 
ATOM     27  C   UNL     1      -1.260   4.054  -0.002  0.00  0.00    -0.002 C 
ATOM     28  C   UNL     1      -1.640   2.033  -1.269  0.00  0.00    -0.002 C 
ATOM     29  C   UNL     1      -1.964   4.786  -0.958  0.00  0.00    -0.000 C 
ATOM     30  C   UNL     1      -2.344   2.765  -2.225  0.00  0.00    -0.000 C 
ATOM     31  C   UNL     1      -2.506   4.141  -2.069  0.00  0.00    -0.000 C 
ENDBRANCH   4  26
TORSDOF 3
