REMARK  Name = 23653532
REMARK  7 active torsions:
REMARK  status: ('A' for Active; 'I' for Inactive)
REMARK    1  A    between atoms: N_2  and  C_24
REMARK    2  A    between atoms: C_3  and  C_5
REMARK    3  A    between atoms: C_8  and  O_13
REMARK    4  A    between atoms: O_13  and  C_14
REMARK    5  A    between atoms: C_14  and  C_15
REMARK    6  A    between atoms: C_15  and  N_16
REMARK    7  A    between atoms: C_21  and  N_27
REMARK                            x       y       z     vdW  Elec       q    Type
REMARK                         _______ _______ _______ _____ _____    ______ ____
ROOT
ATOM      1  O   UNL     1       0.207   1.334  -0.105  0.00  0.00    -0.270 OA
ATOM      2  N   UNL     1       0.345  -1.011  -0.191  0.00  0.00    -0.280 N 
ATOM      3  C   UNL     1      -0.312   0.226  -0.187  0.00  0.00    +0.249 C 
ATOM      4  H   UNL     1      -0.231  -1.806  -0.264  0.00  0.00    +0.155 HD
ENDROOT
BRANCH   3   5
ATOM      5  C   UNL     1      -1.795   0.160  -0.265  0.00  0.00    +0.053 C 
ATOM      6  C   UNL     1      -3.871   1.161  -0.889  0.00  0.00    +0.012 C 
ATOM      7  C   UNL     1      -3.830  -1.021   0.146  0.00  0.00    +0.012 C 
ATOM      8  C   UNL     1      -4.546   0.039  -0.408  0.00  0.00    +0.130 C 
ATOM      9  C   UNL     1      -2.479   1.222  -0.817  0.00  0.00    +0.003 C 
ATOM     10  C   UNL     1      -2.438  -0.961   0.218  0.00  0.00    +0.003 C 
ATOM     11  C   UNL     1      -4.621   2.307  -1.485  0.00  0.00    +0.034 C 
ATOM     12  C   UNL     1      -4.534  -2.231   0.666  0.00  0.00    +0.034 C 
BRANCH   8  13
ATOM     13  O   UNL     1      -5.907  -0.020  -0.479  0.00  0.00    -0.478 OA
BRANCH  13  14
ATOM     14  C   UNL     1      -6.635   0.494   0.633  0.00  0.00    +0.182 C 
BRANCH  14  15
ATOM     15  C   UNL     1      -8.123   0.356   0.350  0.00  0.00    -0.038 C 
BRANCH  15  16
ATOM     16  N   UNL     1      -8.908   0.854   1.469  0.00  0.00    +0.383 N 
ATOM     17  H   UNL     1      -9.901   0.753   1.260  0.00  0.00    -0.089 HD
ATOM     18  H   UNL     1      -8.691   1.838   1.626  0.00  0.00    -0.089 HD
ATOM     19  H   UNL     1      -8.681   0.319   2.308  0.00  0.00    -0.089 HD
ENDBRANCH  15  16
ENDBRANCH  14  15
ENDBRANCH  13  14
ENDBRANCH   8  13
ENDBRANCH   3   5
BRANCH   2  24
ATOM     20 CL   UNL     1       4.153  -4.428  -0.058  0.00  0.00    -0.082 Cl
ATOM     21  C   UNL     1       3.997  -0.414   0.091  0.00  0.00    +0.050 C 
ATOM     22  C   UNL     1       2.610  -0.190   0.001  0.00  0.00    +0.029 C 
ATOM     23  C   UNL     1       4.457  -1.745   0.071  0.00  0.00    +0.026 C 
ATOM     24  C   UNL     1       1.716  -1.256  -0.105  0.00  0.00    +0.053 C 
ATOM     25  C   UNL     1       3.564  -2.811  -0.035  0.00  0.00    +0.060 C 
ATOM     26  C   UNL     1       2.194  -2.566  -0.123  0.00  0.00    +0.026 C 
BRANCH  21  27
ATOM     27  N   UNL     1       4.893   0.657   0.196  0.00  0.00    -0.307 N 
ATOM     28  C   UNL     1       6.705   2.902   0.276  0.00  0.00    +0.004 C 
ATOM     29  C   UNL     1       7.117   1.571  -0.339  0.00  0.00    +0.021 C 
ATOM     30  C   UNL     1       5.670   2.677   1.372  0.00  0.00    +0.021 C 
ATOM     31  C   UNL     1       5.908   0.797  -0.858  0.00  0.00    +0.091 C 
ATOM     32  C   UNL     1       4.463   1.896   0.855  0.00  0.00    +0.091 C 
ENDBRANCH  21  27
ENDBRANCH   2  24
TORSDOF 7
