REMARK  Name = 46937156
REMARK  6 active torsions:
REMARK  status: ('A' for Active; 'I' for Inactive)
REMARK    1  A    between atoms: C_5  and  O_22
REMARK    2  A    between atoms: C_7  and  O_24
REMARK    3  A    between atoms: C_8  and  O_26
REMARK    4  A    between atoms: C_9  and  C_12
REMARK    5  A    between atoms: C_10  and  C_28
REMARK    6  A    between atoms: C_28  and  O_29
REMARK                            x       y       z     vdW  Elec       q    Type
REMARK                         _______ _______ _______ _____ _____    ______ ____
ROOT
ATOM      1  O   UNL     1       2.595  -0.890   0.510  0.00  0.00    -0.328 OA
ATOM      2  O   UNL     1       1.542   0.266  -1.282  0.00  0.00    -0.260 OA
ATOM      3  N   UNL     1       0.209  -0.300  -1.508  0.00  0.00    -0.184 NA
ATOM      4  C   UNL     1       1.818   0.255   0.128  0.00  0.00    +0.234 C 
ATOM      5  C   UNL     1       2.555   1.534   0.544  0.00  0.00    +0.193 C 
ATOM      6  C   UNL     1       0.451   0.132   0.779  0.00  0.00    +0.083 C 
ATOM      7  C   UNL     1       3.962   1.577  -0.051  0.00  0.00    +0.171 C 
ATOM      8  C   UNL     1       4.719   0.284   0.258  0.00  0.00    +0.169 C 
ATOM      9  C   UNL     1      -0.263  -0.776  -0.202  0.00  0.00    +0.107 C 
ATOM     10  C   UNL     1       3.882  -0.944  -0.114  0.00  0.00    +0.176 C 
ATOM     11  H   UNL     1       0.262  -1.076  -2.168  0.00  0.00    +0.155 HD
ENDROOT
BRANCH   9  12
ATOM     12  C   UNL     1      -1.767  -0.757  -0.070  0.00  0.00    -0.006 C 
ATOM     13  C   UNL     1      -2.464   0.444  -0.206  0.00  0.00    -0.003 C 
ATOM     14  C   UNL     1      -2.457  -1.938   0.190  0.00  0.00    -0.003 C 
ATOM     15  C   UNL     1      -3.863   0.478  -0.085  0.00  0.00    -0.000 C 
ATOM     16  C   UNL     1      -3.846  -1.922   0.314  0.00  0.00    -0.000 C 
ATOM     17  C   UNL     1      -4.564  -0.723   0.179  0.00  0.00    -0.000 C 
ATOM     18  C   UNL     1      -4.580   1.677  -0.219  0.00  0.00    -0.000 C 
ATOM     19  C   UNL     1      -5.963  -0.688   0.301  0.00  0.00    -0.000 C 
ATOM     20  C   UNL     1      -5.970   1.693  -0.095  0.00  0.00    -0.000 C 
ATOM     21  C   UNL     1      -6.660   0.513   0.164  0.00  0.00    -0.000 C 
ENDBRANCH   9  12
BRANCH   5  22
ATOM     22  O   UNL     1       1.826   2.680   0.114  0.00  0.00    -0.378 OA
ATOM     23  H   UNL     1       0.932   2.655   0.490  0.00  0.00    +0.211 HD
ENDBRANCH   5  22
BRANCH   7  24
ATOM     24  O   UNL     1       4.662   2.678   0.531  0.00  0.00    -0.379 OA
ATOM     25  H   UNL     1       4.186   3.502   0.338  0.00  0.00    +0.211 HD
ENDBRANCH   7  24
BRANCH   8  26
ATOM     26  O   UNL     1       5.936   0.298  -0.482  0.00  0.00    -0.379 OA
ATOM     27  H   UNL     1       6.455   1.080  -0.237  0.00  0.00    +0.211 HD
ENDBRANCH   8  26
BRANCH  10  28
ATOM     28  C   UNL     1       4.540  -2.245   0.336  0.00  0.00    +0.169 C 
BRANCH  28  29
ATOM     29  O   UNL     1       3.703  -3.325  -0.034  0.00  0.00    -0.379 OA
ATOM     30  H   UNL     1       4.110  -4.160   0.246  0.00  0.00    +0.211 HD
ENDBRANCH  28  29
ENDBRANCH  10  28
TORSDOF 6
