11963551
  -OEChem-10051721183D

 39 40  0     0  0  0  0  0  0999 V2000
    2.2704   -3.0144    0.5472 Cl  0  0  0  0  0  0  0  0  0  0  0  0
   -0.8224    1.5322   -0.1015 O   0  0  0  0  0  0  0  0  0  0  0  0
   -0.6777   -1.6931   -1.0425 O   0  0  0  0  0  0  0  0  0  0  0  0
    2.7010    2.7406   -0.6158 O   0  0  0  0  0  0  0  0  0  0  0  0
    4.5625   -1.6073   -0.6249 O   0  0  0  0  0  0  0  0  0  0  0  0
    0.5145    2.9148    1.1832 O   0  0  0  0  0  0  0  0  0  0  0  0
   -3.3164   -2.4478   -0.2938 C   0  0  0  0  0  0  0  0  0  0  0  0
   -2.1987   -2.2674    0.7341 C   0  0  0  0  0  0  0  0  0  0  0  0
    0.0271   -1.0636    1.1798 C   0  0  0  0  0  0  0  0  0  0  0  0
    1.2563   -0.4533    0.5550 C   0  0  0  0  0  0  0  0  0  0  0  0
   -3.8352   -1.1463   -0.9238 C   0  0  0  0  0  0  0  0  0  0  0  0
   -0.9287   -1.6614    0.1615 C   0  0  0  0  0  0  0  0  0  0  0  0
    1.3772    0.9137    0.2507 C   0  0  0  0  0  0  0  0  0  0  0  0
   -4.3028   -0.1474    0.0932 C   0  0  0  0  0  0  0  0  0  0  0  0
    2.3372   -1.2997    0.2497 C   0  0  0  0  0  0  0  0  0  0  0  0
   -3.1164    1.9546   -0.7591 C   0  0  0  0  0  0  0  0  0  0  0  0
    2.5585    1.4180   -0.3114 C   0  0  0  0  0  0  0  0  0  0  0  0
   -3.9773    1.1515    0.1748 C   0  0  0  0  0  0  0  0  0  0  0  0
   -1.8763    2.5109   -0.0638 C   0  0  0  0  0  0  0  0  0  0  0  0
    0.3212    1.9023    0.5296 C   0  0  0  0  0  0  0  0  0  0  0  0
    3.5072   -0.7978   -0.3224 C   0  0  0  0  0  0  0  0  0  0  0  0
    3.6187    0.5609   -0.5997 C   0  0  0  0  0  0  0  0  0  0  0  0
   -4.1525   -2.9641    0.1952 H   0  0  0  0  0  0  0  0  0  0  0  0
   -2.9732   -3.1100   -1.0985 H   0  0  0  0  0  0  0  0  0  0  0  0
   -1.9292   -3.2444    1.1513 H   0  0  0  0  0  0  0  0  0  0  0  0
   -2.5449   -1.6413    1.5630 H   0  0  0  0  0  0  0  0  0  0  0  0
    0.2901   -1.8280    1.9187 H   0  0  0  0  0  0  0  0  0  0  0  0
   -0.5189   -0.2997    1.7453 H   0  0  0  0  0  0  0  0  0  0  0  0
   -4.6841   -1.3943   -1.5726 H   0  0  0  0  0  0  0  0  0  0  0  0
   -3.0631   -0.7299   -1.5760 H   0  0  0  0  0  0  0  0  0  0  0  0
   -4.9831   -0.5334    0.8510 H   0  0  0  0  0  0  0  0  0  0  0  0
   -2.8283    1.3845   -1.6467 H   0  0  0  0  0  0  0  0  0  0  0  0
   -3.7290    2.7959   -1.1059 H   0  0  0  0  0  0  0  0  0  0  0  0
   -4.4179    1.7160    0.9957 H   0  0  0  0  0  0  0  0  0  0  0  0
   -1.5301    3.3960   -0.6106 H   0  0  0  0  0  0  0  0  0  0  0  0
   -2.0890    2.7955    0.9739 H   0  0  0  0  0  0  0  0  0  0  0  0
    4.5301    0.9531   -1.0445 H   0  0  0  0  0  0  0  0  0  0  0  0
    3.5823    2.8903   -0.9987 H   0  0  0  0  0  0  0  0  0  0  0  0
    5.2770   -1.0738   -1.0131 H   0  0  0  0  0  0  0  0  0  0  0  0
  1 15  1  0  0  0  0
  2 19  1  0  0  0  0
  2 20  1  0  0  0  0
  3 12  2  0  0  0  0
  4 17  1  0  0  0  0
  4 38  1  0  0  0  0
  5 21  1  0  0  0  0
  5 39  1  0  0  0  0
  6 20  2  0  0  0  0
  7  8  1  0  0  0  0
  7 11  1  0  0  0  0
  7 23  1  0  0  0  0
  7 24  1  0  0  0  0
  8 12  1  0  0  0  0
  8 25  1  0  0  0  0
  8 26  1  0  0  0  0
  9 10  1  0  0  0  0
  9 12  1  0  0  0  0
  9 27  1  0  0  0  0
  9 28  1  0  0  0  0
 10 13  2  0  0  0  0
 10 15  1  0  0  0  0
 11 14  1  0  0  0  0
 11 29  1  0  0  0  0
 11 30  1  0  0  0  0
 13 17  1  0  0  0  0
 13 20  1  0  0  0  0
 14 18  2  0  0  0  0
 14 31  1  0  0  0  0
 15 21  2  0  0  0  0
 16 18  1  0  0  0  0
 16 19  1  0  0  0  0
 16 32  1  0  0  0  0
 16 33  1  0  0  0  0
 17 22  2  0  0  0  0
 18 34  1  0  0  0  0
 19 35  1  0  0  0  0
 19 36  1  0  0  0  0
 21 22  1  0  0  0  0
 22 37  1  0  0  0  0
M  END
> <DATABASE_ID>
DB08292

> <DATABASE_NAME>
drugbank

> <ORIGINAL_SOURCE>
PUBCHEM

> <ORIGINAL_SOURCE_URL>
https://pubchem.ncbi.nlm.nih.gov/rest/pug/compound/inchikey/AQKZYZQONWDDLS-IWQZZHSRSA-N/SDF?record_type=3d

> <SMILES>
OC1=CC(O)=C2C(CC(=O)CCC\C=C/CCOC2=O)=C1Cl

> <INCHI_IDENTIFIER>
InChI=1S/C16H17ClO5/c17-15-11-8-10(18)6-4-2-1-3-5-7-22-16(21)14(11)12(19)9-13(15)20/h1,3,9,19-20H,2,4-8H2/b3-1-

> <INCHI_KEY>
AQKZYZQONWDDLS-IWQZZHSRSA-N

> <FORMULA>
C16H17ClO5

> <MOLECULAR_WEIGHT>
324.756

> <EXACT_MASS>
324.076451361

> <JCHEM_ACCEPTOR_COUNT>
4

> <JCHEM_AVERAGE_POLARIZABILITY>
31.327115773945486

> <JCHEM_BIOAVAILABILITY>
1

> <JCHEM_DONOR_COUNT>
2

> <JCHEM_FORMAL_CHARGE>
0

> <JCHEM_GHOSE_FILTER>
1

> <JCHEM_IUPAC>
12-chloro-13,15-dihydroxy-1,3,4,7,8,9,10,11-octahydro-2-benzoxacyclotridecine-1,10-dione

> <ALOGPS_LOGP>
3.33

> <JCHEM_LOGP>
4.034366592333333

> <ALOGPS_LOGS>
-3.42

> <JCHEM_MDDR_LIKE_RULE>
0

> <JCHEM_NUMBER_OF_RINGS>
2

> <JCHEM_PHYSIOLOGICAL_CHARGE>
0

> <JCHEM_PKA>
9.84638387623046

> <JCHEM_PKA_STRONGEST_ACIDIC>
7.025892060879208

> <JCHEM_PKA_STRONGEST_BASIC>
-4.304404623175842

> <JCHEM_POLAR_SURFACE_AREA>
83.83000000000001

> <JCHEM_REFRACTIVITY>
84.12449999999998

> <JCHEM_ROTATABLE_BOND_COUNT>
0

> <JCHEM_RULE_OF_FIVE>
1

> <ALOGPS_SOLUBILITY>
1.22e-01 g/l

> <JCHEM_TRADITIONAL_IUPAC>
12-chloro-13,15-dihydroxy-3,4,7,8,9,11-hexahydro-2-benzoxacyclotridecine-1,10-dione

> <JCHEM_VEBER_RULE>
0

> <DRUGBANK_ID>
DB08292

> <DRUG_GROUPS>
experimental

> <GENERIC_NAME>
(5Z)-12-CHLORO-13,15-DIHYDROXY-4,7,8,9-TETRAHYDRO-2-BENZOXACYCLOTRIDECINE-1,10(3H,11H)-DIONE

$$$$
