3000323
  -OEChem-10051721243D

 41 43  0     1  0  0  0  0  0999 V2000
    1.9315    2.4464    1.1649 Cl  0  0  0  0  0  0  0  0  0  0  0  0
   -4.7757   -1.3177   -0.7228 S   0  0  0  0  0  0  0  0  0  0  0  0
    0.8357   -1.5967    0.4924 N   0  0  2  0  0  0  0  0  0  0  0  0
   -2.2154   -0.6586    0.1665 N   0  0  0  0  0  0  0  0  0  0  0  0
   -3.4351    1.0518   -0.7100 N   0  0  0  0  0  0  0  0  0  0  0  0
   -0.3556   -2.3186   -0.0008 C   0  0  2  0  0  0  0  0  0  0  0  0
   -1.7112   -1.9422    0.6392 C   0  0  0  0  0  0  0  0  0  0  0  0
    0.6208   -0.4107    1.3280 C   0  0  0  0  0  0  0  0  0  0  0  0
   -1.4467    0.5182    0.2248 C   0  0  0  0  0  0  0  0  0  0  0  0
   -0.1638    0.7071    0.7026 C   0  0  0  0  0  0  0  0  0  0  0  0
    1.8083   -1.3515   -0.5734 C   0  0  0  0  0  0  0  0  0  0  0  0
   -2.1961    1.5581   -0.3200 C   0  0  0  0  0  0  0  0  0  0  0  0
   -0.1032   -3.8167    0.2214 C   0  0  0  0  0  0  0  0  0  0  0  0
   -3.4721   -0.3345   -0.4141 C   0  0  0  0  0  0  0  0  0  0  0  0
    0.3458    2.0124    0.6134 C   0  0  0  0  0  0  0  0  0  0  0  0
   -1.7115    2.8421   -0.4186 C   0  0  0  0  0  0  0  0  0  0  0  0
   -0.4172    3.0633    0.0579 C   0  0  0  0  0  0  0  0  0  0  0  0
    3.1442   -0.9573   -0.0153 C   0  0  0  0  0  0  0  0  0  0  0  0
    4.0772   -0.1578   -0.5673 C   0  0  0  0  0  0  0  0  0  0  0  0
    5.4006    0.1972    0.0492 C   0  0  0  0  0  0  0  0  0  0  0  0
    3.8395    0.4657   -1.9179 C   0  0  0  0  0  0  0  0  0  0  0  0
   -0.4636   -2.1560   -1.0829 H   0  0  0  0  0  0  0  0  0  0  0  0
   -2.4522   -2.7081    0.3872 H   0  0  0  0  0  0  0  0  0  0  0  0
   -1.6667   -1.9203    1.7342 H   0  0  0  0  0  0  0  0  0  0  0  0
    1.5708   -0.0681    1.7463 H   0  0  0  0  0  0  0  0  0  0  0  0
    0.0849   -0.7151    2.2374 H   0  0  0  0  0  0  0  0  0  0  0  0
    1.9699   -2.2750   -1.1430 H   0  0  0  0  0  0  0  0  0  0  0  0
    1.4140   -0.6037   -1.2691 H   0  0  0  0  0  0  0  0  0  0  0  0
   -0.9253   -4.4136   -0.1886 H   0  0  0  0  0  0  0  0  0  0  0  0
    0.8150   -4.1503   -0.2739 H   0  0  0  0  0  0  0  0  0  0  0  0
   -0.0168   -4.0511    1.2886 H   0  0  0  0  0  0  0  0  0  0  0  0
   -4.1760    1.5955   -1.1351 H   0  0  0  0  0  0  0  0  0  0  0  0
   -2.2976    3.6477   -0.8439 H   0  0  0  0  0  0  0  0  0  0  0  0
   -0.0061    4.0689   -0.0059 H   0  0  0  0  0  0  0  0  0  0  0  0
    3.4059   -1.4145    0.9398 H   0  0  0  0  0  0  0  0  0  0  0  0
    5.4850    1.2817    0.1720 H   0  0  0  0  0  0  0  0  0  0  0  0
    5.5195   -0.2612    1.0364 H   0  0  0  0  0  0  0  0  0  0  0  0
    6.2239   -0.1504   -0.5829 H   0  0  0  0  0  0  0  0  0  0  0  0
    3.0197    0.0158   -2.4823 H   0  0  0  0  0  0  0  0  0  0  0  0
    3.6345    1.5355   -1.8061 H   0  0  0  0  0  0  0  0  0  0  0  0
    4.7334    0.3548   -2.5424 H   0  0  0  0  0  0  0  0  0  0  0  0
  1 15  1  0  0  0  0
  2 14  2  0  0  0  0
  3  6  1  0  0  0  0
  3  8  1  0  0  0  0
  3 11  1  0  0  0  0
  4  7  1  0  0  0  0
  4  9  1  0  0  0  0
  4 14  1  0  0  0  0
  5 12  1  0  0  0  0
  5 14  1  0  0  0  0
  5 32  1  0  0  0  0
  6  7  1  0  0  0  0
  6 13  1  0  0  0  0
  6 22  1  0  0  0  0
  7 23  1  0  0  0  0
  7 24  1  0  0  0  0
  8 10  1  0  0  0  0
  8 25  1  0  0  0  0
  8 26  1  0  0  0  0
  9 10  1  0  0  0  0
  9 12  2  0  0  0  0
 10 15  2  0  0  0  0
 11 18  1  0  0  0  0
 11 27  1  0  0  0  0
 11 28  1  0  0  0  0
 12 16  1  0  0  0  0
 13 29  1  0  0  0  0
 13 30  1  0  0  0  0
 13 31  1  0  0  0  0
 15 17  1  0  0  0  0
 16 17  2  0  0  0  0
 16 33  1  0  0  0  0
 17 34  1  0  0  0  0
 18 19  2  0  0  0  0
 18 35  1  0  0  0  0
 19 20  1  0  0  0  0
 19 21  1  0  0  0  0
 20 36  1  0  0  0  0
 20 37  1  0  0  0  0
 20 38  1  0  0  0  0
 21 39  1  0  0  0  0
 21 40  1  0  0  0  0
 21 41  1  0  0  0  0
M  END
> <DATABASE_ID>
DB08600

> <DATABASE_NAME>
drugbank

> <ORIGINAL_SOURCE>
PUBCHEM

> <ORIGINAL_SOURCE_URL>
https://pubchem.ncbi.nlm.nih.gov/rest/pug/compound/inchikey/ZNFFMCYSMBXZQU-NSHDSACASA-N/SDF?record_type=3d

> <SMILES>
[H][C@]1(C)CN2C(=S)NC3=C2C(CN1CC=C(C)C)=C(Cl)C=C3

> <INCHI_IDENTIFIER>
InChI=1S/C16H20ClN3S/c1-10(2)6-7-19-9-12-13(17)4-5-14-15(12)20(8-11(19)3)16(21)18-14/h4-6,11H,7-9H2,1-3H3,(H,18,21)/t11-/m0/s1

> <INCHI_KEY>
ZNFFMCYSMBXZQU-NSHDSACASA-N

> <FORMULA>
C16H20ClN3S

> <MOLECULAR_WEIGHT>
321.868

> <EXACT_MASS>
321.106646052

> <JCHEM_ACCEPTOR_COUNT>
1

> <JCHEM_AVERAGE_POLARIZABILITY>
35.302264455074884

> <JCHEM_BIOAVAILABILITY>
1

> <JCHEM_DONOR_COUNT>
1

> <JCHEM_FORMAL_CHARGE>
0

> <JCHEM_GHOSE_FILTER>
1

> <JCHEM_IUPAC>
(11S)-7-chloro-11-methyl-10-(3-methylbut-2-en-1-yl)-1,3,10-triazatricyclo[6.4.1.0⁴,¹³]trideca-4(13),5,7-triene-2-thione

> <ALOGPS_LOGP>
3.23

> <JCHEM_LOGP>
4.077432421579406

> <ALOGPS_LOGS>
-4.02

> <JCHEM_MDDR_LIKE_RULE>
0

> <JCHEM_NUMBER_OF_RINGS>
3

> <JCHEM_PHYSIOLOGICAL_CHARGE>
0

> <JCHEM_PKA_STRONGEST_ACIDIC>
8.229831849797066

> <JCHEM_PKA_STRONGEST_BASIC>
6.5347217929229915

> <JCHEM_POLAR_SURFACE_AREA>
18.509999999999998

> <JCHEM_REFRACTIVITY>
96.0171

> <JCHEM_ROTATABLE_BOND_COUNT>
2

> <JCHEM_RULE_OF_FIVE>
1

> <ALOGPS_SOLUBILITY>
3.10e-02 g/l

> <JCHEM_TRADITIONAL_IUPAC>
(11S)-7-chloro-11-methyl-10-(3-methylbut-2-en-1-yl)-1,3,10-triazatricyclo[6.4.1.0⁴,¹³]trideca-4(13),5,7-triene-2-thione

> <JCHEM_VEBER_RULE>
1

> <DRUGBANK_ID>
DB08600

> <DRUG_GROUPS>
experimental

> <GENERIC_NAME>
5-CHLORO-8-METHYL-7-(3-METHYL-BUT-2-ENYL)-6,7,8,9-TETRAHYDRO-2H-2,7,9A-TRIAZA-BENZO[CD]AZULENE-1-THIONE

$$$$
