REMARK  Name = 11544170
REMARK  4 active torsions:
REMARK  status: ('A' for Active; 'I' for Inactive)
REMARK    1  A    between atoms: C_4  and  C_11
REMARK    2  A    between atoms: C_8  and  C_21
REMARK    3  A    between atoms: C_16  and  C_18
REMARK    4  A    between atoms: C_18  and  O_19
REMARK                            x       y       z     vdW  Elec       q    Type
REMARK                         _______ _______ _______ _____ _____    ______ ____
ROOT
ATOM      1  N   UNL     1       0.232   3.636   0.012  0.00  0.00    -0.297 N 
ATOM      2  N   UNL     1       2.503   2.833   0.017  0.00  0.00    -0.229 NA
ATOM      3  C   UNL     1       0.500   1.419   0.000  0.00  0.00    +0.033 C 
ATOM      4  C   UNL     1      -0.889   1.714  -0.005  0.00  0.00    +0.017 C 
ATOM      5  C   UNL     1       1.171   2.638   0.010  0.00  0.00    +0.132 C 
ATOM      6  C   UNL     1       1.280   0.252  -0.004  0.00  0.00    +0.004 C 
ATOM      7  C   UNL     1      -1.024   3.086   0.003  0.00  0.00    +0.063 C 
ATOM      8  C   UNL     1       2.667   0.396   0.004  0.00  0.00    +0.019 C 
ATOM      9  C   UNL     1       3.205   1.675   0.014  0.00  0.00    +0.100 C 
ATOM     10  H   UNL     1       0.429   4.600   0.019  0.00  0.00    +0.154 HD
ENDROOT
BRANCH   4  11
ATOM     11  C   UNL     1      -2.019   0.831  -0.015  0.00  0.00    +0.001 C 
ATOM     12  C   UNL     1      -2.565   0.407  -1.228  0.00  0.00    +0.000 C 
ATOM     13  C   UNL     1      -2.575   0.392   1.188  0.00  0.00    +0.000 C 
ATOM     14  C   UNL     1      -3.663  -0.453  -1.238  0.00  0.00    +0.006 C 
ATOM     15  C   UNL     1      -3.673  -0.468   1.178  0.00  0.00    +0.006 C 
ATOM     16  C   UNL     1      -4.217  -0.890  -0.035  0.00  0.00    +0.075 C 
BRANCH  16  18
ATOM     17  O   UNL     1      -5.921  -2.222  -1.056  0.00  0.00    -0.245 OA
ATOM     18  C   UNL     1      -5.362  -1.787  -0.045  0.00  0.00    +0.338 C 
BRANCH  18  19
ATOM     19  O   UNL     1      -5.776  -2.117   1.209  0.00  0.00    -0.477 OA
ATOM     20  H   UNL     1      -5.330  -1.770   1.957  0.00  0.00    +0.295 HD
ENDBRANCH  18  19
ENDBRANCH  16  18
ENDBRANCH   4  11
BRANCH   8  21
ATOM     21  C   UNL     1       3.526  -0.766   0.001  0.00  0.00    +0.001 C 
ATOM     22  C   UNL     1       3.935  -1.337   1.207  0.00  0.00    +0.000 C 
ATOM     23  C   UNL     1       3.947  -1.321  -1.208  0.00  0.00    +0.000 C 
ATOM     24  C   UNL     1       4.762  -2.459   1.204  0.00  0.00    +0.000 C 
ATOM     25  C   UNL     1       4.775  -2.444  -1.211  0.00  0.00    +0.000 C 
ATOM     26  C   UNL     1       5.182  -3.013  -0.005  0.00  0.00    +0.000 C 
ENDBRANCH   8  21
TORSDOF 4
