REMARK  Name = 445920
REMARK  3 active torsions:
REMARK  status: ('A' for Active; 'I' for Inactive)
REMARK    1  A    between atoms: C_3  and  C_10
REMARK    2  A    between atoms: C_8  and  O_18
REMARK    3  A    between atoms: C_15  and  O_16
REMARK                            x       y       z     vdW  Elec       q    Type
REMARK                         _______ _______ _______ _____ _____    ______ ____
ROOT
ATOM      1  S   UNL     1       0.502  -1.404   0.000  0.00  0.00    -0.087 S 
ATOM      2  C   UNL     1       1.856   0.799   0.001  0.00  0.00    +0.007 C 
ATOM      3  C   UNL     1      -0.367   0.062   0.000  0.00  0.00    +0.029 C 
ATOM      4  C   UNL     1       2.022  -0.590   0.000  0.00  0.00    +0.032 C 
ATOM      5  C   UNL     1       0.466   1.156   0.001  0.00  0.00    +0.007 C 
ATOM      6  C   UNL     1       3.015   1.611   0.001  0.00  0.00    +0.004 C 
ATOM      7  C   UNL     1       3.302  -1.179   0.000  0.00  0.00    +0.043 C 
ATOM      8  C   UNL     1       4.426  -0.350   0.000  0.00  0.00    +0.134 C 
ATOM      9  C   UNL     1       4.286   1.031   0.000  0.00  0.00    +0.037 C 
ENDROOT
BRANCH   3  10
ATOM     10  C   UNL     1      -1.810   0.020   0.000  0.00  0.00    +0.006 C 
ATOM     11  C   UNL     1      -2.506   0.001  -1.208  0.00  0.00    +0.004 C 
ATOM     12  C   UNL     1      -2.506  -0.002   1.208  0.00  0.00    +0.004 C 
ATOM     13  C   UNL     1      -3.900  -0.041  -1.208  0.00  0.00    +0.037 C 
ATOM     14  C   UNL     1      -3.901  -0.043   1.208  0.00  0.00    +0.037 C 
ATOM     15  C   UNL     1      -4.598  -0.062   0.000  0.00  0.00    +0.134 C 
BRANCH  15  16
ATOM     16  O   UNL     1      -5.958  -0.103  -0.001  0.00  0.00    -0.506 OA
ATOM     17  H   UNL     1      -6.426  -0.116  -0.812  0.00  0.00    +0.292 HD
ENDBRANCH  15  16
ENDBRANCH   3  10
BRANCH   8  18
ATOM     18  O   UNL     1       5.670  -0.905  -0.002  0.00  0.00    -0.505 OA
ATOM     19  H   UNL     1       5.768  -1.837  -0.002  0.00  0.00    +0.292 HD
ENDBRANCH   8  18
TORSDOF 3
