REMARK  Name = 9991833
REMARK  2 active torsions:
REMARK  status: ('A' for Active; 'I' for Inactive)
REMARK    1  A    between atoms: N_2  and  C_13
REMARK    2  A    between atoms: C_13  and  C_15
REMARK                            x       y       z     vdW  Elec       q    Type
REMARK                         _______ _______ _______ _____ _____    ______ ____
ROOT
ATOM      1  N   UNL     1      -3.183   0.071  -0.008  0.00  0.00    -0.248 N 
ATOM      2  N   UNL     1       0.520   0.206   0.037  0.00  0.00    -0.312 N 
ATOM      3  N   UNL     1      -1.782  -1.664   0.018  0.00  0.00    -0.225 NA
ATOM      4  N   UNL     1      -1.092   1.898   0.011  0.00  0.00    -0.225 NA
ATOM      5  C   UNL     1      -1.879  -0.355   0.010  0.00  0.00    +0.171 C 
ATOM      6  C   UNL     1      -3.973  -1.042  -0.013  0.00  0.00    +0.054 C 
ATOM      7  C   UNL     1      -0.793   0.613   0.020  0.00  0.00    +0.161 C 
ATOM      8  C   UNL     1      -3.465   1.421  -0.017  0.00  0.00    +0.091 C 
ATOM      9  C   UNL     1      -3.087  -2.099   0.003  0.00  0.00    +0.111 C 
ATOM     10  C   UNL     1      -5.446  -1.006  -0.032  0.00  0.00    +0.049 C 
ATOM     11  C   UNL     1      -2.427   2.276  -0.007  0.00  0.00    +0.117 C 
ATOM     12  H   UNL     1       0.713  -0.759   0.043  0.00  0.00    +0.149 HD
ENDROOT
BRANCH   2  13
ATOM     13  C   UNL     1       1.622   1.124   0.047  0.00  0.00    +0.116 C 
BRANCH  13  15
ATOM     14  N   UNL     1       5.398  -0.903  -0.040  0.00  0.00    -0.242 NA
ATOM     15  C   UNL     1       2.945   0.414   0.016  0.00  0.00    +0.000 C 
ATOM     16  C   UNL     1       3.538   0.117  -1.200  0.00  0.00    +0.018 C 
ATOM     17  C   UNL     1       3.563   0.061   1.205  0.00  0.00    +0.018 C 
ATOM     18  C   UNL     1       4.758  -0.539  -1.174  0.00  0.00    +0.099 C 
ATOM     19  C   UNL     1       4.782  -0.593   1.123  0.00  0.00    +0.099 C 
ENDBRANCH  13  15
ENDBRANCH   2  13
TORSDOF 2
