REMARK  Name = 44129630
REMARK  3 active torsions:
REMARK  status: ('A' for Active; 'I' for Inactive)
REMARK    1  A    between atoms: C_5  and  C_14
REMARK    2  A    between atoms: C_11  and  S_19
REMARK    3  A    between atoms: S_19  and  N_22
REMARK                            x       y       z     vdW  Elec       q    Type
REMARK                         _______ _______ _______ _____ _____    ______ ____
ROOT
ATOM      1  S   UNL     1      -1.630  -1.051  -1.704  0.00  0.00    +0.060 S 
ATOM      2  O   UNL     1      -1.506  -2.374  -2.283  0.00  0.00    -0.153 OA
ATOM      3  O   UNL     1      -1.333   0.144  -2.469  0.00  0.00    -0.153 OA
ATOM      4  N   UNL     1      -3.186  -0.907  -1.015  0.00  0.00    -0.180 NA
ATOM      5  C   UNL     1      -3.333   0.149   0.010  0.00  0.00    +0.080 C 
ATOM      6  C   UNL     1      -2.544  -0.290   1.245  0.00  0.00    +0.045 C 
ATOM      7  C   UNL     1      -1.094  -0.620   0.976  0.00  0.00    -0.002 C 
ATOM      8  C   UNL     1      -0.592  -0.995  -0.278  0.00  0.00    +0.119 C 
ATOM      9  C   UNL     1       0.751  -1.336  -0.459  0.00  0.00    +0.039 C 
ATOM     10  C   UNL     1      -0.202  -0.614   2.060  0.00  0.00    -0.002 C 
ATOM     11  C   UNL     1       1.619  -1.311   0.630  0.00  0.00    +0.124 C 
ATOM     12  C   UNL     1       1.143  -0.951   1.889  0.00  0.00    +0.020 C 
ATOM     13  H   UNL     1      -3.422  -1.800  -0.583  0.00  0.00    +0.149 HD
ENDROOT
BRANCH   5  14
ATOM     14  C   UNL     1      -4.808   0.331   0.322  0.00  0.00    +0.016 C 
ATOM     15  C   UNL     1      -5.073   1.418   1.360  0.00  0.00    +0.001 C 
ATOM     16  C   UNL     1      -5.620   0.818  -0.874  0.00  0.00    +0.001 C 
ATOM     17  C   UNL     1      -6.552   1.748   1.182  0.00  0.00    +0.000 C 
ATOM     18  C   UNL     1      -6.907   1.350  -0.252  0.00  0.00    +0.000 C 
ENDBRANCH   5  14
BRANCH  11  19
ATOM     19  S   UNL     1       3.299  -1.733   0.419  0.00  0.00    +0.063 S 
ATOM     20  O   UNL     1       3.823  -2.190   1.699  0.00  0.00    -0.153 OA
ATOM     21  O   UNL     1       3.417  -2.586  -0.755  0.00  0.00    -0.153 OA
BRANCH  19  22
ATOM     22  N   UNL     1       3.978  -0.203   0.058  0.00  0.00    -0.160 NA
ATOM     23  N   UNL     1       4.389   2.609  -0.379  0.00  0.00    +0.387 N 
ATOM     24  C   UNL     1       3.436   0.468  -1.157  0.00  0.00    +0.073 C 
ATOM     25  C   UNL     1       4.075   0.743   1.206  0.00  0.00    +0.073 C 
ATOM     26  C   UNL     1       4.311   1.671  -1.508  0.00  0.00    -0.058 C 
ATOM     27  C   UNL     1       4.937   1.940   0.809  0.00  0.00    -0.058 C 
ATOM     28  C   UNL     1       5.199   3.774  -0.733  0.00  0.00    -0.101 C 
ATOM     29  H   UNL     1       3.445   2.929  -0.161  0.00  0.00    -0.080 HD
ENDBRANCH  19  22
ENDBRANCH  11  19
TORSDOF 3
