REMARK  Name = 127293
REMARK  7 active torsions:
REMARK  status: ('A' for Active; 'I' for Inactive)
REMARK    1  A    between atoms: N_2  and  C_7
REMARK    2  A    between atoms: C_3  and  C_11
REMARK    3  A    between atoms: C_11  and  C_13
REMARK    4  A    between atoms: C_13  and  C_14
REMARK    5  A    between atoms: C_14  and  C_15
REMARK    6  A    between atoms: C_15  and  C_16
REMARK    7  A    between atoms: C_16  and  C_17
REMARK                            x       y       z     vdW  Elec       q    Type
REMARK                         _______ _______ _______ _____ _____    ______ ____
ROOT
ATOM      1  O   UNL     1       1.306  -2.123  -1.188  0.00  0.00    -0.275 OA
ATOM      2  N   UNL     1       1.860  -0.405   0.279  0.00  0.00    -0.296 N 
ATOM      3  C   UNL     1       1.026  -1.376  -0.254  0.00  0.00    +0.230 C 
ATOM      4  H   UNL     1       1.527   0.137   1.030  0.00  0.00    +0.150 HD
ENDROOT
BRANCH   2   7
ATOM      5  O   UNL     1       4.891   1.329   0.411  0.00  0.00    -0.447 OA
ATOM      6  O   UNL     1       4.074  -0.045   2.055  0.00  0.00    -0.248 OA
ATOM      7  C   UNL     1       3.181  -0.152  -0.210  0.00  0.00    +0.175 C 
ATOM      8  C   UNL     1       3.241   0.987  -1.201  0.00  0.00    +0.078 C 
ATOM      9  C   UNL     1       4.633   1.523  -0.985  0.00  0.00    +0.211 C 
ATOM     10  C   UNL     1       4.059   0.357   0.902  0.00  0.00    +0.335 C 
ENDBRANCH   2   7
BRANCH   3  11
ATOM     11  C   UNL     1      -0.301  -1.435   0.468  0.00  0.00    +0.149 C 
BRANCH  11  13
ATOM     12  O   UNL     1      -1.135   0.142  -1.121  0.00  0.00    -0.296 OA
ATOM     13  C   UNL     1      -1.377  -0.568  -0.146  0.00  0.00    +0.160 C 
BRANCH  13  14
ATOM     14  C   UNL     1      -2.755  -0.642   0.493  0.00  0.00    +0.065 C 
BRANCH  14  15
ATOM     15  C   UNL     1      -3.785   0.272  -0.168  0.00  0.00    +0.008 C 
BRANCH  15  16
ATOM     16  C   UNL     1      -5.178   0.122   0.451  0.00  0.00    +0.000 C 
BRANCH  16  17
ATOM     17  C   UNL     1      -6.182   1.068  -0.208  0.00  0.00    +0.000 C 
ATOM     18  C   UNL     1      -7.560   0.946   0.421  0.00  0.00    +0.000 C 
ENDBRANCH  16  17
ENDBRANCH  15  16
ENDBRANCH  14  15
ENDBRANCH  13  14
ENDBRANCH  11  13
ENDBRANCH   3  11
TORSDOF 7
