REMARK  Name = 688424
REMARK  4 active torsions:
REMARK  status: ('A' for Active; 'I' for Inactive)
REMARK    1  A    between atoms: C_3  and  C_13
REMARK    2  A    between atoms: C_3  and  O_25
REMARK    3  A    between atoms: C_16  and  S_19
REMARK    4  A    between atoms: S_19  and  N_22
REMARK                            x       y       z     vdW  Elec       q    Type
REMARK                         _______ _______ _______ _____ _____    ______ ____
ROOT
ATOM      1  O   UNL     1       3.045   0.874  -2.626  0.00  0.00    -0.270 OA
ATOM      2  N   UNL     1       1.604  -0.765  -1.748  0.00  0.00    -0.276 N 
ATOM      3  C   UNL     1       1.224  -1.261  -0.428  0.00  0.00    +0.188 C 
ATOM      4  C   UNL     1       2.040  -0.374   0.474  0.00  0.00    +0.028 C 
ATOM      5  C   UNL     1       2.804   0.516  -0.285  0.00  0.00    +0.054 C 
ATOM      6  C   UNL     1       2.533   0.267  -1.704  0.00  0.00    +0.248 C 
ATOM      7  C   UNL     1       2.123  -0.354   1.856  0.00  0.00    +0.000 C 
ATOM      8  C   UNL     1       3.653   1.447   0.281  0.00  0.00    +0.004 C 
ATOM      9  C   UNL     1       2.976   0.580   2.454  0.00  0.00    -0.000 C 
ATOM     10  C   UNL     1       3.733   1.472   1.674  0.00  0.00    +0.000 C 
ATOM     11  H   UNL     1       1.237  -1.127  -2.587  0.00  0.00    +0.152 HD
ENDROOT
BRANCH   3  13
ATOM     12 CL   UNL     1      -4.718  -1.002   0.608  0.00  0.00    -0.081 Cl
ATOM     13  C   UNL     1      -0.270  -1.182  -0.171  0.00  0.00    +0.025 C 
ATOM     14  C   UNL     1      -0.942   0.035  -0.306  0.00  0.00    +0.021 C 
ATOM     15  C   UNL     1      -0.978  -2.326   0.203  0.00  0.00    +0.001 C 
ATOM     16  C   UNL     1      -2.315   0.107  -0.069  0.00  0.00    +0.132 C 
ATOM     17  C   UNL     1      -2.351  -2.255   0.439  0.00  0.00    +0.013 C 
ATOM     18  C   UNL     1      -3.019  -1.038   0.303  0.00  0.00    +0.076 C 
BRANCH  16  19
ATOM     19  S   UNL     1      -3.102   1.662  -0.258  0.00  0.00    +0.058 S 
ATOM     20  O   UNL     1      -2.302   2.466  -1.167  0.00  0.00    -0.153 OA
ATOM     21  O   UNL     1      -4.510   1.429  -0.537  0.00  0.00    -0.153 OA
BRANCH  19  22
ATOM     22  N   UNL     1      -2.948   2.291   1.322  0.00  0.00    -0.203 NA
ATOM     23  H   UNL     1      -3.374   3.217   1.362  0.00  0.00    +0.144 HD
ATOM     24  H   UNL     1      -1.960   2.359   1.566  0.00  0.00    +0.144 HD
ENDBRANCH  19  22
ENDBRANCH  16  19
ENDBRANCH   3  13
BRANCH   3  25
ATOM     25  O   UNL     1       1.720  -2.590  -0.313  0.00  0.00    -0.364 OA
ATOM     26  H   UNL     1       2.674  -2.596  -0.485  0.00  0.00    +0.213 HD
ENDBRANCH   3  25
TORSDOF 4
