REMARK  Name = 5502
REMARK  6 active torsions:
REMARK  status: ('A' for Active; 'I' for Inactive)
REMARK    1  A    between atoms: C_3  and  C_27
REMARK    2  A    between atoms: C_8  and  C_13
REMARK    3  A    between atoms: C_10  and  O_23
REMARK    4  A    between atoms: C_11  and  O_25
REMARK    5  A    between atoms: C_16  and  O_19
REMARK    6  A    between atoms: C_18  and  O_21
REMARK                            x       y       z     vdW  Elec       q    Type
REMARK                         _______ _______ _______ _____ _____    ______ ____
ROOT
ATOM      1  N   UNL     1      -1.053   2.608  -1.499  0.00  0.00    -0.156 NA
ATOM      2  N   UNL     1       0.098   2.021  -0.997  0.00  0.00    -0.149 NA
ATOM      3  C   UNL     1      -2.334   2.031   0.582  0.00  0.00    +0.060 C 
ATOM      4  C   UNL     1      -2.221   0.540   0.372  0.00  0.00    -0.012 C 
ATOM      5  C   UNL     1      -1.086  -0.026  -0.227  0.00  0.00    +0.019 C 
ATOM      6  C   UNL     1      -2.115   2.704  -0.762  0.00  0.00    +0.062 C 
ATOM      7  C   UNL     1      -3.294  -0.298   0.708  0.00  0.00    +0.036 C 
ATOM      8  C   UNL     1       0.103   0.822  -0.495  0.00  0.00    +0.103 C 
ATOM      9  C   UNL     1      -1.039  -1.398  -0.507  0.00  0.00    +0.041 C 
ATOM     10  C   UNL     1      -3.241  -1.667   0.441  0.00  0.00    +0.172 C 
ATOM     11  C   UNL     1      -2.118  -2.215  -0.173  0.00  0.00    +0.172 C 
ATOM     12  C   UNL     1      -3.280   3.479  -1.334  0.00  0.00    +0.049 C 
ENDROOT
BRANCH   8  13
ATOM     13  C   UNL     1       1.440   0.289  -0.093  0.00  0.00    +0.023 C 
ATOM     14  C   UNL     1       2.568   0.657  -0.814  0.00  0.00    +0.042 C 
ATOM     15  C   UNL     1       1.536  -0.567   0.996  0.00  0.00    +0.005 C 
ATOM     16  C   UNL     1       3.816   0.158  -0.439  0.00  0.00    +0.172 C 
ATOM     17  C   UNL     1       2.783  -1.065   1.371  0.00  0.00    +0.040 C 
ATOM     18  C   UNL     1       3.924  -0.703   0.654  0.00  0.00    +0.172 C 
BRANCH  16  19
ATOM     19  O   UNL     1       4.922   0.519  -1.147  0.00  0.00    -0.468 OA
ATOM     20  C   UNL     1       5.282  -0.306  -2.253  0.00  0.00    +0.253 C 
ENDBRANCH  16  19
BRANCH  18  21
ATOM     21  O   UNL     1       5.136  -1.196   1.030  0.00  0.00    -0.468 OA
ATOM     22  C   UNL     1       5.880  -0.433   1.978  0.00  0.00    +0.253 C 
ENDBRANCH  18  21
ENDBRANCH   8  13
BRANCH  10  23
ATOM     23  O   UNL     1      -4.301  -2.455   0.775  0.00  0.00    -0.468 OA
ATOM     24  C   UNL     1      -5.324  -2.616  -0.206  0.00  0.00    +0.253 C 
ENDBRANCH  10  23
BRANCH  11  25
ATOM     25  O   UNL     1      -2.059  -3.548  -0.447  0.00  0.00    -0.468 OA
ATOM     26  C   UNL     1      -0.873  -4.028  -1.077  0.00  0.00    +0.253 C 
ENDBRANCH  11  25
BRANCH   3  27
ATOM     27  C   UNL     1      -1.472   2.599   1.704  0.00  0.00    +0.010 C 
ATOM     28  C   UNL     1      -1.679   4.095   1.859  0.00  0.00    +0.001 C 
ENDBRANCH   3  27
TORSDOF 6
