REMARK  Name = 23722944
REMARK  1 active torsions:
REMARK  status: ('A' for Active; 'I' for Inactive)
REMARK    1  A    between atoms: C_3  and  C_10
REMARK                            x       y       z     vdW  Elec       q    Type
REMARK                         _______ _______ _______ _____ _____    ______ ____
ROOT
ATOM      1  O   UNL     1       0.954   0.995   0.000  0.00  0.00    -0.425 OA
ATOM      2  N   UNL     1       1.045  -1.270   0.001  0.00  0.00    -0.368 NA
ATOM      3  C   UNL     1       0.288  -0.195   0.000  0.00  0.00    +0.282 C 
ATOM      4  C   UNL     1       2.269   0.626   0.000  0.00  0.00    +0.174 C 
ATOM      5  C   UNL     1       2.320  -0.760   0.000  0.00  0.00    +0.151 C 
ATOM      6  C   UNL     1       3.380   1.460  -0.001  0.00  0.00    +0.040 C 
ATOM      7  C   UNL     1       3.572  -1.391   0.000  0.00  0.00    +0.088 C 
ATOM      8  C   UNL     1       4.621   0.814   0.000  0.00  0.00    -0.001 C 
ATOM      9  C   UNL     1       4.718  -0.583   0.000  0.00  0.00    -0.018 C 
ENDROOT
BRANCH   3  10
ATOM     10  C   UNL     1      -1.145  -0.090   0.000  0.00  0.00    +0.066 C 
ATOM     11  C   UNL     1      -3.144   1.267   0.001  0.00  0.00    -0.022 C 
ATOM     12  C   UNL     1      -3.319  -1.142   0.000  0.00  0.00    -0.022 C 
ATOM     13  C   UNL     1      -1.928  -1.244   0.000  0.00  0.00    +0.002 C 
ATOM     14  C   UNL     1      -1.752   1.166   0.001  0.00  0.00    +0.002 C 
ATOM     15  C   UNL     1      -3.927   0.113   0.001  0.00  0.00    -0.009 C 
ATOM     16  C   UNL     1      -3.794   2.609  -0.001  0.00  0.00    +0.031 C 
ATOM     17  C   UNL     1      -4.157  -2.376  -0.001  0.00  0.00    +0.031 C 
ENDBRANCH   3  10
TORSDOF 1
