REMARK  Name = 6852124
REMARK  4 active torsions:
REMARK  status: ('A' for Active; 'I' for Inactive)
REMARK    1  A    between atoms: C_4  and  C_6
REMARK    2  A    between atoms: C_5  and  C_11
REMARK    3  A    between atoms: C_11  and  C_12
REMARK    4  A    between atoms: C_12  and  N_13
REMARK                            x       y       z     vdW  Elec       q    Type
REMARK                         _______ _______ _______ _____ _____    ______ ____
ROOT
ATOM      1  O   UNL     1      -0.651   0.637   0.003  0.00  0.00    -0.417 OA
ATOM      2  N   UNL     1      -1.168  -1.540  -0.004  0.00  0.00    -0.111 NA
ATOM      3  N   UNL     1       0.210  -1.428  -0.004  0.00  0.00    -0.104 NA
ATOM      4  C   UNL     1      -1.563  -0.333   0.000  0.00  0.00    +0.226 A 
ATOM      5  C   UNL     1       0.466  -0.141   0.000  0.00  0.00    +0.282 A 
ENDROOT
BRANCH   4   6
ATOM      6  C   UNL     1      -3.016   0.170   0.003  0.00  0.00    +0.070 C 
ATOM      7  C   UNL     1      -3.918  -0.853   0.727  0.00  0.00    +0.009 C 
ATOM      8  C   UNL     1      -3.509   0.342  -1.451  0.00  0.00    +0.009 C 
ATOM      9  C   UNL     1      -3.206   1.529   0.713  0.00  0.00    +0.009 C 
ENDBRANCH   4   6
BRANCH   5  11
ATOM     10  O   UNL     1       1.946   1.710   0.003  0.00  0.00    -0.289 OA
ATOM     11  C   UNL     1       1.750   0.462   0.001  0.00  0.00    +0.206 C 
BRANCH  11  12
ATOM     12  C   UNL     1       3.014  -0.436  -0.002  0.00  0.00    -0.006 C 
BRANCH  12  13
ATOM     13  N   UNL     1       4.232   0.365   0.012  0.00  0.00    +0.387 N 
ATOM     14  C   UNL     1       5.413  -0.486  -0.001  0.00  0.00    -0.105 C 
ATOM     15  H   UNL     1       4.244   0.940   0.855  0.00  0.00    -0.084 HD
ATOM     16  H   UNL     1       4.245   0.954  -0.821  0.00  0.00    -0.084 HD
ENDBRANCH  12  13
ENDBRANCH  11  12
ENDBRANCH   5  11
TORSDOF 4
