REMARK  Name = 447359
REMARK  5 active torsions:
REMARK  status: ('A' for Active; 'I' for Inactive)
REMARK    1  A    between atoms: N_2  and  S_8
REMARK    2  A    between atoms: N_3  and  C_21
REMARK    3  A    between atoms: S_8  and  C_13
REMARK    4  A    between atoms: C_21  and  C_22
REMARK    5  A    between atoms: C_25  and  C_30
REMARK                            x       y       z     vdW  Elec       q    Type
REMARK                         _______ _______ _______ _____ _____    ______ ____
ROOT
ATOM      1  O   UNL     1       1.242  -2.784   0.508  0.00  0.00    -0.273 OA
ATOM      2  N   UNL     1      -0.216   0.510   0.864  0.00  0.00    -0.144 NA
ATOM      3  N   UNL     1       1.623  -0.866  -0.737  0.00  0.00    -0.273 N 
ATOM      4  C   UNL     1       0.006   0.992  -0.517  0.00  0.00    +0.118 C 
ATOM      5  C   UNL     1       1.403   0.566  -0.915  0.00  0.00    +0.113 C 
ATOM      6  C   UNL     1      -0.209  -0.964   0.929  0.00  0.00    +0.181 C 
ATOM      7  C   UNL     1       0.963  -1.612   0.236  0.00  0.00    +0.244 C 
ENDROOT
BRANCH   2   8
ATOM      8  S   UNL     1      -1.472   1.284   1.732  0.00  0.00    +0.069 S 
ATOM      9  O   UNL     1      -1.437   2.700   1.428  0.00  0.00    -0.152 OA
ATOM     10  O   UNL     1      -1.482   0.792   3.093  0.00  0.00    -0.152 OA
BRANCH   8  13
ATOM     11 CL   UNL     1      -8.384   0.038  -2.438  0.00  0.00    -0.082 Cl
ATOM     12  S   UNL     1      -3.607   1.653  -0.222  0.00  0.00    -0.067 S 
ATOM     13  C   UNL     1      -3.026   0.710   1.055  0.00  0.00    +0.152 C 
ATOM     14  C   UNL     1      -3.822  -0.337   1.374  0.00  0.00    +0.027 C 
ATOM     15  C   UNL     1      -4.987  -0.397   0.538  0.00  0.00    +0.008 C 
ATOM     16  C   UNL     1      -4.997   0.647  -0.392  0.00  0.00    +0.032 C 
ATOM     17  C   UNL     1      -6.065  -1.314   0.526  0.00  0.00    +0.001 C 
ATOM     18  C   UNL     1      -6.045   0.795  -1.322  0.00  0.00    +0.018 C 
ATOM     19  C   UNL     1      -7.106  -1.171  -0.395  0.00  0.00    +0.011 C 
ATOM     20  C   UNL     1      -7.094  -0.126  -1.308  0.00  0.00    +0.058 C 
ENDBRANCH   8  13
ENDBRANCH   2   8
BRANCH   3  21
ATOM     21  C   UNL     1       2.744  -1.441  -1.468  0.00  0.00    +0.120 C 
BRANCH  21  22
ATOM     22  C   UNL     1       4.020  -1.151  -0.739  0.00  0.00    -0.002 C 
ATOM     23  C   UNL     1       4.731   0.010  -1.027  0.00  0.00    +0.000 C 
ATOM     24  C   UNL     1       4.487  -2.045   0.220  0.00  0.00    -0.003 C 
ATOM     25  C   UNL     1       5.920   0.280  -0.349  0.00  0.00    +0.030 C 
ATOM     26  C   UNL     1       5.676  -1.775   0.897  0.00  0.00    -0.000 C 
ATOM     27  C   UNL     1       6.393  -0.613   0.613  0.00  0.00    +0.003 C 
BRANCH  25  30
ATOM     28  N   UNL     1       7.859   1.788   0.015  0.00  0.00    -0.343 N 
ATOM     29  N   UNL     1       6.216   2.338  -1.554  0.00  0.00    -0.285 NA
ATOM     30  C   UNL     1       6.668   1.492  -0.645  0.00  0.00    +0.117 C 
ATOM     31  H   UNL     1       8.349   2.614  -0.201  0.00  0.00    +0.144 HD
ATOM     32  H   UNL     1       8.210   1.172   0.697  0.00  0.00    +0.144 HD
ATOM     33  H   UNL     1       6.721   3.159  -1.756  0.00  0.00    +0.188 HD
ENDBRANCH  25  30
ENDBRANCH  21  22
ENDBRANCH   3  21
TORSDOF 5
