REMARK  Name = 1432578
REMARK  3 active torsions:
REMARK  status: ('A' for Active; 'I' for Inactive)
REMARK    1  A    between atoms: C_3  and  C_8
REMARK    2  A    between atoms: C_8  and  O_9
REMARK    3  A    between atoms: N_11  and  C_14
REMARK                            x       y       z     vdW  Elec       q    Type
REMARK                         _______ _______ _______ _____ _____    ______ ____
ROOT
ATOM      1  N   UNL     1       1.003  -1.696  -0.448  0.00  0.00    -0.229 NA
ATOM      2  C   UNL     1       1.189  -0.365  -0.265  0.00  0.00    +0.138 C 
ATOM      3  C   UNL     1       2.413   0.196   0.079  0.00  0.00    +0.107 C 
ATOM      4  C   UNL     1       3.502  -0.653   0.243  0.00  0.00    +0.011 C 
ATOM      5  C   UNL     1       3.343  -2.022   0.062  0.00  0.00    +0.021 C 
ATOM      6  C   UNL     1       2.084  -2.489  -0.280  0.00  0.00    +0.100 C 
ATOM      7  N   UNL     1       0.081   0.489  -0.431  0.00  0.00    -0.298 N 
ATOM      8  H   UNL     1       0.320   1.391  -0.745  0.00  0.00    +0.154 HD
ENDROOT
BRANCH   7  10
ATOM      9 CL   UNL     1      -5.732  -0.281   0.391  0.00  0.00    -0.082 Cl
ATOM     10  C   UNL     1      -1.304   0.305  -0.235  0.00  0.00    +0.049 C 
ATOM     11  C   UNL     1      -2.218   1.018  -1.011  0.00  0.00    +0.016 C 
ATOM     12  C   UNL     1      -1.759  -0.589   0.734  0.00  0.00    +0.016 C 
ATOM     13  C   UNL     1      -3.588   0.836  -0.817  0.00  0.00    +0.013 C 
ATOM     14  C   UNL     1      -3.129  -0.770   0.927  0.00  0.00    +0.013 C 
ATOM     15  C   UNL     1      -4.043  -0.058   0.152  0.00  0.00    +0.058 C 
ENDBRANCH   7  10
BRANCH   3  17
ATOM     16  O   UNL     1       1.721   2.408   0.670  0.00  0.00    -0.245 OA
ATOM     17  C   UNL     1       2.590   1.629   0.271  0.00  0.00    +0.341 C 
BRANCH  17  18
ATOM     18  O   UNL     1       3.848   2.042  -0.041  0.00  0.00    -0.477 OA
ATOM     19  H   UNL     1       4.484   1.422  -0.341  0.00  0.00    +0.295 HD
ENDBRANCH  17  18
ENDBRANCH   3  17
TORSDOF 3
