REMARK  Name = 5743585
REMARK  4 active torsions:
REMARK  status: ('A' for Active; 'I' for Inactive)
REMARK    1  A    between atoms: C_4  and  N_9
REMARK    2  A    between atoms: C_8  and  C_17
REMARK    3  A    between atoms: C_17  and  O_18
REMARK    4  A    between atoms: O_18  and  C_19
REMARK                            x       y       z     vdW  Elec       q    Type
REMARK                         _______ _______ _______ _____ _____    ______ ____
ROOT
ATOM      1  S   UNL     1       0.248  -0.116  -1.147  0.00  0.00    -0.112 S 
ATOM      2  O   UNL     1      -2.194  -2.744   0.288  0.00  0.00    -0.276 OA
ATOM      3  N   UNL     1       0.075  -2.173   0.405  0.00  0.00    -0.253 N 
ATOM      4  C   UNL     1      -1.391  -0.868  -0.993  0.00  0.00    +0.076 C 
ATOM      5  C   UNL     1      -1.245  -2.035  -0.036  0.00  0.00    +0.220 C 
ATOM      6  C   UNL     1       0.987  -1.257  -0.079  0.00  0.00    +0.085 C 
ATOM      7  C   UNL     1       0.467  -3.229   1.326  0.00  0.00    +0.120 C 
ATOM      8  C   UNL     1       2.293  -1.210   0.212  0.00  0.00    +0.103 C 
ENDROOT
BRANCH   4   9
ATOM      9  N   UNL     1      -2.380   0.054  -0.436  0.00  0.00    +0.400 N 
ATOM     10  C   UNL     1      -1.943   0.543   0.879  0.00  0.00    -0.075 C 
ATOM     11  C   UNL     1      -2.625   1.167  -1.363  0.00  0.00    -0.075 C 
ATOM     12  C   UNL     1      -2.990   1.471   1.498  0.00  0.00    -0.023 C 
ATOM     13  C   UNL     1      -3.694   2.115  -0.817  0.00  0.00    -0.023 C 
ATOM     14  C   UNL     1      -3.322   2.632   0.567  0.00  0.00    -0.004 C 
ATOM     15  H   UNL     1      -3.259  -0.448  -0.308  0.00  0.00    -0.078 HD
ENDBRANCH   4   9
BRANCH   8  17
ATOM     16  O   UNL     1       3.746  -0.261  -1.446  0.00  0.00    -0.245 OA
ATOM     17  C   UNL     1       3.145  -0.164  -0.388  0.00  0.00    +0.343 C 
BRANCH  17  18
ATOM     18  O   UNL     1       3.129   0.908   0.449  0.00  0.00    -0.445 OA
BRANCH  18  19
ATOM     19  C   UNL     1       3.908   2.032   0.025  0.00  0.00    +0.209 C 
ATOM     20  C   UNL     1       3.787   3.133   1.056  0.00  0.00    +0.051 C 
ENDBRANCH  18  19
ENDBRANCH  17  18
ENDBRANCH   8  17
TORSDOF 4
