REMARK  Name = 4369443
REMARK  8 active torsions:
REMARK  status: ('A' for Active; 'I' for Inactive)
REMARK    1  A    between atoms: N_3  and  C_29
REMARK    2  A    between atoms: C_4  and  C_16
REMARK    3  A    between atoms: C_5  and  C_8
REMARK    4  A    between atoms: C_18  and  O_20
REMARK    5  A    between atoms: O_20  and  C_21
REMARK    6  A    between atoms: C_22  and  O_27
REMARK    7  A    between atoms: C_29  and  O_30
REMARK    8  A    between atoms: O_30  and  C_31
REMARK                            x       y       z     vdW  Elec       q    Type
REMARK                         _______ _______ _______ _____ _____    ______ ____
ROOT
ATOM      1  O   UNL     1       0.537  -3.391   0.616  0.00  0.00    -0.331 OA
ATOM      2  O   UNL     1       2.476  -3.082   1.822  0.00  0.00    -0.243 OA
ATOM      3  N   UNL     1      -0.064  -2.627  -0.373  0.00  0.00    -0.158 N 
ATOM      4  C   UNL     1       0.634  -1.463  -0.559  0.00  0.00    +0.133 A 
ATOM      5  C   UNL     1       1.730  -1.433   0.216  0.00  0.00    +0.099 A 
ATOM      6  C   UNL     1       1.666  -2.705   0.993  0.00  0.00    +0.367 A 
ENDROOT
BRANCH   5   8
ATOM      7  F   UNL     1       5.683   2.482   0.763  0.00  0.00    -0.204 F 
ATOM      8  C   UNL     1       2.763  -0.409   0.359  0.00  0.00    +0.008 C 
ATOM      9  C   UNL     1       2.618   0.601   1.310  0.00  0.00    +0.003 C 
ATOM     10  C   UNL     1       3.895  -0.443  -0.455  0.00  0.00    +0.003 C 
ATOM     11  C   UNL     1       3.604   1.578   1.446  0.00  0.00    +0.030 C 
ATOM     12  C   UNL     1       4.882   0.534  -0.319  0.00  0.00    +0.030 C 
ATOM     13  C   UNL     1       4.736   1.544   0.632  0.00  0.00    +0.140 C 
ENDBRANCH   5   8
BRANCH   4  16
ATOM     14  N   UNL     1      -0.660   0.512  -0.961  0.00  0.00    -0.319 NA
ATOM     15  N   UNL     1      -0.731   1.569  -3.125  0.00  0.00    -0.151 NA
ATOM     16  C   UNL     1       0.175  -0.419  -1.477  0.00  0.00    +0.166 C 
ATOM     17  C   UNL     1       0.592  -0.414  -2.796  0.00  0.00    +0.056 C 
ATOM     18  C   UNL     1      -1.067   1.460  -1.825  0.00  0.00    +0.257 C 
ATOM     19  C   UNL     1       0.103   0.612  -3.579  0.00  0.00    +0.116 C 
BRANCH  18  20
ATOM     20  O   UNL     1      -1.918   2.421  -1.328  0.00  0.00    -0.380 OA
BRANCH  20  21
ATOM     21  C   UNL     1      -2.270   2.321   0.001  0.00  0.00    +0.194 C 
ATOM     22  C   UNL     1      -3.391   1.592   0.367  0.00  0.00    +0.169 C 
ATOM     23  C   UNL     1      -1.488   2.961   0.951  0.00  0.00    +0.042 C 
ATOM     24  C   UNL     1      -3.738   1.499   1.715  0.00  0.00    +0.040 C 
ATOM     25  C   UNL     1      -1.835   2.868   2.299  0.00  0.00    +0.003 C 
ATOM     26  C   UNL     1      -2.960   2.137   2.681  0.00  0.00    +0.003 C 
BRANCH  22  27
ATOM     27  O   UNL     1      -4.160   0.965  -0.567  0.00  0.00    -0.503 OA
ATOM     28  H   UNL     1      -3.934   1.022  -1.475  0.00  0.00    +0.292 HD
ENDBRANCH  22  27
ENDBRANCH  20  21
ENDBRANCH  18  20
ENDBRANCH   4  16
BRANCH   3  29
ATOM     29  C   UNL     1      -1.424  -2.972  -0.687  0.00  0.00    +0.289 C 
BRANCH  29  30
ATOM     30  O   UNL     1      -2.276  -2.665   0.412  0.00  0.00    -0.330 OA
BRANCH  30  31
ATOM     31  C   UNL     1      -3.631  -2.991   0.133  0.00  0.00    +0.145 C 
ATOM     32  C   UNL     1      -4.481  -2.642   1.336  0.00  0.00    +0.035 C 
ENDBRANCH  30  31
ENDBRANCH  29  30
ENDBRANCH   3  29
TORSDOF 8
