REMARK  Name = 11373270
REMARK  11 active torsions:
REMARK  status: ('A' for Active; 'I' for Inactive)
REMARK    1  A    between atoms: C_1  and  C_4
REMARK    2  A    between atoms: C_1  and  C_18
REMARK    3  A    between atoms: N_3  and  C_6
REMARK    4  A    between atoms: C_7  and  O_12
REMARK    5  A    between atoms: C_9  and  O_16
REMARK    6  A    between atoms: C_11  and  O_14
REMARK    7  A    between atoms: C_18  and  C_20
REMARK    8  A    between atoms: C_21  and  C_31
REMARK    9  A    between atoms: C_23  and  O_26
REMARK   10  A    between atoms: C_24  and  O_28
REMARK   11  A    between atoms: C_31  and  O_32
REMARK                            x       y       z     vdW  Elec       q    Type
REMARK                         _______ _______ _______ _____ _____    ______ ____
ROOT
ATOM      1  C   UNL     1       0.774  -0.953  -0.807  0.00  0.00    +0.090 C 
ENDROOT
BRANCH   1   4
ATOM      2  O   UNL     1      -1.068  -2.432  -0.455  0.00  0.00    -0.275 OA
ATOM      3  N   UNL     1      -1.450  -0.113  -0.400  0.00  0.00    -0.281 N 
ATOM      4  C   UNL     1      -0.690  -1.267  -0.544  0.00  0.00    +0.227 C 
ATOM      5  H   UNL     1      -0.966   0.740  -0.482  0.00  0.00    +0.155 HD
BRANCH   3   6
ATOM      6  C   UNL     1      -2.839  -0.021  -0.148  0.00  0.00    +0.088 C 
ATOM      7  C   UNL     1      -3.442   1.221  -0.031  0.00  0.00    +0.150 C 
ATOM      8  C   UNL     1      -3.572  -1.191  -0.022  0.00  0.00    +0.057 C 
ATOM      9  C   UNL     1      -4.942  -1.116   0.227  0.00  0.00    +0.169 C 
ATOM     10  C   UNL     1      -4.812   1.296   0.219  0.00  0.00    +0.078 C 
ATOM     11  C   UNL     1      -5.563   0.127   0.348  0.00  0.00    +0.175 C 
BRANCH   7  12
ATOM     12  O   UNL     1      -2.727   2.375  -0.152  0.00  0.00    -0.504 OA
ATOM     13  H   UNL     1      -1.806   2.340  -0.320  0.00  0.00    +0.292 HD
ENDBRANCH   7  12
BRANCH  11  14
ATOM     14  O   UNL     1      -6.900   0.213   0.591  0.00  0.00    -0.468 OA
ATOM     15  C   UNL     1      -7.763   0.262  -0.543  0.00  0.00    +0.253 C 
ENDBRANCH  11  14
BRANCH   9  16
ATOM     16  O   UNL     1      -5.664  -2.265   0.352  0.00  0.00    -0.503 OA
ATOM     17  H   UNL     1      -5.240  -3.096   0.270  0.00  0.00    +0.292 HD
ENDBRANCH   9  16
ENDBRANCH   3   6
ENDBRANCH   1   4
BRANCH   1  18
ATOM     18  C   UNL     1       1.571  -0.845   0.499  0.00  0.00    +0.037 C 
BRANCH  18  20
ATOM     19 CL   UNL     1       3.399  -3.262   0.233  0.00  0.00    -0.079 Cl
ATOM     20  C   UNL     1       3.029  -0.569   0.296  0.00  0.00    +0.001 C 
ATOM     21  C   UNL     1       3.475   0.752   0.239  0.00  0.00    +0.106 C 
ATOM     22  C   UNL     1       3.938  -1.618   0.164  0.00  0.00    +0.088 C 
ATOM     23  C   UNL     1       4.830   1.023   0.050  0.00  0.00    +0.143 C 
ATOM     24  C   UNL     1       5.294  -1.347  -0.025  0.00  0.00    +0.147 C 
ATOM     25  C   UNL     1       5.739  -0.026  -0.082  0.00  0.00    +0.074 C 
BRANCH  23  26
ATOM     26  O   UNL     1       5.288   2.305  -0.009  0.00  0.00    -0.505 OA
ATOM     27  H   UNL     1       4.689   3.021   0.078  0.00  0.00    +0.292 HD
ENDBRANCH  23  26
BRANCH  24  28
ATOM     28  O   UNL     1       6.208  -2.350  -0.157  0.00  0.00    -0.505 OA
ATOM     29  H   UNL     1       5.931  -3.244  -0.122  0.00  0.00    +0.292 HD
ENDBRANCH  24  28
BRANCH  21  31
ATOM     30  O   UNL     1       2.225   2.380   1.452  0.00  0.00    -0.245 OA
ATOM     31  C   UNL     1       2.532   1.857   0.376  0.00  0.00    +0.344 C 
BRANCH  31  32
ATOM     32  O   UNL     1       2.035   2.241  -0.838  0.00  0.00    -0.441 OA
ATOM     33  C   UNL     1       1.097   3.323  -0.835  0.00  0.00    +0.256 C 
ENDBRANCH  31  32
ENDBRANCH  21  31
ENDBRANCH  18  20
ENDBRANCH   1  18
TORSDOF 11
