REMARK  Name = 447278
REMARK  18 active torsions:
REMARK  status: ('A' for Active; 'I' for Inactive)
REMARK    1  A    between atoms: N_1  and  C_4
REMARK    2  A    between atoms: N_1  and  C_20
REMARK    3  A    between atoms: C_4  and  C_5
REMARK    4  A    between atoms: C_5  and  C_7
REMARK    5  A    between atoms: C_6  and  C_9
REMARK    6  A    between atoms: C_9  and  C_10
REMARK    7  A    between atoms: C_10  and  C_12
REMARK    8  A    between atoms: C_11  and  C_14
REMARK    9  A    between atoms: C_14  and  C_15
REMARK   10  A    between atoms: C_15  and  C_16
REMARK   11  A    between atoms: C_20  and  C_21
REMARK   12  A    between atoms: C_21  and  O_22
REMARK   13  A    between atoms: O_22  and  P_23
REMARK   14  A    between atoms: P_23  and  O_25
REMARK   15  A    between atoms: P_23  and  O_27
REMARK   16  A    between atoms: O_27  and  P_28
REMARK   17  A    between atoms: P_28  and  O_30
REMARK   18  A    between atoms: P_28  and  O_32
REMARK                            x       y       z     vdW  Elec       q    Type
REMARK                         _______ _______ _______ _____ _____    ______ ____
ROOT
ATOM      1  N   UNL     1      -0.558  -2.763  -1.493  0.00  0.00    +0.387 N 
ATOM      2  C   UNL     1       0.018  -3.060  -2.805  0.00  0.00    -0.101 C 
ATOM      3  H   UNL     1      -0.769  -3.644  -1.024  0.00  0.00    -0.080 HD
ENDROOT
BRANCH   1   4
ATOM      4  C   UNL     1       0.395  -2.026  -0.670  0.00  0.00    -0.073 C 
BRANCH   4   5
ATOM      5  C   UNL     1       1.393  -2.986  -0.028  0.00  0.00    +0.003 C 
BRANCH   5   7
ATOM      6  C   UNL     1       3.711  -2.191   0.712  0.00  0.00    -0.048 C 
ATOM      7  C   UNL     1       2.372  -2.248   0.842  0.00  0.00    -0.037 C 
ATOM      8  C   UNL     1       4.495  -2.884  -0.368  0.00  0.00    +0.026 C 
BRANCH   6   9
ATOM      9  C   UNL     1       4.533  -1.349   1.670  0.00  0.00    +0.026 C 
BRANCH   9  10
ATOM     10  C   UNL     1       5.273  -0.190   0.991  0.00  0.00    +0.030 C 
BRANCH  10  12
ATOM     11  C   UNL     1       3.702   1.818   0.650  0.00  0.00    -0.048 C 
ATOM     12  C   UNL     1       4.343   0.711   0.225  0.00  0.00    -0.034 C 
ATOM     13  C   UNL     1       3.888   2.286   2.071  0.00  0.00    +0.026 C 
BRANCH  11  14
ATOM     14  C   UNL     1       2.751   2.649  -0.184  0.00  0.00    +0.026 C 
BRANCH  14  15
ATOM     15  C   UNL     1       1.288   2.204  -0.038  0.00  0.00    +0.030 C 
BRANCH  15  16
ATOM     16  C   UNL     1       0.379   3.071  -0.865  0.00  0.00    -0.034 C 
ATOM     17  C   UNL     1       0.028   2.918  -2.156  0.00  0.00    -0.048 C 
ATOM     18  C   UNL     1      -0.889   3.826  -2.925  0.00  0.00    +0.026 C 
ATOM     19  C   UNL     1       0.557   1.755  -2.954  0.00  0.00    +0.026 C 
ENDBRANCH  15  16
ENDBRANCH  14  15
ENDBRANCH  11  14
ENDBRANCH  10  12
ENDBRANCH   9  10
ENDBRANCH   6   9
ENDBRANCH   5   7
ENDBRANCH   4   5
ENDBRANCH   1   4
BRANCH   1  20
ATOM     20  C   UNL     1      -1.802  -2.006  -1.643  0.00  0.00    -0.044 C 
BRANCH  20  21
ATOM     21  C   UNL     1      -2.630  -2.076  -0.370  0.00  0.00    +0.131 C 
BRANCH  21  22
ATOM     22  O   UNL     1      -3.817  -1.316  -0.555  0.00  0.00    -0.275 OA
BRANCH  22  23
ATOM     23  P   UNL     1      -4.649  -0.798   0.730  0.00  0.00    +0.484 P 
ATOM     24  O   UNL     1      -5.882  -0.007   0.400  0.00  0.00    -0.227 OA
BRANCH  23  25
ATOM     25  O   UNL     1      -4.926  -2.134   1.599  0.00  0.00    -0.302 OA
ATOM     26  H   UNL     1      -4.087  -2.588   1.771  0.00  0.00    +0.222 HD
ENDBRANCH  23  25
BRANCH  23  27
ATOM     27  O   UNL     1      -3.566   0.005   1.622  0.00  0.00    -0.186 OA
BRANCH  27  28
ATOM     28  P   UNL     1      -2.758   1.374   1.329  0.00  0.00    +0.481 P 
ATOM     29  O   UNL     1      -2.271   1.525  -0.082  0.00  0.00    -0.227 OA
BRANCH  28  30
ATOM     30  O   UNL     1      -3.775   2.524   1.836  0.00  0.00    -0.302 OA
ATOM     31  H   UNL     1      -4.034   2.344   2.753  0.00  0.00    +0.222 HD
ENDBRANCH  28  30
BRANCH  28  32
ATOM     32  O   UNL     1      -1.603   1.366   2.460  0.00  0.00    -0.302 OA
ATOM     33  H   UNL     1      -2.008   1.265   3.335  0.00  0.00    +0.222 HD
ENDBRANCH  28  32
ENDBRANCH  27  28
ENDBRANCH  23  27
ENDBRANCH  22  23
ENDBRANCH  21  22
ENDBRANCH  20  21
ENDBRANCH   1  20
TORSDOF 18
