REMARK  Name = 11138
REMARK  6 active torsions:
REMARK  status: ('A' for Active; 'I' for Inactive)
REMARK    1  A    between atoms: C_1  and  C_8
REMARK    2  A    between atoms: C_2  and  C_12
REMARK    3  A    between atoms: C_3  and  C_16
REMARK    4  A    between atoms: C_8  and  O_9
REMARK    5  A    between atoms: C_12  and  O_13
REMARK    6  A    between atoms: C_16  and  O_17
REMARK                            x       y       z     vdW  Elec       q    Type
REMARK                         _______ _______ _______ _____ _____    ______ ____
ROOT
ATOM      1  C   UNL     1      -0.334   1.325   0.000  0.00  0.00    +0.076 C 
ATOM      2  C   UNL     1      -0.965  -1.008   0.000  0.00  0.00    +0.076 C 
ATOM      3  C   UNL     1       1.370  -0.388   0.001  0.00  0.00    +0.076 C 
ATOM      4  C   UNL     1      -1.323   0.341   0.000  0.00  0.00    +0.013 C 
ATOM      5  C   UNL     1       1.012   0.960   0.001  0.00  0.00    +0.013 C 
ATOM      6  C   UNL     1       0.382  -1.372   0.001  0.00  0.00    +0.013 C 
ENDROOT
BRANCH   1   8
ATOM      7  O   UNL     1       0.082   3.680   0.001  0.00  0.00    -0.245 OA
ATOM      8  C   UNL     1      -0.707   2.730   0.000  0.00  0.00    +0.338 C 
BRANCH   8   9
ATOM      9  O   UNL     1      -2.057   2.911  -0.001  0.00  0.00    -0.477 OA
ATOM     10  H   UNL     1      -2.629   2.169  -0.001  0.00  0.00    +0.295 HD
ENDBRANCH   8   9
ENDBRANCH   1   8
BRANCH   2  12
ATOM     11  O   UNL     1      -1.793  -3.252   0.000  0.00  0.00    -0.245 OA
ATOM     12  C   UNL     1      -1.996  -2.034   0.000  0.00  0.00    +0.338 C 
BRANCH  12  13
ATOM     13  O   UNL     1      -3.252  -1.509   0.000  0.00  0.00    -0.477 OA
ATOM     14  H   UNL     1      -3.372  -0.580   0.000  0.00  0.00    +0.295 HD
ENDBRANCH  12  13
ENDBRANCH   2  12
BRANCH   3  16
ATOM     15  O   UNL     1       3.202  -1.927   0.000  0.00  0.00    -0.245 OA
ATOM     16  C   UNL     1       2.774  -0.768   0.000  0.00  0.00    +0.338 C 
BRANCH  16  17
ATOM     17  O   UNL     1       3.605   0.310  -0.002  0.00  0.00    -0.477 OA
ATOM     18  H   UNL     1       3.248   1.177  -0.002  0.00  0.00    +0.295 HD
ENDBRANCH  16  17
ENDBRANCH   3  16
TORSDOF 6
