16058650
  -OEChem-10051721153D

 53 56  0     1  0  0  0  0  0999 V2000
    7.3808   -0.2043   -0.8688 S   0  0  0  0  0  0  0  0  0  0  0  0
   -5.7505   -1.3564   -2.1205 F   0  0  0  0  0  0  0  0  0  0  0  0
   -5.5349    2.7767    1.4549 F   0  0  0  0  0  0  0  0  0  0  0  0
   -7.8284    2.3017    0.0446 F   0  0  0  0  0  0  0  0  0  0  0  0
    6.9987   -1.5721   -1.1898 O   0  0  0  0  0  0  0  0  0  0  0  0
    8.1410    0.5790   -1.8332 O   0  0  0  0  0  0  0  0  0  0  0  0
   -0.5453   -1.6656   -0.2257 N   0  0  0  0  0  0  0  0  0  0  0  0
   -3.9316   -2.6228    1.0312 N   0  0  0  0  0  0  0  0  0  0  0  0
    0.3719   -1.3426    1.9547 N   0  0  0  0  0  0  0  0  0  0  0  0
    2.4604   -0.1699    2.2187 N   0  0  0  0  0  0  0  0  0  0  0  0
   -3.3058   -0.9842   -0.7281 C   0  0  2  0  0  0  0  0  0  0  0  0
   -2.8647   -1.7354    0.5593 C   0  0  2  0  0  0  0  0  0  0  0  0
   -2.1351   -0.1601   -1.3114 C   0  0  0  0  0  0  0  0  0  0  0  0
   -1.5847   -2.5568    0.3041 C   0  0  0  0  0  0  0  0  0  0  0  0
   -0.8909   -1.0286   -1.4981 C   0  0  0  0  0  0  0  0  0  0  0  0
   -4.5261   -0.1001   -0.5213 C   0  0  0  0  0  0  0  0  0  0  0  0
    0.4559   -1.1688    0.6033 C   0  0  0  0  0  0  0  0  0  0  0  0
   -5.6910   -0.3462   -1.2418 C   0  0  0  0  0  0  0  0  0  0  0  0
   -4.4682    0.9506    0.3891 C   0  0  0  0  0  0  0  0  0  0  0  0
    1.5321   -0.4978    0.0223 C   0  0  0  0  0  0  0  0  0  0  0  0
   -5.5859    1.7628    0.5812 C   0  0  0  0  0  0  0  0  0  0  0  0
   -6.8086    0.4661   -1.0499 C   0  0  0  0  0  0  0  0  0  0  0  0
    2.5034   -0.0205    0.8786 C   0  0  0  0  0  0  0  0  0  0  0  0
   -6.7561    1.5206   -0.1384 C   0  0  0  0  0  0  0  0  0  0  0  0
    1.3828   -0.8309    2.6826 C   0  0  0  0  0  0  0  0  0  0  0  0
    3.6571    0.6878    0.3781 C   0  0  0  0  0  0  0  0  0  0  0  0
    4.8174   -0.0120    0.0389 C   0  0  0  0  0  0  0  0  0  0  0  0
    3.6181    2.0764    0.2326 C   0  0  0  0  0  0  0  0  0  0  0  0
    5.9324    0.6731   -0.4434 C   0  0  0  0  0  0  0  0  0  0  0  0
    4.7332    2.7616   -0.2497 C   0  0  0  0  0  0  0  0  0  0  0  0
    5.8904    2.0598   -0.5877 C   0  0  0  0  0  0  0  0  0  0  0  0
    8.3322   -0.2409    0.6336 C   0  0  0  0  0  0  0  0  0  0  0  0
   -3.5540   -1.7473   -1.4806 H   0  0  0  0  0  0  0  0  0  0  0  0
   -2.6520   -1.0111    1.3560 H   0  0  0  0  0  0  0  0  0  0  0  0
   -1.8828    0.6792   -0.6511 H   0  0  0  0  0  0  0  0  0  0  0  0
   -2.4265    0.2732   -2.2763 H   0  0  0  0  0  0  0  0  0  0  0  0
   -1.2584   -3.0767    1.2133 H   0  0  0  0  0  0  0  0  0  0  0  0
   -1.7839   -3.3428   -0.4368 H   0  0  0  0  0  0  0  0  0  0  0  0
   -1.1064   -1.8135   -2.2348 H   0  0  0  0  0  0  0  0  0  0  0  0
   -0.1004   -0.4221   -1.9443 H   0  0  0  0  0  0  0  0  0  0  0  0
   -4.7470   -2.0737    1.2993 H   0  0  0  0  0  0  0  0  0  0  0  0
   -3.6254   -3.1067    1.8744 H   0  0  0  0  0  0  0  0  0  0  0  0
   -3.5683    1.1570    0.9609 H   0  0  0  0  0  0  0  0  0  0  0  0
    1.6597   -0.3757   -1.0457 H   0  0  0  0  0  0  0  0  0  0  0  0
   -7.7194    0.2780   -1.6104 H   0  0  0  0  0  0  0  0  0  0  0  0
    1.3224   -0.9652    3.7555 H   0  0  0  0  0  0  0  0  0  0  0  0
    4.8469   -1.0926    0.1608 H   0  0  0  0  0  0  0  0  0  0  0  0
    2.7242    2.6389    0.4923 H   0  0  0  0  0  0  0  0  0  0  0  0
    6.7493    2.6141   -0.9554 H   0  0  0  0  0  0  0  0  0  0  0  0
    4.7009    3.8415   -0.3605 H   0  0  0  0  0  0  0  0  0  0  0  0
    8.5596    0.7832    0.9355 H   0  0  0  0  0  0  0  0  0  0  0  0
    7.7565   -0.7550    1.4057 H   0  0  0  0  0  0  0  0  0  0  0  0
    9.2579   -0.7852    0.4352 H   0  0  0  0  0  0  0  0  0  0  0  0
  1  5  2  0  0  0  0
  1  6  2  0  0  0  0
  1 29  1  0  0  0  0
  1 32  1  0  0  0  0
  2 18  1  0  0  0  0
  3 21  1  0  0  0  0
  4 24  1  0  0  0  0
  7 14  1  0  0  0  0
  7 15  1  0  0  0  0
  7 17  1  0  0  0  0
  8 12  1  0  0  0  0
  8 41  1  0  0  0  0
  8 42  1  0  0  0  0
  9 17  2  0  0  0  0
  9 25  1  0  0  0  0
 10 23  1  0  0  0  0
 10 25  2  0  0  0  0
 11 12  1  0  0  0  0
 11 13  1  0  0  0  0
 11 16  1  0  0  0  0
 11 33  1  0  0  0  0
 12 14  1  0  0  0  0
 12 34  1  0  0  0  0
 13 15  1  0  0  0  0
 13 35  1  0  0  0  0
 13 36  1  0  0  0  0
 14 37  1  0  0  0  0
 14 38  1  0  0  0  0
 15 39  1  0  0  0  0
 15 40  1  0  0  0  0
 16 18  1  0  0  0  0
 16 19  2  0  0  0  0
 17 20  1  0  0  0  0
 18 22  2  0  0  0  0
 19 21  1  0  0  0  0
 19 43  1  0  0  0  0
 20 23  2  0  0  0  0
 20 44  1  0  0  0  0
 21 24  2  0  0  0  0
 22 24  1  0  0  0  0
 22 45  1  0  0  0  0
 23 26  1  0  0  0  0
 25 46  1  0  0  0  0
 26 27  2  0  0  0  0
 26 28  1  0  0  0  0
 27 29  1  0  0  0  0
 27 47  1  0  0  0  0
 28 30  2  0  0  0  0
 28 48  1  0  0  0  0
 29 31  2  0  0  0  0
 30 31  1  0  0  0  0
 30 50  1  0  0  0  0
 31 49  1  0  0  0  0
 32 51  1  0  0  0  0
 32 52  1  0  0  0  0
 32 53  1  0  0  0  0
M  END
> <DATABASE_ID>
DB08164

> <DATABASE_NAME>
drugbank

> <ORIGINAL_SOURCE>
PUBCHEM

> <ORIGINAL_SOURCE_URL>
https://pubchem.ncbi.nlm.nih.gov/rest/pug/compound/inchikey/GOBIXGZJSMAOFV-QRWLVFNGSA-N/SDF?record_type=3d

> <SMILES>
[H][C@]1(N)CN(CC[C@]1([H])C1=CC(F)=C(F)C=C1F)C1=NC=NC(=C1)C1=CC=CC(=C1)S(C)(=O)=O

> <INCHI_IDENTIFIER>
InChI=1S/C22H21F3N4O2S/c1-32(30,31)14-4-2-3-13(7-14)21-10-22(28-12-27-21)29-6-5-15(20(26)11-29)16-8-18(24)19(25)9-17(16)23/h2-4,7-10,12,15,20H,5-6,11,26H2,1H3/t15-,20+/m1/s1

> <INCHI_KEY>
GOBIXGZJSMAOFV-QRWLVFNGSA-N

> <FORMULA>
C22H21F3N4O2S

> <MOLECULAR_WEIGHT>
462.488

> <EXACT_MASS>
462.133731241

> <JCHEM_ACCEPTOR_COUNT>
6

> <JCHEM_AVERAGE_POLARIZABILITY>
44.83523539901121

> <JCHEM_BIOAVAILABILITY>
1

> <JCHEM_DONOR_COUNT>
1

> <JCHEM_FORMAL_CHARGE>
0

> <JCHEM_GHOSE_FILTER>
1

> <JCHEM_IUPAC>
(3R,4R)-1-[6-(3-methanesulfonylphenyl)pyrimidin-4-yl]-4-(2,4,5-trifluorophenyl)piperidin-3-amine

> <ALOGPS_LOGP>
2.52

> <JCHEM_LOGP>
3.2210844106666663

> <ALOGPS_LOGS>
-4.59

> <JCHEM_MDDR_LIKE_RULE>
0

> <JCHEM_NUMBER_OF_RINGS>
4

> <JCHEM_PHYSIOLOGICAL_CHARGE>
1

> <JCHEM_PKA_STRONGEST_ACIDIC>
19.688145380341467

> <JCHEM_PKA_STRONGEST_BASIC>
9.483485650331692

> <JCHEM_POLAR_SURFACE_AREA>
89.18

> <JCHEM_REFRACTIVITY>
116.609

> <JCHEM_ROTATABLE_BOND_COUNT>
4

> <JCHEM_RULE_OF_FIVE>
1

> <ALOGPS_SOLUBILITY>
1.19e-02 g/l

> <JCHEM_TRADITIONAL_IUPAC>
(3R,4R)-1-[6-(3-methanesulfonylphenyl)pyrimidin-4-yl]-4-(2,4,5-trifluorophenyl)piperidin-3-amine

> <JCHEM_VEBER_RULE>
0

> <DRUGBANK_ID>
DB08164

> <DRUG_GROUPS>
experimental

> <GENERIC_NAME>
(3R,4R)-1-{6-[3-(METHYLSULFONYL)PHENYL]PYRIMIDIN-4-YL}-4-(2,4,5-TRIFLUOROPHENYL)PIPERIDIN-3-AMINE

$$$$
