449026
  -OEChem-10051721133D

 60 62  0     0  0  0  0  0  0999 V2000
   -3.3275   -1.9237    0.0555 O   0  0  0  0  0  0  0  0  0  0  0  0
   -8.7873    1.0336   -0.6484 O   0  0  0  0  0  0  0  0  0  0  0  0
   -8.2094    1.9990    1.3599 O   0  0  0  0  0  0  0  0  0  0  0  0
    5.5142   -0.1896   -0.0237 N   0  0  0  0  0  0  0  0  0  0  0  0
    7.0813    1.4277    0.7215 N   0  0  0  0  0  0  0  0  0  0  0  0
    8.3144    1.9968    0.6494 N   0  0  0  0  0  0  0  0  0  0  0  0
    2.8767   -1.3484    0.2647 C   0  0  0  0  0  0  0  0  0  0  0  0
    3.0727    0.1139   -0.1487 C   0  0  0  0  0  0  0  0  0  0  0  0
    4.0738   -2.1779   -0.2101 C   0  0  0  0  0  0  0  0  0  0  0  0
    1.5716   -1.9031   -0.3006 C   0  0  0  0  0  0  0  0  0  0  0  0
    4.3938    0.6716    0.3783 C   0  0  0  0  0  0  0  0  0  0  0  0
    5.3945   -1.6122    0.3120 C   0  0  0  0  0  0  0  0  0  0  0  0
    0.3675   -1.4018    0.4918 C   0  0  0  0  0  0  0  0  0  0  0  0
   -0.9378   -1.9327   -0.0964 C   0  0  0  0  0  0  0  0  0  0  0  0
    6.7836    0.3963   -0.0971 C   0  0  0  0  0  0  0  0  0  0  0  0
   -2.1498   -1.4064    0.6591 C   0  0  0  0  0  0  0  0  0  0  0  0
    7.6788   -0.1158   -1.0147 C   0  0  0  0  0  0  0  0  0  0  0  0
    8.9335    0.4634   -1.0881 C   0  0  0  0  0  0  0  0  0  0  0  0
    9.2099    1.5161   -0.2390 C   0  0  0  0  0  0  0  0  0  0  0  0
   -4.4580   -1.1535    0.1450 C   0  0  0  0  0  0  0  0  0  0  0  0
   10.5460    2.1750   -0.2782 C   0  0  0  0  0  0  0  0  0  0  0  0
   -4.6432   -0.3114    1.2414 C   0  0  0  0  0  0  0  0  0  0  0  0
   -5.4241   -1.2137   -0.8594 C   0  0  0  0  0  0  0  0  0  0  0  0
   -5.7945    0.4706    1.3333 C   0  0  0  0  0  0  0  0  0  0  0  0
   -6.5753   -0.4317   -0.7674 C   0  0  0  0  0  0  0  0  0  0  0  0
   -6.7607    0.4105    0.3290 C   0  0  0  0  0  0  0  0  0  0  0  0
   -7.9613    1.2255    0.4254 C   0  0  0  0  0  0  0  0  0  0  0  0
  -10.0061    1.7843   -0.6693 C   0  0  0  0  0  0  0  0  0  0  0  0
  -10.7772    1.4376   -1.9250 C   0  0  0  0  0  0  0  0  0  0  0  0
    2.8454   -1.4048    1.3615 H   0  0  0  0  0  0  0  0  0  0  0  0
    3.0617    0.1943   -1.2437 H   0  0  0  0  0  0  0  0  0  0  0  0
    2.2578    0.7422    0.2255 H   0  0  0  0  0  0  0  0  0  0  0  0
    3.9711   -3.2171    0.1242 H   0  0  0  0  0  0  0  0  0  0  0  0
    4.0982   -2.1956   -1.3078 H   0  0  0  0  0  0  0  0  0  0  0  0
    1.5841   -2.9994   -0.2485 H   0  0  0  0  0  0  0  0  0  0  0  0
    1.4685   -1.6404   -1.3607 H   0  0  0  0  0  0  0  0  0  0  0  0
    4.5183    1.6846   -0.0249 H   0  0  0  0  0  0  0  0  0  0  0  0
    4.3624    0.7503    1.4722 H   0  0  0  0  0  0  0  0  0  0  0  0
    5.4501   -1.7316    1.4013 H   0  0  0  0  0  0  0  0  0  0  0  0
    6.2123   -2.2026   -0.1164 H   0  0  0  0  0  0  0  0  0  0  0  0
    0.4529   -1.7186    1.5384 H   0  0  0  0  0  0  0  0  0  0  0  0
    0.3356   -0.3071    0.4878 H   0  0  0  0  0  0  0  0  0  0  0  0
   -1.0207   -1.6497   -1.1534 H   0  0  0  0  0  0  0  0  0  0  0  0
   -0.9452   -3.0298   -0.0783 H   0  0  0  0  0  0  0  0  0  0  0  0
   -2.1103   -1.7306    1.7055 H   0  0  0  0  0  0  0  0  0  0  0  0
   -2.1217   -0.3098    0.6161 H   0  0  0  0  0  0  0  0  0  0  0  0
    7.4252   -0.9355   -1.6788 H   0  0  0  0  0  0  0  0  0  0  0  0
    9.6681    0.0960   -1.7967 H   0  0  0  0  0  0  0  0  0  0  0  0
   11.3341    1.4522   -0.0446 H   0  0  0  0  0  0  0  0  0  0  0  0
   10.6055    2.9875    0.4533 H   0  0  0  0  0  0  0  0  0  0  0  0
   10.7326    2.5994   -1.2699 H   0  0  0  0  0  0  0  0  0  0  0  0
   -3.9295   -0.2559    2.0579 H   0  0  0  0  0  0  0  0  0  0  0  0
   -5.2845   -1.8684   -1.7154 H   0  0  0  0  0  0  0  0  0  0  0  0
   -5.9227    1.1156    2.1988 H   0  0  0  0  0  0  0  0  0  0  0  0
   -7.3002   -0.5114   -1.5727 H   0  0  0  0  0  0  0  0  0  0  0  0
  -10.6028    1.5334    0.2145 H   0  0  0  0  0  0  0  0  0  0  0  0
   -9.7739    2.8550   -0.6594 H   0  0  0  0  0  0  0  0  0  0  0  0
  -10.1840    1.6659   -2.8167 H   0  0  0  0  0  0  0  0  0  0  0  0
  -10.9994    0.3659   -1.9571 H   0  0  0  0  0  0  0  0  0  0  0  0
  -11.7168    1.9950   -1.9734 H   0  0  0  0  0  0  0  0  0  0  0  0
  1 16  1  0  0  0  0
  1 20  1  0  0  0  0
  2 27  1  0  0  0  0
  2 28  1  0  0  0  0
  3 27  2  0  0  0  0
  4 11  1  0  0  0  0
  4 12  1  0  0  0  0
  4 15  1  0  0  0  0
  5  6  1  0  0  0  0
  5 15  2  0  0  0  0
  6 19  2  0  0  0  0
  7  8  1  0  0  0  0
  7  9  1  0  0  0  0
  7 10  1  0  0  0  0
  7 30  1  0  0  0  0
  8 11  1  0  0  0  0
  8 31  1  0  0  0  0
  8 32  1  0  0  0  0
  9 12  1  0  0  0  0
  9 33  1  0  0  0  0
  9 34  1  0  0  0  0
 10 13  1  0  0  0  0
 10 35  1  0  0  0  0
 10 36  1  0  0  0  0
 11 37  1  0  0  0  0
 11 38  1  0  0  0  0
 12 39  1  0  0  0  0
 12 40  1  0  0  0  0
 13 14  1  0  0  0  0
 13 41  1  0  0  0  0
 13 42  1  0  0  0  0
 14 16  1  0  0  0  0
 14 43  1  0  0  0  0
 14 44  1  0  0  0  0
 15 17  1  0  0  0  0
 16 45  1  0  0  0  0
 16 46  1  0  0  0  0
 17 18  2  0  0  0  0
 17 47  1  0  0  0  0
 18 19  1  0  0  0  0
 18 48  1  0  0  0  0
 19 21  1  0  0  0  0
 20 22  2  0  0  0  0
 20 23  1  0  0  0  0
 21 49  1  0  0  0  0
 21 50  1  0  0  0  0
 21 51  1  0  0  0  0
 22 24  1  0  0  0  0
 22 52  1  0  0  0  0
 23 25  2  0  0  0  0
 23 53  1  0  0  0  0
 24 26  2  0  0  0  0
 24 54  1  0  0  0  0
 25 26  1  0  0  0  0
 25 55  1  0  0  0  0
 26 27  1  0  0  0  0
 28 29  1  0  0  0  0
 28 56  1  0  0  0  0
 28 57  1  0  0  0  0
 29 58  1  0  0  0  0
 29 59  1  0  0  0  0
 29 60  1  0  0  0  0
M  END
> <DATABASE_ID>
DB08014

> <DATABASE_NAME>
drugbank

> <ORIGINAL_SOURCE>
PUBCHEM

> <ORIGINAL_SOURCE_URL>
https://pubchem.ncbi.nlm.nih.gov/rest/pug/compound/inchikey/AQILFLLHLFBLLG-UHFFFAOYSA-N/SDF?record_type=3d

> <SMILES>
CCOC(=O)C1=CC=C(OCCCCC2CCN(CC2)C2=NN=C(C)C=C2)C=C1

> <INCHI_IDENTIFIER>
InChI=1S/C23H31N3O3/c1-3-28-23(27)20-8-10-21(11-9-20)29-17-5-4-6-19-13-15-26(16-14-19)22-12-7-18(2)24-25-22/h7-12,19H,3-6,13-17H2,1-2H3

> <INCHI_KEY>
AQILFLLHLFBLLG-UHFFFAOYSA-N

> <FORMULA>
C23H31N3O3

> <MOLECULAR_WEIGHT>
397.5105

> <EXACT_MASS>
397.236541873

> <JCHEM_ACCEPTOR_COUNT>
5

> <JCHEM_AVERAGE_POLARIZABILITY>
46.58158359639243

> <JCHEM_BIOAVAILABILITY>
1

> <JCHEM_DONOR_COUNT>
0

> <JCHEM_FORMAL_CHARGE>
0

> <JCHEM_GHOSE_FILTER>
1

> <JCHEM_IUPAC>
ethyl 4-{4-[1-(6-methylpyridazin-3-yl)piperidin-4-yl]butoxy}benzoate

> <ALOGPS_LOGP>
5.05

> <JCHEM_LOGP>
4.338524139000001

> <ALOGPS_LOGS>
-4.29

> <JCHEM_MDDR_LIKE_RULE>
1

> <JCHEM_NUMBER_OF_RINGS>
3

> <JCHEM_PHYSIOLOGICAL_CHARGE>
0

> <JCHEM_PKA_STRONGEST_BASIC>
4.408879773805181

> <JCHEM_POLAR_SURFACE_AREA>
64.55

> <JCHEM_REFRACTIVITY>
116.55409999999998

> <JCHEM_ROTATABLE_BOND_COUNT>
10

> <JCHEM_RULE_OF_FIVE>
1

> <ALOGPS_SOLUBILITY>
2.03e-02 g/l

> <JCHEM_TRADITIONAL_IUPAC>
ethyl 4-{4-[1-(6-methylpyridazin-3-yl)piperidin-4-yl]butoxy}benzoate

> <JCHEM_VEBER_RULE>
0

> <DRUGBANK_ID>
DB08014

> <DRUG_GROUPS>
experimental

> <GENERIC_NAME>
(METHYLPYRIDAZINE PIPERIDINE BUTYLOXYPHENYL)ETHYLACETATE

$$$$
