REMARK  Name = 5288721
REMARK  8 active torsions:
REMARK  status: ('A' for Active; 'I' for Inactive)
REMARK    1  A    between atoms: C_1  and  C_4
REMARK    2  A    between atoms: C_1  and  O_7
REMARK    3  A    between atoms: C_1  and  O_9
REMARK    4  A    between atoms: C_1  and  C_11
REMARK    5  A    between atoms: C_11  and  N_12
REMARK    6  A    between atoms: C_11  and  C_16
REMARK    7  A    between atoms: C_16  and  C_17
REMARK    8  A    between atoms: C_17  and  S_18
REMARK                            x       y       z     vdW  Elec       q    Type
REMARK                         _______ _______ _______ _____ _____    ______ ____
ROOT
ATOM      1  C   UNL     1       0.572  -1.306  -0.129  0.00  0.00    +0.204 C 
ENDROOT
BRANCH   1   4
ATOM      2  S   UNL     1       1.415   1.039  -1.310  0.00  0.00    -0.066 S 
ATOM      3  N   UNL     1       2.182   0.189   1.008  0.00  0.00    -0.236 NA
ATOM      4  C   UNL     1       1.445  -0.051  -0.017  0.00  0.00    +0.137 C 
ATOM      5  C   UNL     1       2.532   1.999  -0.432  0.00  0.00    +0.057 C 
ATOM      6  C   UNL     1       2.822   1.389   0.770  0.00  0.00    +0.106 C 
ENDBRANCH   1   4
BRANCH   1   7
ATOM      7  O   UNL     1       1.048  -1.997  -1.287  0.00  0.00    -0.361 OA
ATOM      8  H   UNL     1       0.969  -1.602  -2.133  0.00  0.00    +0.213 HD
ENDBRANCH   1   7
BRANCH   1   9
ATOM      9  O   UNL     1       0.807  -2.113   1.024  0.00  0.00    -0.361 OA
ATOM     10  H   UNL     1       0.552  -1.805   1.871  0.00  0.00    +0.213 HD
ENDBRANCH   1   9
BRANCH   1  11
ATOM     11  C   UNL     1      -0.937  -0.946  -0.281  0.00  0.00    -0.006 C 
BRANCH  11  12
ATOM     12  N   UNL     1      -1.703  -2.182  -0.502  0.00  0.00    +0.385 N 
ATOM     13  H   UNL     1      -1.321  -2.680  -1.306  0.00  0.00    -0.089 HD
ATOM     14  H   UNL     1      -2.680  -1.949  -0.680  0.00  0.00    -0.089 HD
ATOM     15  H   UNL     1      -1.640  -2.774   0.326  0.00  0.00    -0.089 HD
ENDBRANCH  11  12
BRANCH  11  16
ATOM     16  C   UNL     1      -1.499  -0.172   0.936  0.00  0.00    -0.005 C 
BRANCH  16  17
ATOM     17  C   UNL     1      -2.985   0.202   0.871  0.00  0.00    +0.056 C 
BRANCH  17  18
ATOM     18  S   UNL     1      -3.384   1.277  -0.537  0.00  0.00    -0.139 S 
ATOM     19  C   UNL     1      -2.314   2.671  -0.113  0.00  0.00    +0.069 C 
ENDBRANCH  17  18
ENDBRANCH  16  17
ENDBRANCH  11  16
ENDBRANCH   1  11
TORSDOF 8
