REMARK  Name = 445481
REMARK  5 active torsions:
REMARK  status: ('A' for Active; 'I' for Inactive)
REMARK    1  A    between atoms: N_2  and  C_21
REMARK    2  A    between atoms: C_3  and  N_7
REMARK    3  A    between atoms: N_7  and  S_9
REMARK    4  A    between atoms: S_9  and  C_14
REMARK    5  A    between atoms: C_21  and  C_24
REMARK                            x       y       z     vdW  Elec       q    Type
REMARK                         _______ _______ _______ _____ _____    ______ ____
ROOT
ATOM      1  O   UNL     1      -1.343  -3.011  -0.163  0.00  0.00    -0.273 OA
ATOM      2  N   UNL     1      -1.440  -0.999  -1.379  0.00  0.00    -0.273 N 
ATOM      3  C   UNL     1       0.449  -1.372  -0.066  0.00  0.00    +0.153 C 
ATOM      4  C   UNL     1       0.754  -0.299  -1.106  0.00  0.00    +0.048 C 
ATOM      5  C   UNL     1      -0.619   0.178  -1.538  0.00  0.00    +0.096 C 
ATOM      6  C   UNL     1      -0.872  -1.941  -0.521  0.00  0.00    +0.242 C 
ENDROOT
BRANCH   3   7
ATOM      7  N   UNL     1       1.467  -2.428  -0.082  0.00  0.00    -0.171 NA
ATOM      8  H   UNL     1       0.989  -3.312   0.095  0.00  0.00    +0.149 HD
BRANCH   7   9
ATOM      9  S   UNL     1       2.763  -2.318   1.035  0.00  0.00    +0.066 S 
ATOM     10  O   UNL     1       3.724  -3.367   0.756  0.00  0.00    -0.152 OA
ATOM     11  O   UNL     1       2.226  -2.123   2.368  0.00  0.00    -0.152 OA
BRANCH   9  14
ATOM     12  S   UNL     1       4.476  -0.787  -0.765  0.00  0.00    -0.066 S 
ATOM     13  N   UNL     1       4.807   2.587   1.143  0.00  0.00    -0.243 NA
ATOM     14  C   UNL     1       3.621  -0.781   0.697  0.00  0.00    +0.153 C 
ATOM     15  C   UNL     1       3.712   0.377   1.390  0.00  0.00    +0.046 C 
ATOM     16  C   UNL     1       4.524   1.330   0.704  0.00  0.00    +0.089 C 
ATOM     17  C   UNL     1       5.014   0.824  -0.501  0.00  0.00    +0.048 C 
ATOM     18  C   UNL     1       5.833   1.620  -1.315  0.00  0.00    +0.010 C 
ATOM     19  C   UNL     1       6.125   2.904  -0.872  0.00  0.00    +0.021 C 
ATOM     20  C   UNL     1       5.597   3.323   0.335  0.00  0.00    +0.099 C 
ENDBRANCH   9  14
ENDBRANCH   7   9
ENDBRANCH   3   7
BRANCH   2  21
ATOM     21  C   UNL     1      -2.759  -1.088  -1.966  0.00  0.00    +0.135 C 
BRANCH  21  24
ATOM     22  N   UNL     1      -4.067   0.880  -1.212  0.00  0.00    -0.313 N 
ATOM     23  N   UNL     1      -6.560   2.535   0.949  0.00  0.00    -0.241 NA
ATOM     24  C   UNL     1      -3.779  -0.437  -1.073  0.00  0.00    +0.046 C 
ATOM     25  C   UNL     1      -4.524  -0.970  -0.071  0.00  0.00    +0.013 C 
ATOM     26  C   UNL     1      -5.329   0.083   0.448  0.00  0.00    +0.017 C 
ATOM     27  C   UNL     1      -5.022   1.230  -0.286  0.00  0.00    +0.068 C 
ATOM     28  C   UNL     1      -6.287   0.174   1.467  0.00  0.00    +0.022 C 
ATOM     29  C   UNL     1      -5.635   2.451  -0.036  0.00  0.00    +0.113 C 
ATOM     30  C   UNL     1      -6.858   1.425   1.661  0.00  0.00    +0.099 C 
ATOM     31  H   UNL     1      -3.658   1.488  -1.869  0.00  0.00    +0.152 HD
ENDBRANCH  21  24
ENDBRANCH   2  21
TORSDOF 5
