REMARK  Name = 24812758
REMARK  9 active torsions:
REMARK  status: ('A' for Active; 'I' for Inactive)
REMARK    1  A    between atoms: C_1  and  C_11
REMARK    2  A    between atoms: C_4  and  C_23
REMARK    3  A    between atoms: C_9  and  O_14
REMARK    4  A    between atoms: C_10  and  O_16
REMARK    5  A    between atoms: C_12  and  O_18
REMARK    6  A    between atoms: C_13  and  C_20
REMARK    7  A    between atoms: C_20  and  O_21
REMARK    8  A    between atoms: C_23  and  C_25
REMARK    9  A    between atoms: C_27  and  C_30
REMARK                            x       y       z     vdW  Elec       q    Type
REMARK                         _______ _______ _______ _____ _____    ______ ____
ROOT
ATOM      1  C   UNL     1      -2.619   1.178   0.574  0.00  0.00    +0.007 C 
ATOM      2  C   UNL     1      -1.603   1.439  -0.345  0.00  0.00    -0.006 C 
ATOM      3  C   UNL     1      -2.916   2.110   1.569  0.00  0.00    -0.002 C 
ATOM      4  C   UNL     1      -0.883   2.631  -0.270  0.00  0.00    -0.021 C 
ATOM      5  C   UNL     1      -1.180   3.563   0.725  0.00  0.00    -0.025 C 
ATOM      6  C   UNL     1      -2.196   3.302   1.644  0.00  0.00    -0.005 C 
ATOM      7  C   UNL     1      -0.424   4.847   0.826  0.00  0.00    +0.031 C 
ENDROOT
BRANCH   1  11
ATOM      8  O   UNL     1      -2.484  -1.194   0.717  0.00  0.00    -0.347 OA
ATOM      9  C   UNL     1      -4.109  -0.278  -0.862  0.00  0.00    +0.171 C 
ATOM     10  C   UNL     1      -4.757  -1.660  -0.983  0.00  0.00    +0.169 C 
ATOM     11  C   UNL     1      -3.401  -0.118   0.492  0.00  0.00    +0.167 C 
ATOM     12  C   UNL     1      -3.779  -2.768  -0.596  0.00  0.00    +0.169 C 
ATOM     13  C   UNL     1      -3.126  -2.469   0.755  0.00  0.00    +0.174 C 
BRANCH   9  14
ATOM     14  O   UNL     1      -5.123   0.721  -0.968  0.00  0.00    -0.379 OA
ATOM     15  H   UNL     1      -5.578   0.631  -1.820  0.00  0.00    +0.211 HD
ENDBRANCH   9  14
BRANCH  10  16
ATOM     16  O   UNL     1      -5.159  -1.879  -2.336  0.00  0.00    -0.379 OA
ATOM     17  H   UNL     1      -5.782  -1.186  -2.605  0.00  0.00    +0.211 HD
ENDBRANCH  10  16
BRANCH  12  18
ATOM     18  O   UNL     1      -4.479  -4.007  -0.515  0.00  0.00    -0.379 OA
ATOM     19  H   UNL     1      -4.894  -4.200  -1.371  0.00  0.00    +0.211 HD
ENDBRANCH  12  18
BRANCH  13  20
ATOM     20  C   UNL     1      -2.065  -3.505   1.112  0.00  0.00    +0.169 C 
BRANCH  20  21
ATOM     21  O   UNL     1      -1.500  -3.159   2.364  0.00  0.00    -0.379 OA
ATOM     22  H   UNL     1      -0.822  -3.810   2.604  0.00  0.00    +0.211 HD
ENDBRANCH  20  21
ENDBRANCH  13  20
ENDBRANCH   1  11
BRANCH   4  23
ATOM     23  C   UNL     1       0.200   2.889  -1.265  0.00  0.00    +0.059 C 
BRANCH  23  25
ATOM     24  S   UNL     1       1.932   0.722  -0.975  0.00  0.00    -0.091 S 
ATOM     25  C   UNL     1       1.562   2.388  -0.831  0.00  0.00    +0.012 C 
ATOM     26  C   UNL     1       2.614   3.108  -0.310  0.00  0.00    +0.003 C 
ATOM     27  C   UNL     1       3.503   0.961  -0.338  0.00  0.00    +0.029 C 
ATOM     28  C   UNL     1       3.739   2.281  -0.024  0.00  0.00    +0.007 C 
BRANCH  27  30
ATOM     29  F   UNL     1       6.888  -3.433   0.206  0.00  0.00    -0.204 F 
ATOM     30  C   UNL     1       4.380  -0.178  -0.197  0.00  0.00    +0.006 C 
ATOM     31  C   UNL     1       5.602  -0.205  -0.870  0.00  0.00    +0.003 C 
ATOM     32  C   UNL     1       4.006  -1.251   0.612  0.00  0.00    +0.003 C 
ATOM     33  C   UNL     1       6.449  -1.304  -0.734  0.00  0.00    +0.030 C 
ATOM     34  C   UNL     1       4.853  -2.350   0.748  0.00  0.00    +0.030 C 
ATOM     35  C   UNL     1       6.075  -2.377   0.075  0.00  0.00    +0.140 C 
ENDBRANCH  27  30
ENDBRANCH  23  25
ENDBRANCH   4  23
TORSDOF 9
