REMARK  Name = 447656
REMARK  5 active torsions:
REMARK  status: ('A' for Active; 'I' for Inactive)
REMARK    1  A    between atoms: N_5  and  C_14
REMARK    2  A    between atoms: C_6  and  O_25
REMARK    3  A    between atoms: C_17  and  C_22
REMARK    4  A    between atoms: O_25  and  C_26
REMARK    5  A    between atoms: C_26  and  C_27
REMARK                            x       y       z     vdW  Elec       q    Type
REMARK                         _______ _______ _______ _____ _____    ______ ____
ROOT
ATOM      1  N   UNL     1      -0.583  -1.138  -0.065  0.00  0.00    -0.293 NA
ATOM      2  N   UNL     1      -4.084  -2.261  -0.135  0.00  0.00    -0.266 NA
ATOM      3  N   UNL     1      -0.860  -3.553   0.144  0.00  0.00    -0.316 NA
ATOM      4  N   UNL     1      -3.178  -4.284   0.097  0.00  0.00    -0.296 N 
ATOM      5  N   UNL     1       1.261  -2.565   0.158  0.00  0.00    -0.238 N 
ATOM      6  C   UNL     1      -1.917  -0.949  -0.149  0.00  0.00    +0.288 C 
ATOM      7  C   UNL     1      -2.734  -2.059  -0.087  0.00  0.00    +0.215 C 
ATOM      8  C   UNL     1      -2.194  -3.330   0.057  0.00  0.00    +0.196 C 
ATOM      9  C   UNL     1      -0.142  -2.411   0.074  0.00  0.00    +0.207 C 
ATOM     10  C   UNL     1      -4.301  -3.608  -0.021  0.00  0.00    +0.164 C 
ATOM     11  H   UNL     1      -4.774  -1.565  -0.233  0.00  0.00    +0.126 HD
ATOM     12  H   UNL     1      -3.069  -5.258   0.192  0.00  0.00    +0.150 HD
ATOM     13  H   UNL     1       1.552  -3.500   0.258  0.00  0.00    +0.166 HD
ENDROOT
BRANCH   5  14
ATOM     14  C   UNL     1       2.322  -1.643   0.126  0.00  0.00    +0.058 C 
ATOM     15  C   UNL     1       2.137  -0.343   0.604  0.00  0.00    +0.015 C 
ATOM     16  C   UNL     1       3.566  -2.022  -0.384  0.00  0.00    +0.015 C 
ATOM     17  C   UNL     1       4.430   0.190   0.063  0.00  0.00    +0.053 C 
ATOM     18  C   UNL     1       3.189   0.572   0.573  0.00  0.00    +0.006 C 
ATOM     19  C   UNL     1       4.619  -1.107  -0.415  0.00  0.00    +0.006 C 
BRANCH  17  22
ATOM     20  O   UNL     1       6.640   0.836  -0.433  0.00  0.00    -0.270 OA
ATOM     21  N   UNL     1       5.287   2.424   0.520  0.00  0.00    -0.325 N 
ATOM     22  C   UNL     1       5.527   1.143   0.031  0.00  0.00    +0.243 C 
ATOM     23  H   UNL     1       6.007   3.096   0.515  0.00  0.00    +0.145 HD
ATOM     24  H   UNL     1       4.398   2.658   0.873  0.00  0.00    +0.145 HD
ENDBRANCH  17  22
ENDBRANCH   5  14
BRANCH   6  25
ATOM     25  O   UNL     1      -2.398   0.330  -0.290  0.00  0.00    -0.453 OA
BRANCH  25  26
ATOM     26  C   UNL     1      -1.443   1.374  -0.339  0.00  0.00    +0.208 C 
BRANCH  26  27
ATOM     27  C   UNL     1      -2.184   2.701  -0.493  0.00  0.00    +0.044 C 
ATOM     28  C   UNL     1      -3.140   2.928   0.686  0.00  0.00    +0.004 C 
ATOM     29  C   UNL     1      -1.192   3.864  -0.623  0.00  0.00    +0.004 C 
ATOM     30  C   UNL     1      -3.854   4.274   0.582  0.00  0.00    +0.000 C 
ATOM     31  C   UNL     1      -1.909   5.208  -0.724  0.00  0.00    +0.000 C 
ATOM     32  C   UNL     1      -2.865   5.426   0.444  0.00  0.00    +0.000 C 
ENDBRANCH  26  27
ENDBRANCH  25  26
ENDBRANCH   6  25
TORSDOF 5
