REMARK  Name = 3082654
REMARK  9 active torsions:
REMARK  status: ('A' for Active; 'I' for Inactive)
REMARK    1  A    between atoms: N_2  and  C_15
REMARK    2  A    between atoms: C_3  and  C_5
REMARK    3  A    between atoms: C_5  and  N_7
REMARK    4  A    between atoms: C_5  and  C_11
REMARK    5  A    between atoms: C_11  and  C_12
REMARK    6  A    between atoms: C_15  and  C_17
REMARK    7  A    between atoms: C_15  and  C_22
REMARK    8  A    between atoms: C_17  and  C_21
REMARK    9  A    between atoms: C_22  and  C_23
REMARK                            x       y       z     vdW  Elec       q    Type
REMARK                         _______ _______ _______ _____ _____    ______ ____
ROOT
ATOM      1  O   UNL     1      -0.590  -0.052  -1.734  0.00  0.00    -0.273 OA
ATOM      2  N   UNL     1      -0.020  -0.664   0.432  0.00  0.00    -0.298 N 
ATOM      3  C   UNL     1      -0.905  -0.294  -0.571  0.00  0.00    +0.241 C 
ATOM      4  H   UNL     1      -0.379  -0.836   1.332  0.00  0.00    +0.150 HD
ENDROOT
BRANCH   3   5
ATOM      5  C   UNL     1      -2.334  -0.162  -0.054  0.00  0.00    +0.149 C 
BRANCH   5   7
ATOM      6  O   UNL     1      -2.216   2.642   0.687  0.00  0.00    -0.275 OA
ATOM      7  N   UNL     1      -2.934   0.950  -0.743  0.00  0.00    -0.298 N 
ATOM      8  C   UNL     1      -2.823   2.264  -0.312  0.00  0.00    +0.223 C 
ATOM      9  C   UNL     1      -3.523   3.231  -1.230  0.00  0.00    +0.095 C 
ATOM     10  H   UNL     1      -3.449   0.770  -1.563  0.00  0.00    +0.150 HD
ENDBRANCH   5   7
BRANCH   5  11
ATOM     11  C   UNL     1      -3.104  -1.470  -0.282  0.00  0.00    +0.029 C 
BRANCH  11  12
ATOM     12  C   UNL     1      -4.581  -1.437   0.161  0.00  0.00    +0.002 C 
ATOM     13  C   UNL     1      -5.309  -2.747  -0.142  0.00  0.00    +0.000 C 
ATOM     14  C   UNL     1      -4.663  -1.136   1.660  0.00  0.00    +0.000 C 
ENDBRANCH  11  12
ENDBRANCH   5  11
ENDBRANCH   3   5
BRANCH   2  15
ATOM     15  C   UNL     1       1.402  -0.810   0.220  0.00  0.00    +0.142 C 
BRANCH  15  17
ATOM     16  O   UNL     1       1.132  -2.950   1.308  0.00  0.00    -0.286 OA
ATOM     17  C   UNL     1       1.726  -2.275   0.468  0.00  0.00    +0.262 C 
BRANCH  17  21
ATOM     18  F   UNL     1       3.309  -1.989  -1.278  0.00  0.00    -0.163 F 
ATOM     19  F   UNL     1       2.324  -3.926  -1.121  0.00  0.00    -0.163 F 
ATOM     20  F   UNL     1       3.836  -3.349   0.341  0.00  0.00    -0.163 F 
ATOM     21  C   UNL     1       2.797  -2.882  -0.395  0.00  0.00    +0.453 C 
ENDBRANCH  17  21
ENDBRANCH  15  17
BRANCH  15  22
ATOM     22  C   UNL     1       2.230   0.077   1.152  0.00  0.00    +0.054 C 
BRANCH  22  23
ATOM     23  C   UNL     1       2.305   1.508   0.678  0.00  0.00    -0.020 C 
ATOM     24  C   UNL     1       3.334   1.906  -0.176  0.00  0.00    -0.004 C 
ATOM     25  C   UNL     1       1.345   2.431   1.092  0.00  0.00    -0.004 C 
ATOM     26  C   UNL     1       3.404   3.228  -0.614  0.00  0.00    -0.000 C 
ATOM     27  C   UNL     1       1.415   3.753   0.653  0.00  0.00    -0.000 C 
ATOM     28  C   UNL     1       2.444   4.152  -0.200  0.00  0.00    -0.000 C 
ENDBRANCH  22  23
ENDBRANCH  15  22
ENDBRANCH   2  15
TORSDOF 9
