REMARK  Name = 151506
REMARK  2 active torsions:
REMARK  status: ('A' for Active; 'I' for Inactive)
REMARK    1  A    between atoms: C_2  and  N_11
REMARK    2  A    between atoms: N_11  and  S_13
REMARK                            x       y       z     vdW  Elec       q    Type
REMARK                         _______ _______ _______ _____ _____    ______ ____
ROOT
ATOM      1  N   UNL     1       0.852   1.510  -0.444  0.00  0.00    -0.247 NA
ATOM      2  C   UNL     1      -0.369  -0.522  -0.534  0.00  0.00    +0.136 C 
ATOM      3  C   UNL     1       0.810   0.174  -0.284  0.00  0.00    +0.075 C 
ATOM      4  C   UNL     1       1.938  -0.561   0.137  0.00  0.00    -0.003 C 
ATOM      5  C   UNL     1      -0.448  -1.908  -0.379  0.00  0.00    -0.007 C 
ATOM      6  C   UNL     1       1.859  -1.955   0.294  0.00  0.00    +0.053 C 
ATOM      7  C   UNL     1       0.667  -2.626   0.036  0.00  0.00    -0.024 C 
ATOM      8  C   UNL     1       3.125   0.140   0.390  0.00  0.00    -0.001 C 
ATOM      9  C   UNL     1       3.172   1.517   0.225  0.00  0.00    +0.020 C 
ATOM     10  C   UNL     1       2.017   2.149  -0.190  0.00  0.00    +0.098 C 
ENDROOT
BRANCH   2  11
ATOM     11  N   UNL     1      -1.544   0.178  -0.963  0.00  0.00    -0.175 NA
ATOM     12  H   UNL     1      -1.600   0.569  -1.865  0.00  0.00    +0.149 HD
BRANCH  11  13
ATOM     13  S   UNL     1      -2.852   0.314   0.144  0.00  0.00    +0.043 S 
ATOM     14  O   UNL     1      -4.005   0.824  -0.575  0.00  0.00    -0.157 OA
ATOM     15  O   UNL     1      -2.963  -0.873   0.969  0.00  0.00    -0.157 OA
ATOM     16  C   UNL     1      -2.259   1.639   1.173  0.00  0.00    +0.196 C 
ENDBRANCH  11  13
ENDBRANCH   2  11
TORSDOF 2
