REMARK  Name = 656970
REMARK  5 active torsions:
REMARK  status: ('A' for Active; 'I' for Inactive)
REMARK    1  A    between atoms: C_5  and  C_14
REMARK    2  A    between atoms: C_14  and  N_15
REMARK    3  A    between atoms: C_16  and  C_23
REMARK    4  A    between atoms: C_17  and  O_21
REMARK    5  A    between atoms: C_23  and  S_24
REMARK                            x       y       z     vdW  Elec       q    Type
REMARK                         _______ _______ _______ _____ _____    ______ ____
ROOT
ATOM      1  N   UNL     1      -2.895   1.540   0.772  0.00  0.00    -0.323 N 
ATOM      2  N   UNL     1      -2.166  -1.785  -0.134  0.00  0.00    -0.247 NA
ATOM      3  N   UNL     1      -4.425  -1.345  -0.927  0.00  0.00    -0.232 NA
ATOM      4  N   UNL     1      -5.496   0.771  -0.605  0.00  0.00    -0.345 N 
ATOM      5  C   UNL     1      -1.156   0.199   1.017  0.00  0.00    -0.014 C 
ATOM      6  C   UNL     1      -2.156  -0.513   0.335  0.00  0.00    +0.076 C 
ATOM      7  C   UNL     1      -1.623   1.457   1.279  0.00  0.00    +0.053 C 
ATOM      8  C   UNL     1      -3.241   0.347   0.191  0.00  0.00    +0.163 C 
ATOM      9  C   UNL     1      -4.390  -0.081  -0.451  0.00  0.00    +0.123 C 
ATOM     10  C   UNL     1      -3.325  -2.109  -0.742  0.00  0.00    +0.251 C 
ATOM     11  H   UNL     1      -3.473   2.336   0.820  0.00  0.00    +0.148 HD
ATOM     12  H   UNL     1      -6.305   0.450  -1.064  0.00  0.00    +0.143 HD
ATOM     13  H   UNL     1      -5.462   1.691  -0.254  0.00  0.00    +0.143 HD
ENDROOT
BRANCH   5  14
ATOM     14  C   UNL     1       0.193  -0.322   1.395  0.00  0.00    -0.047 C 
BRANCH  14  15
ATOM     15  N   UNL     1       1.131  -0.052   0.317  0.00  0.00    +0.391 N 
ATOM     16  C   UNL     1       3.277   0.119  -0.509  0.00  0.00    +0.015 C 
ATOM     17  C   UNL     1       2.646   1.509  -0.627  0.00  0.00    +0.089 C 
ATOM     18  C   UNL     1       2.481  -0.534   0.613  0.00  0.00    -0.073 C 
ATOM     19  C   UNL     1       1.273   1.383   0.039  0.00  0.00    -0.047 C 
ATOM     20  H   UNL     1       0.734  -0.542  -0.484  0.00  0.00    -0.079 HD
BRANCH  17  21
ATOM     21  O   UNL     1       2.520   1.859  -1.997  0.00  0.00    -0.387 OA
ATOM     22  H   UNL     1       3.401   1.932  -2.394  0.00  0.00    +0.210 HD
ENDBRANCH  17  21
BRANCH  16  23
ATOM     23  C   UNL     1       4.771   0.162  -0.227  0.00  0.00    +0.058 C 
BRANCH  23  24
ATOM     24  S   UNL     1       5.425  -1.515  -0.024  0.00  0.00    -0.139 S 
ATOM     25  C   UNL     1       7.155  -1.091   0.285  0.00  0.00    +0.069 C 
ENDBRANCH  23  24
ENDBRANCH  16  23
ENDBRANCH  14  15
ENDBRANCH   5  14
TORSDOF 5
