REMARK  Name = 44129629
REMARK  3 active torsions:
REMARK  status: ('A' for Active; 'I' for Inactive)
REMARK    1  A    between atoms: C_6  and  C_16
REMARK    2  A    between atoms: C_9  and  S_21
REMARK    3  A    between atoms: S_21  and  N_24
REMARK                            x       y       z     vdW  Elec       q    Type
REMARK                         _______ _______ _______ _____ _____    ______ ____
ROOT
ATOM      1  S   UNL     1       2.026   1.787  -1.156  0.00  0.00    +0.063 S 
ATOM      2  O   UNL     1       1.896   3.202  -0.870  0.00  0.00    -0.153 OA
ATOM      3  O   UNL     1       1.839   1.259  -2.492  0.00  0.00    -0.153 OA
ATOM      4  N   UNL     1       3.520   1.246  -0.526  0.00  0.00    -0.163 NA
ATOM      5  N   UNL     1       2.608  -0.723   0.571  0.00  0.00    -0.320 N 
ATOM      6  C   UNL     1       3.621  -0.220  -0.338  0.00  0.00    +0.147 C 
ATOM      7  C   UNL     1       1.317  -0.215   0.601  0.00  0.00    +0.064 C 
ATOM      8  C   UNL     1       0.897   0.916  -0.115  0.00  0.00    +0.136 C 
ATOM      9  C   UNL     1      -1.327   0.776   0.801  0.00  0.00    +0.120 C 
ATOM     10  C   UNL     1      -0.406   1.414  -0.025  0.00  0.00    +0.041 C 
ATOM     11  C   UNL     1       0.368  -0.828   1.435  0.00  0.00    +0.013 C 
ATOM     12  C   UNL     1      -0.940  -0.343   1.532  0.00  0.00    -0.002 C 
ATOM     13  C   UNL     1      -1.899  -1.050   2.434  0.00  0.00    +0.032 C 
ATOM     14  H   UNL     1       3.663   1.692   0.379  0.00  0.00    +0.151 HD
ATOM     15  H   UNL     1       2.845  -1.451   1.189  0.00  0.00    +0.148 HD
ENDROOT
BRANCH   6  16
ATOM     16  C   UNL     1       5.000  -0.543   0.209  0.00  0.00    +0.035 C 
ATOM     17  C   UNL     1       5.237  -2.039   0.398  0.00  0.00    +0.003 C 
ATOM     18  C   UNL     1       6.130  -0.152  -0.739  0.00  0.00    +0.003 C 
ATOM     19  C   UNL     1       6.754  -2.165   0.493  0.00  0.00    +0.000 C 
ATOM     20  C   UNL     1       7.329  -0.945  -0.228  0.00  0.00    +0.000 C 
ENDBRANCH   6  16
BRANCH   9  21
ATOM     21  S   UNL     1      -2.954   1.410   0.901  0.00  0.00    +0.063 S 
ATOM     22  O   UNL     1      -3.306   1.544   2.307  0.00  0.00    -0.153 OA
ATOM     23  O   UNL     1      -3.054   2.560   0.016  0.00  0.00    -0.153 OA
BRANCH  21  24
ATOM     24  N   UNL     1      -3.848   0.115   0.226  0.00  0.00    -0.160 NA
ATOM     25  N   UNL     1      -5.619  -1.488  -1.375  0.00  0.00    +0.387 N 
ATOM     26  C   UNL     1      -3.495  -0.246  -1.176  0.00  0.00    +0.073 C 
ATOM     27  C   UNL     1      -5.324   0.188   0.414  0.00  0.00    +0.073 C 
ATOM     28  C   UNL     1      -4.162  -1.570  -1.546  0.00  0.00    -0.058 C 
ATOM     29  C   UNL     1      -5.956  -1.145   0.014  0.00  0.00    -0.058 C 
ATOM     30  C   UNL     1      -6.254  -2.746  -1.763  0.00  0.00    -0.101 C 
ATOM     31  H   UNL     1      -5.973  -0.749  -1.984  0.00  0.00    -0.080 HD
ENDBRANCH  21  24
ENDBRANCH   9  21
TORSDOF 3
