REMARK  Name = 24883488
REMARK  8 active torsions:
REMARK  status: ('A' for Active; 'I' for Inactive)
REMARK    1  A    between atoms: N_2  and  C_11
REMARK    2  A    between atoms: C_3  and  C_19
REMARK    3  A    between atoms: C_19  and  C_20
REMARK    4  A    between atoms: C_20  and  C_23
REMARK    5  A    between atoms: N_22  and  C_25
REMARK    6  A    between atoms: C_27  and  O_31
REMARK    7  A    between atoms: O_31  and  C_32
REMARK    8  A    between atoms: C_32  and  C_34
REMARK                            x       y       z     vdW  Elec       q    Type
REMARK                         _______ _______ _______ _____ _____    ______ ____
ROOT
ATOM      1  O   UNL     1       2.544  -2.679   2.163  0.00  0.00    -0.275 OA
ATOM      2  N   UNL     1       1.728  -2.201   0.007  0.00  0.00    -0.284 N 
ATOM      3  C   UNL     1       2.700  -2.549   0.953  0.00  0.00    +0.227 C 
ATOM      4  H   UNL     1       2.043  -2.118  -0.922  0.00  0.00    +0.155 HD
ENDROOT
BRANCH   2  11
ATOM      5  O   UNL     1      -2.252  -0.932  -2.934  0.00  0.00    -0.282 OA
ATOM      6  O   UNL     1      -4.262  -1.299   1.996  0.00  0.00    -0.270 OA
ATOM      7  O   UNL     1      -4.831  -0.473  -2.516  0.00  0.00    -0.266 OA
ATOM      8  N   UNL     1      -4.552  -0.885  -0.248  0.00  0.00    -0.246 N 
ATOM      9  C   UNL     1      -1.811  -1.378  -0.654  0.00  0.00    +0.049 C 
ATOM     10  C   UNL     1      -2.353  -1.470   0.628  0.00  0.00    +0.057 C 
ATOM     11  C   UNL     1       0.370  -1.956   0.213  0.00  0.00    +0.050 C 
ATOM     12  C   UNL     1      -0.449  -1.620  -0.865  0.00  0.00    +0.018 C 
ATOM     13  C   UNL     1      -1.526  -1.807   1.706  0.00  0.00    +0.006 C 
ATOM     14  C   UNL     1      -0.167  -2.050   1.496  0.00  0.00    +0.015 C 
ATOM     15  C   UNL     1      -2.671  -1.025  -1.791  0.00  0.00    +0.249 C 
ATOM     16  C   UNL     1      -3.789  -1.216   0.866  0.00  0.00    +0.252 C 
ATOM     17  C   UNL     1      -4.129  -0.765  -1.559  0.00  0.00    +0.291 C 
ATOM     18  H   UNL     1      -5.508  -0.717  -0.084  0.00  0.00    +0.158 HD
ENDBRANCH   2  11
BRANCH   3  19
ATOM     19  C   UNL     1       4.074  -2.731   0.329  0.00  0.00    +0.095 C 
BRANCH  19  20
ATOM     20  C   UNL     1       4.856  -1.420   0.319  0.00  0.00    +0.095 C 
BRANCH  20  23
ATOM     21  O   UNL     1       4.435  -0.305  -1.753  0.00  0.00    -0.275 OA
ATOM     22  N   UNL     1       3.270   0.387   0.167  0.00  0.00    -0.284 N 
ATOM     23  C   UNL     1       4.178  -0.378  -0.555  0.00  0.00    +0.227 C 
ATOM     24  H   UNL     1       3.181   0.167   1.123  0.00  0.00    +0.155 HD
BRANCH  22  25
ATOM     25  C   UNL     1       2.459   1.443  -0.307  0.00  0.00    +0.053 C 
ATOM     26  C   UNL     1       1.597   2.107   0.566  0.00  0.00    +0.052 C 
ATOM     27  C   UNL     1       0.796   3.149   0.098  0.00  0.00    +0.140 C 
ATOM     28  C   UNL     1       2.520   1.821  -1.648  0.00  0.00    +0.015 C 
ATOM     29  C   UNL     1       0.858   3.527  -1.244  0.00  0.00    +0.037 C 
ATOM     30  C   UNL     1       1.720   2.863  -2.117  0.00  0.00    +0.004 C 
BRANCH  27  31
ATOM     31  O   UNL     1      -0.045   3.797   0.949  0.00  0.00    -0.472 OA
BRANCH  31  32
ATOM     32  C   UNL     1      -0.570   3.044   2.041  0.00  0.00    +0.243 C 
BRANCH  32  34
ATOM     33  F   UNL     1      -2.755   3.423   1.307  0.00  0.00    -0.230 F 
ATOM     34  C   UNL     1      -1.941   3.579   2.388  0.00  0.00    +0.240 C 
ENDBRANCH  32  34
ENDBRANCH  31  32
ENDBRANCH  27  31
ENDBRANCH  22  25
ENDBRANCH  20  23
ENDBRANCH  19  20
ENDBRANCH   3  19
TORSDOF 8
