REMARK  Name = 5326866
REMARK  5 active torsions:
REMARK  status: ('A' for Active; 'I' for Inactive)
REMARK    1  A    between atoms: N_5  and  C_14
REMARK    2  A    between atoms: C_6  and  C_28
REMARK    3  A    between atoms: C_15  and  C_20
REMARK    4  A    between atoms: C_20  and  O_21
REMARK    5  A    between atoms: O_21  and  C_23
REMARK                            x       y       z     vdW  Elec       q    Type
REMARK                         _______ _______ _______ _____ _____    ______ ____
ROOT
ATOM      1  O   UNL     1      -2.181  -1.985   0.365  0.00  0.00    -0.252 OA
ATOM      2  N   UNL     1      -6.166  -0.614   0.375  0.00  0.00    -0.239 N 
ATOM      3  N   UNL     1      -4.876  -0.992   0.353  0.00  0.00    -0.166 NA
ATOM      4  N   UNL     1      -2.871   0.184  -0.193  0.00  0.00    -0.252 N 
ATOM      5  N   UNL     1      -0.628  -0.354  -0.262  0.00  0.00    -0.268 N 
ATOM      6  C   UNL     1      -6.295   0.656   0.019  0.00  0.00    +0.045 C 
ATOM      7  C   UNL     1      -5.119   1.196  -0.258  0.00  0.00    +0.048 C 
ATOM      8  C   UNL     1      -4.241   0.117  -0.035  0.00  0.00    +0.154 C 
ATOM      9  C   UNL     1      -1.917  -0.842   0.008  0.00  0.00    +0.309 C 
ATOM     10  H   UNL     1      -6.915  -1.203   0.623  0.00  0.00    +0.174 HD
ATOM     11  H   UNL     1      -2.513   1.055  -0.481  0.00  0.00    +0.158 HD
ATOM     12  H   UNL     1      -0.573   0.589  -0.540  0.00  0.00    +0.156 HD
ENDROOT
BRANCH   5  14
ATOM     13 CL   UNL     1       4.487  -3.298   0.072  0.00  0.00    -0.082 Cl
ATOM     14  C   UNL     1       0.601  -1.050  -0.184  0.00  0.00    +0.051 C 
ATOM     15  C   UNL     1       2.989  -1.075  -0.417  0.00  0.00    +0.033 C 
ATOM     16  C   UNL     1       1.777  -0.387  -0.493  0.00  0.00    +0.015 C 
ATOM     17  C   UNL     1       0.602  -2.382   0.197  0.00  0.00    +0.016 C 
ATOM     18  C   UNL     1       3.007  -2.416  -0.034  0.00  0.00    +0.057 C 
ATOM     19  C   UNL     1       1.813  -3.069   0.273  0.00  0.00    +0.012 C 
BRANCH  15  20
ATOM     20  C   UNL     1       4.245  -0.338  -0.754  0.00  0.00    +0.233 C 
BRANCH  20  21
ATOM     21  O   UNL     1       4.768   0.261   0.424  0.00  0.00    -0.469 OA
BRANCH  21  23
ATOM     22  N   UNL     1       7.627   1.876  -1.158  0.00  0.00    -0.239 NA
ATOM     23  C   UNL     1       5.908   1.008   0.283  0.00  0.00    +0.158 C 
ATOM     24  C   UNL     1       6.482   1.625   1.380  0.00  0.00    +0.040 C 
ATOM     25  C   UNL     1       6.502   1.155  -0.951  0.00  0.00    +0.136 C 
ATOM     26  C   UNL     1       7.640   2.375   1.208  0.00  0.00    +0.024 C 
ATOM     27  C   UNL     1       8.168   2.469  -0.070  0.00  0.00    +0.099 C 
ENDBRANCH  21  23
ENDBRANCH  20  21
ENDBRANCH  15  20
ENDBRANCH   5  14
BRANCH   6  28
ATOM     28  C   UNL     1      -7.705   1.293  -0.024  0.00  0.00    +0.033 C 
ATOM     29  C   UNL     1      -8.014   1.788  -1.453  0.00  0.00    +0.006 C 
ATOM     30  C   UNL     1      -7.773   2.484   0.957  0.00  0.00    +0.006 C 
ATOM     31  C   UNL     1      -8.831   0.313   0.372  0.00  0.00    +0.006 C 
ENDBRANCH   6  28
TORSDOF 5
