REMARK  Name = 9926933
REMARK  4 active torsions:
REMARK  status: ('A' for Active; 'I' for Inactive)
REMARK    1  A    between atoms: N_2  and  C_15
REMARK    2  A    between atoms: C_3  and  C_9
REMARK    3  A    between atoms: C_16  and  S_21
REMARK    4  A    between atoms: S_21  and  N_24
REMARK                            x       y       z     vdW  Elec       q    Type
REMARK                         _______ _______ _______ _____ _____    ______ ____
ROOT
ATOM      1  O   UNL     1       0.945  -1.382  -0.040  0.00  0.00    -0.268 OA
ATOM      2  N   UNL     1       0.008   0.769  -0.044  0.00  0.00    -0.279 N 
ATOM      3  C   UNL     1       1.086  -0.140  -0.040  0.00  0.00    +0.269 C 
ATOM      4  H   UNL     1       0.258   1.721  -0.044  0.00  0.00    +0.155 HD
ENDROOT
BRANCH   3   9
ATOM      5  N   UNL     1       3.880   1.923   0.041  0.00  0.00    -0.276 N 
ATOM      6  N   UNL     1       2.547   1.755   0.015  0.00  0.00    -0.168 NA
ATOM      7  C   UNL     1       3.639  -0.256  -0.001  0.00  0.00    +0.041 A 
ATOM      8  C   UNL     1       4.593   0.755   0.033  0.00  0.00    +0.075 A 
ATOM      9  C   UNL     1       2.405   0.428  -0.010  0.00  0.00    +0.155 A 
ATOM     10  C   UNL     1       4.058  -1.597  -0.016  0.00  0.00    +0.003 C 
ATOM     11  C   UNL     1       5.967   0.505   0.053  0.00  0.00    +0.019 C 
ATOM     12  C   UNL     1       5.431  -1.869   0.003  0.00  0.00    +0.000 C 
ATOM     13  C   UNL     1       6.368  -0.835   0.036  0.00  0.00    +0.002 C 
ATOM     14  H   UNL     1       4.307   2.810   0.064  0.00  0.00    +0.189 HD
ENDBRANCH   3   9
BRANCH   2  15
ATOM     15  C   UNL     1      -1.384   0.506  -0.048  0.00  0.00    +0.051 C 
ATOM     16  C   UNL     1      -4.104  -0.008  -0.057  0.00  0.00    +0.122 C 
ATOM     17  C   UNL     1      -1.823  -0.806  -0.049  0.00  0.00    +0.016 C 
ATOM     18  C   UNL     1      -2.272   1.567  -0.052  0.00  0.00    +0.016 C 
ATOM     19  C   UNL     1      -3.194  -1.065  -0.053  0.00  0.00    +0.021 C 
ATOM     20  C   UNL     1      -3.643   1.308  -0.056  0.00  0.00    +0.021 C 
BRANCH  16  21
ATOM     21  S   UNL     1      -5.819  -0.332  -0.064  0.00  0.00    +0.057 S 
ATOM     22  O   UNL     1      -6.503   0.820  -0.634  0.00  0.00    -0.153 OA
ATOM     23  O   UNL     1      -6.038  -1.656  -0.629  0.00  0.00    -0.153 OA
BRANCH  21  24
ATOM     24  N   UNL     1      -6.146  -0.392   1.613  0.00  0.00    -0.203 NA
ATOM     25  H   UNL     1      -7.138  -0.579   1.759  0.00  0.00    +0.144 HD
ATOM     26  H   UNL     1      -5.902   0.502   2.039  0.00  0.00    +0.144 HD
ENDBRANCH  21  24
ENDBRANCH  16  21
ENDBRANCH   2  15
TORSDOF 4
