REMARK  Name = 441161
REMARK  4 active torsions:
REMARK  status: ('A' for Active; 'I' for Inactive)
REMARK    1  A    between atoms: C_1  and  C_7
REMARK    2  A    between atoms: C_2  and  S_15
REMARK    3  A    between atoms: C_8  and  O_13
REMARK    4  A    between atoms: S_15  and  O_17
REMARK                            x       y       z     vdW  Elec       q    Type
REMARK                         _______ _______ _______ _____ _____    ______ ____
ROOT
ATOM      1  C   UNL     1       0.448  -0.695   0.154  0.00  0.00    +0.020 C 
ATOM      2  C   UNL     1       1.417   0.310   0.166  0.00  0.00    +0.100 C 
ATOM      3  C   UNL     1       0.836  -2.034   0.087  0.00  0.00    +0.001 C 
ATOM      4  C   UNL     1       2.770  -0.024   0.111  0.00  0.00    +0.018 C 
ATOM      5  C   UNL     1       2.189  -2.368   0.032  0.00  0.00    +0.000 C 
ATOM      6  C   UNL     1       3.156  -1.363   0.043  0.00  0.00    +0.001 C 
ENDROOT
BRANCH   1   7
ATOM      7  C   UNL     1      -0.969  -0.395   0.210  0.00  0.00    +0.035 C 
ATOM      8  C   UNL     1      -1.704  -0.196  -0.959  0.00  0.00    +0.134 C 
ATOM      9  C   UNL     1      -1.596  -0.305   1.452  0.00  0.00    +0.003 C 
ATOM     10  C   UNL     1      -3.066   0.094  -0.884  0.00  0.00    +0.037 C 
ATOM     11  C   UNL     1      -2.958  -0.016   1.527  0.00  0.00    +0.000 C 
ATOM     12  C   UNL     1      -3.693   0.184   0.358  0.00  0.00    +0.003 C 
BRANCH   8  13
ATOM     13  O   UNL     1      -1.116  -0.276  -2.186  0.00  0.00    -0.506 OA
ATOM     14  H   UNL     1      -0.202  -0.470  -2.256  0.00  0.00    +0.292 HD
ENDBRANCH   8  13
ENDBRANCH   1   7
BRANCH   2  15
ATOM     15  S   UNL     1       0.980   2.057   0.252  0.00  0.00    -0.031 S 
ATOM     16  O   UNL     1       2.105   2.748   0.965  0.00  0.00    -0.076 OA
BRANCH  15  17
ATOM     17  O   UNL     1       1.201   2.279  -1.327  0.00  0.00    -0.274 OA
ATOM     18  H   UNL     1       1.016   3.205  -1.552  0.00  0.00    +0.242 HD
ENDBRANCH  15  17
ENDBRANCH   2  15
TORSDOF 4
