REMARK  Name = 24801862
REMARK  2 active torsions:
REMARK  status: ('A' for Active; 'I' for Inactive)
REMARK    1  A    between atoms: N_1  and  C_18
REMARK    2  A    between atoms: C_6  and  C_11
REMARK                            x       y       z     vdW  Elec       q    Type
REMARK                         _______ _______ _______ _____ _____    ______ ____
ROOT
ATOM      1  N   UNL     1      -2.517  -1.006   0.260  0.00  0.00    -0.243 N 
ATOM      2  N   UNL     1      -0.215  -0.933  -0.125  0.00  0.00    -0.336 NA
ATOM      3  N   UNL     1      -1.288  -2.959   0.619  0.00  0.00    -0.170 NA
ATOM      4  C   UNL     1      -3.733  -1.723   0.640  0.00  0.00    +0.124 C 
ATOM      5  C   UNL     1      -1.282  -1.664   0.250  0.00  0.00    +0.148 C 
ATOM      6  C   UNL     1       0.959  -1.598  -0.122  0.00  0.00    +0.161 C 
ATOM      7  C   UNL     1      -0.081  -3.562   0.599  0.00  0.00    +0.114 C 
ATOM      8  C   UNL     1       1.088  -2.925   0.234  0.00  0.00    +0.056 C 
ENDROOT
BRANCH   6  11
ATOM      9  N   UNL     1       2.531   0.323   0.106  0.00  0.00    -0.246 N 
ATOM     10  N   UNL     1       3.924  -0.020  -1.610  0.00  0.00    -0.227 NA
ATOM     11  C   UNL     1       2.096  -0.815  -0.525  0.00  0.00    +0.107 C 
ATOM     12  C   UNL     1       3.648   0.770  -0.593  0.00  0.00    +0.139 C 
ATOM     13  C   UNL     1       2.967  -1.003  -1.573  0.00  0.00    +0.118 C 
ATOM     14  C   UNL     1       2.014   0.966   1.227  0.00  0.00    +0.071 C 
ATOM     15  C   UNL     1       4.280   1.956  -0.114  0.00  0.00    +0.035 C 
ATOM     16  C   UNL     1       2.615   2.082   1.672  0.00  0.00    +0.017 C 
ATOM     17  C   UNL     1       3.785   2.584   0.970  0.00  0.00    +0.004 C 
ENDBRANCH   6  11
BRANCH   1  18
ATOM     18  C   UNL     1      -2.629   0.386  -0.118  0.00  0.00    +0.084 C 
ATOM     19  C   UNL     1      -3.549   0.519  -1.334  0.00  0.00    +0.021 C 
ATOM     20  C   UNL     1      -3.156   1.194   1.070  0.00  0.00    +0.021 C 
ATOM     21  C   UNL     1      -3.775   1.982  -1.707  0.00  0.00    +0.002 C 
ATOM     22  C   UNL     1      -3.385   2.656   0.695  0.00  0.00    +0.002 C 
ATOM     23  C   UNL     1      -4.297   2.789  -0.521  0.00  0.00    +0.000 C 
ENDBRANCH   1  18
TORSDOF 2
