REMARK  Name = 9543496
REMARK  7 active torsions:
REMARK  status: ('A' for Active; 'I' for Inactive)
REMARK    1  A    between atoms: C_2  and  N_18
REMARK    2  A    between atoms: C_3  and  C_7
REMARK    3  A    between atoms: C_5  and  C_15
REMARK    4  A    between atoms: C_9  and  C_12
REMARK    5  A    between atoms: C_15  and  O_16
REMARK    6  A    between atoms: N_18  and  S_20
REMARK    7  A    between atoms: S_20  and  C_23
REMARK                            x       y       z     vdW  Elec       q    Type
REMARK                         _______ _______ _______ _____ _____    ______ ____
ROOT
ATOM      1  S   UNL     1       1.160   3.072   0.636  0.00  0.00    -0.079 S 
ATOM      2  C   UNL     1      -0.904   1.714  -0.036  0.00  0.00    +0.078 C 
ATOM      3  C   UNL     1       1.397   1.471   0.079  0.00  0.00    +0.037 C 
ATOM      4  C   UNL     1       0.208   0.856  -0.247  0.00  0.00    +0.024 C 
ATOM      5  C   UNL     1      -0.537   2.947   0.442  0.00  0.00    +0.120 C 
ENDROOT
BRANCH   3   7
ATOM      6  S   UNL     1       2.953  -0.763   0.193  0.00  0.00    -0.084 S 
ATOM      7  C   UNL     1       2.701   0.918  -0.006  0.00  0.00    +0.036 C 
ATOM      8  C   UNL     1       3.878   1.593  -0.245  0.00  0.00    +0.008 C 
ATOM      9  C   UNL     1       4.641  -0.593  -0.039  0.00  0.00    +0.064 C 
ATOM     10  C   UNL     1       5.002   0.718  -0.263  0.00  0.00    +0.010 C 
BRANCH   9  12
ATOM     11  O   UNL     1       5.053  -2.918   0.231  0.00  0.00    -0.291 OA
ATOM     12  C   UNL     1       5.471  -1.752   0.018  0.00  0.00    +0.179 C 
ATOM     13  C   UNL     1       6.984  -1.620  -0.187  0.00  0.00    +0.078 C 
ENDBRANCH   9  12
ENDBRANCH   3   7
BRANCH   5  15
ATOM     14  O   UNL     1      -0.970   5.176   1.208  0.00  0.00    -0.244 OA
ATOM     15  C   UNL     1      -1.350   4.072   0.777  0.00  0.00    +0.345 C 
BRANCH  15  16
ATOM     16  O   UNL     1      -2.688   3.845   0.578  0.00  0.00    -0.477 OA
ATOM     17  H   UNL     1      -2.979   3.015   0.253  0.00  0.00    +0.295 HD
ENDBRANCH  15  16
ENDBRANCH   5  15
BRANCH   2  18
ATOM     18  N   UNL     1      -2.234   1.308  -0.298  0.00  0.00    -0.214 N 
ATOM     19  H   UNL     1      -2.948   1.707   0.249  0.00  0.00    +0.174 HD
BRANCH  18  20
ATOM     20  S   UNL     1      -2.696   0.178  -1.491  0.00  0.00    +0.073 S 
ATOM     21  O   UNL     1      -1.672   0.129  -2.526  0.00  0.00    -0.150 OA
ATOM     22  O   UNL     1      -4.085   0.414  -1.863  0.00  0.00    -0.150 OA
BRANCH  20  23
ATOM     23  C   UNL     1      -2.626  -1.319  -0.587  0.00  0.00    +0.121 C 
ATOM     24  C   UNL     1      -3.555  -1.602   0.414  0.00  0.00    -0.003 C 
ATOM     25  C   UNL     1      -1.618  -2.236  -0.883  0.00  0.00    +0.020 C 
ATOM     26  C   UNL     1      -3.476  -2.803   1.119  0.00  0.00    -0.007 C 
ATOM     27  C   UNL     1      -2.468  -3.721   0.823  0.00  0.00    -0.022 C 
ATOM     28  C   UNL     1      -1.539  -3.437  -0.178  0.00  0.00    -0.003 C 
ATOM     29  C   UNL     1      -4.647  -0.642   0.754  0.00  0.00    +0.032 C 
ATOM     30  C   UNL     1      -2.382  -5.005   1.577  0.00  0.00    +0.031 C 
ENDBRANCH  20  23
ENDBRANCH  18  20
ENDBRANCH   2  18
TORSDOF 7
