REMARK  Name = 21066087
REMARK  4 active torsions:
REMARK  status: ('A' for Active; 'I' for Inactive)
REMARK    1  A    between atoms: C_4  and  N_18
REMARK    2  A    between atoms: C_5  and  C_12
REMARK    3  A    between atoms: N_18  and  C_20
REMARK    4  A    between atoms: C_20  and  C_22
REMARK                            x       y       z     vdW  Elec       q    Type
REMARK                         _______ _______ _______ _____ _____    ______ ____
ROOT
ATOM      1  N   UNL     1      -0.407  -2.044  -0.140  0.00  0.00    -0.152 N 
ATOM      2  N   UNL     1       1.968  -1.682  -0.311  0.00  0.00    -0.389 NA
ATOM      3  N   UNL     1      -1.298  -3.073  -0.070  0.00  0.00    -0.174 NA
ATOM      4  C   UNL     1      -0.682  -0.667  -0.132  0.00  0.00    +0.126 C 
ATOM      5  C   UNL     1       1.715  -0.405  -0.289  0.00  0.00    +0.136 C 
ATOM      6  C   UNL     1       0.901  -2.522  -0.232  0.00  0.00    +0.190 C 
ATOM      7  C   UNL     1       0.346   0.194  -0.208  0.00  0.00    +0.064 C 
ATOM      8  C   UNL     1       0.818  -3.896  -0.221  0.00  0.00    +0.125 C 
ATOM      9  C   UNL     1      -0.550  -4.173  -0.120  0.00  0.00    +0.101 C 
ENDROOT
BRANCH   5  12
ATOM     10 CL   UNL     1       3.808  -0.519   1.927  0.00  0.00    -0.081 Cl
ATOM     11 CL   UNL     1       6.196   1.605   1.618  0.00  0.00    -0.081 Cl
ATOM     12  C   UNL     1       2.851   0.551  -0.368  0.00  0.00    +0.041 C 
ATOM     13  C   UNL     1       3.864   0.587   0.590  0.00  0.00    +0.071 C 
ATOM     14  C   UNL     1       2.882   1.432  -1.449  0.00  0.00    +0.003 C 
ATOM     15  C   UNL     1       4.908   1.505   0.468  0.00  0.00    +0.068 C 
ATOM     16  C   UNL     1       3.925   2.350  -1.571  0.00  0.00    +0.001 C 
ATOM     17  C   UNL     1       4.938   2.386  -0.613  0.00  0.00    +0.012 C 
ENDBRANCH   5  12
BRANCH   4  18
ATOM     18  N   UNL     1      -1.992  -0.286  -0.055  0.00  0.00    -0.316 N 
ATOM     19  H   UNL     1      -2.680  -0.988  -0.002  0.00  0.00    +0.148 HD
BRANCH  18  20
ATOM     20  C   UNL     1      -2.416   1.089  -0.046  0.00  0.00    +0.115 C 
BRANCH  20  22
ATOM     21  N   UNL     1      -6.691   1.346   0.324  0.00  0.00    -0.242 NA
ATOM     22  C   UNL     1      -3.911   1.179   0.084  0.00  0.00    +0.000 C 
ATOM     23  C   UNL     1      -4.500   1.245   1.341  0.00  0.00    +0.018 C 
ATOM     24  C   UNL     1      -4.710   1.196  -1.054  0.00  0.00    +0.018 C 
ATOM     25  C   UNL     1      -5.881   1.327   1.407  0.00  0.00    +0.099 C 
ATOM     26  C   UNL     1      -6.082   1.280  -0.881  0.00  0.00    +0.099 C 
ENDBRANCH  20  22
ENDBRANCH  18  20
ENDBRANCH   4  18
TORSDOF 4
