REMARK  Name = 64988
REMARK  7 active torsions:
REMARK  status: ('A' for Active; 'I' for Inactive)
REMARK    1  A    between atoms: N_1  and  C_16
REMARK    2  A    between atoms: C_16  and  C_17
REMARK    3  A    between atoms: C_17  and  O_18
REMARK    4  A    between atoms: O_18  and  C_19
REMARK    5  A    between atoms: C_19  and  P_20
REMARK    6  A    between atoms: P_20  and  O_22
REMARK    7  A    between atoms: P_20  and  O_24
REMARK                            x       y       z     vdW  Elec       q    Type
REMARK                         _______ _______ _______ _____ _____    ______ ____
ROOT
ATOM      1  N   UNL     1       0.944   1.757   0.452  0.00  0.00    -0.258 N 
ATOM      2  N   UNL     1       2.576   1.564  -1.029  0.00  0.00    -0.240 NA
ATOM      3  N   UNL     1       0.751  -0.543   1.199  0.00  0.00    -0.311 NA
ATOM      4  N   UNL     1       2.361  -1.969   0.045  0.00  0.00    -0.312 NA
ATOM      5  N   UNL     1       0.884  -2.837   1.643  0.00  0.00    -0.283 N 
ATOM      6  C   UNL     1       1.280   0.444   0.461  0.00  0.00    +0.220 C 
ATOM      7  C   UNL     1       2.302   0.341  -0.470  0.00  0.00    +0.167 C 
ATOM      8  C   UNL     1       1.736   2.396  -0.449  0.00  0.00    +0.222 C 
ATOM      9  C   UNL     1       2.847  -0.924  -0.667  0.00  0.00    +0.212 C 
ATOM     10  C   UNL     1       1.358  -1.718   0.920  0.00  0.00    +0.199 C 
ATOM     11  H   UNL     1       0.156  -2.728   2.297  0.00  0.00    +0.156 HD
ATOM     12  H   UNL     1       1.282  -3.724   1.492  0.00  0.00    +0.156 HD
ATOM     13  N   UNL     1       3.888  -1.121  -1.591  0.00  0.00    -0.331 N 
ATOM     14  H   UNL     1       4.266  -2.021  -1.722  0.00  0.00    +0.145 HD
ATOM     15  H   UNL     1       4.239  -0.360  -2.107  0.00  0.00    +0.145 HD
ENDROOT
BRANCH   1  16
ATOM     16  C   UNL     1      -0.094   2.387   1.265  0.00  0.00    +0.127 C 
BRANCH  16  17
ATOM     17  C   UNL     1      -1.453   2.387   0.579  0.00  0.00    +0.164 C 
BRANCH  17  18
ATOM     18  O   UNL     1      -1.876   1.049   0.354  0.00  0.00    -0.340 OA
BRANCH  18  19
ATOM     19  C   UNL     1      -3.144   1.003  -0.287  0.00  0.00    +0.258 C 
BRANCH  19  20
ATOM     20  P   UNL     1      -3.509  -0.732  -0.451  0.00  0.00    +0.367 P 
ATOM     21  O   UNL     1      -3.550  -1.492   0.841  0.00  0.00    -0.256 OA
BRANCH  20  22
ATOM     22  O   UNL     1      -2.415  -1.252  -1.521  0.00  0.00    -0.322 OA
ATOM     23  H   UNL     1      -2.539  -2.202  -1.675  0.00  0.00    +0.220 HD
ENDBRANCH  20  22
BRANCH  20  24
ATOM     24  O   UNL     1      -4.887  -0.740  -1.295  0.00  0.00    -0.322 OA
ATOM     25  H   UNL     1      -5.173  -1.656  -1.438  0.00  0.00    +0.220 HD
ENDBRANCH  20  24
ENDBRANCH  19  20
ENDBRANCH  18  19
ENDBRANCH  17  18
ENDBRANCH  16  17
ENDBRANCH   1  16
TORSDOF 7
