REMARK  Name = 54726191
REMARK  4 active torsions:
REMARK  status: ('A' for Active; 'I' for Inactive)
REMARK    1  A    between atoms: C_15  and  O_31
REMARK    2  A    between atoms: C_16  and  C_20
REMARK    3  A    between atoms: N_19  and  C_22
REMARK    4  A    between atoms: C_22  and  C_25
REMARK                            x       y       z     vdW  Elec       q    Type
REMARK                         _______ _______ _______ _____ _____    ______ ____
ROOT
ATOM      1  O   UNL     1       5.400  -2.059  -0.179  0.00  0.00    -0.336 OA
ATOM      2  O   UNL     1       3.904   2.357   0.394  0.00  0.00    -0.268 OA
ATOM      3  O   UNL     1      -1.147   1.731   0.486  0.00  0.00    -0.283 OA
ATOM      4  N   UNL     1       4.632   0.224  -0.136  0.00  0.00    -0.253 N 
ATOM      5  N   UNL     1       2.061  -0.746   0.485  0.00  0.00    -0.275 N 
ATOM      6  C   UNL     1       4.290  -1.179  -0.394  0.00  0.00    +0.215 C 
ATOM      7  C   UNL     1       5.943   0.714  -0.598  0.00  0.00    +0.080 C 
ATOM      8  C   UNL     1       7.035  -0.339  -0.407  0.00  0.00    +0.052 C 
ATOM      9  C   UNL     1       3.204  -1.644   0.562  0.00  0.00    +0.147 C 
ATOM     10  C   UNL     1       6.567  -1.693  -0.903  0.00  0.00    +0.146 C 
ATOM     11  C   UNL     1       3.655   1.164   0.221  0.00  0.00    +0.267 C 
ATOM     12  C   UNL     1       2.247   0.634   0.366  0.00  0.00    +0.143 C 
ATOM     13  C   UNL     1       5.858   1.182  -2.056  0.00  0.00    +0.022 C 
ATOM     14  C   UNL     1       0.772  -1.240   0.630  0.00  0.00    +0.074 C 
ATOM     15  C   UNL     1       1.217   1.509   0.358  0.00  0.00    +0.191 C 
ATOM     16  C   UNL     1      -0.338  -0.492   0.641  0.00  0.00    +0.110 C 
ATOM     17  C   UNL     1      -0.178   0.978   0.494  0.00  0.00    +0.236 C 
ENDROOT
BRANCH  16  20
ATOM     18  O   UNL     1      -1.810  -2.305   0.388  0.00  0.00    -0.270 OA
ATOM     19  N   UNL     1      -2.574  -0.366   1.435  0.00  0.00    -0.297 N 
ATOM     20  C   UNL     1      -1.631  -1.157   0.798  0.00  0.00    +0.251 C 
ATOM     21  H   UNL     1      -2.309   0.539   1.717  0.00  0.00    +0.150 HD
BRANCH  19  22
ATOM     22  C   UNL     1      -3.926  -0.800   1.705  0.00  0.00    +0.119 C 
BRANCH  22  25
ATOM     23  F   UNL     1      -4.897   1.795   1.132  0.00  0.00    -0.204 F 
ATOM     24  F   UNL     1      -7.392   0.290  -2.596  0.00  0.00    -0.204 F 
ATOM     25  C   UNL     1      -4.850  -0.508   0.559  0.00  0.00    +0.025 C 
ATOM     26  C   UNL     1      -5.292   0.796   0.332  0.00  0.00    +0.140 C 
ATOM     27  C   UNL     1      -5.266  -1.542  -0.280  0.00  0.00    +0.002 C 
ATOM     28  C   UNL     1      -6.151   1.065  -0.734  0.00  0.00    +0.059 C 
ATOM     29  C   UNL     1      -6.125  -1.272  -1.346  0.00  0.00    +0.030 C 
ATOM     30  C   UNL     1      -6.568   0.031  -1.573  0.00  0.00    +0.142 C 
ENDBRANCH  22  25
ENDBRANCH  19  22
ENDBRANCH  16  20
BRANCH  15  31
ATOM     31  O   UNL     1       1.360   2.871   0.216  0.00  0.00    -0.502 OA
ATOM     32  H   UNL     1       2.214   3.246   0.128  0.00  0.00    +0.292 HD
ENDBRANCH  15  31
TORSDOF 4
