REMARK  Name = 3256861
REMARK  9 active torsions:
REMARK  status: ('A' for Active; 'I' for Inactive)
REMARK    1  A    between atoms: P_1  and  O_4
REMARK    2  A    between atoms: P_1  and  C_14
REMARK    3  A    between atoms: O_4  and  C_5
REMARK    4  A    between atoms: C_8  and  N_13
REMARK    5  A    between atoms: C_14  and  C_15
REMARK    6  A    between atoms: C_15  and  C_16
REMARK    7  A    between atoms: C_16  and  C_17
REMARK    8  A    between atoms: C_17  and  C_19
REMARK    9  A    between atoms: C_19  and  O_20
REMARK                            x       y       z     vdW  Elec       q    Type
REMARK                         _______ _______ _______ _____ _____    ______ ____
ROOT
ATOM      1  P   UNL     1      -0.435  -1.882  -0.014  0.00  0.00    +0.418 P 
ATOM      2  O   UNL     1       0.110  -2.974  -0.912  0.00  0.00    -0.241 OA
ATOM      3  O   UNL     1      -0.423  -2.009   1.496  0.00  0.00    -0.130 OA
ENDROOT
BRANCH   1   4
ATOM      4  O   UNL     1       0.196  -0.444  -0.451  0.00  0.00    -0.421 OA
BRANCH   4   5
ATOM      5  C   UNL     1       1.511  -0.094  -0.300  0.00  0.00    +0.147 C 
ATOM      6  C   UNL     1       2.405  -0.999   0.261  0.00  0.00    +0.039 C 
ATOM      7  C   UNL     1       1.941   1.164  -0.710  0.00  0.00    +0.039 C 
ATOM      8  C   UNL     1       4.183   0.616   0.004  0.00  0.00    +0.143 C 
ATOM      9  C   UNL     1       3.745  -0.643   0.413  0.00  0.00    +0.027 C 
ATOM     10  C   UNL     1       3.281   1.520  -0.558  0.00  0.00    +0.027 C 
BRANCH   8  13
ATOM     11  O   UNL     1       6.341   0.152   0.671  0.00  0.00    -0.126 OA
ATOM     12  O   UNL     1       5.920   2.117  -0.214  0.00  0.00    -0.126 OA
ATOM     13  N   UNL     1       5.547   0.979   0.161  0.00  0.00    +0.058 N 
ENDBRANCH   8  13
ENDBRANCH   4   5
ENDBRANCH   1   4
BRANCH   1  14
ATOM     14  C   UNL     1      -2.144  -1.580  -0.513  0.00  0.00    +0.131 C 
BRANCH  14  15
ATOM     15  C   UNL     1      -2.837  -0.497   0.304  0.00  0.00    +0.015 C 
BRANCH  15  16
ATOM     16  C   UNL     1      -4.261  -0.227  -0.187  0.00  0.00    +0.012 C 
BRANCH  16  17
ATOM     17  C   UNL     1      -4.953   0.878   0.606  0.00  0.00    +0.109 C 
BRANCH  17  19
ATOM     18  O   UNL     1      -6.863   0.539  -0.832  0.00  0.00    -0.250 OA
ATOM     19  C   UNL     1      -6.331   1.176   0.069  0.00  0.00    +0.314 C 
BRANCH  19  20
ATOM     20  O   UNL     1      -6.934   2.209   0.707  0.00  0.00    -0.480 OA
ATOM     21  H   UNL     1      -6.484   2.665   1.390  0.00  0.00    +0.295 HD
ENDBRANCH  19  20
ENDBRANCH  17  19
ENDBRANCH  16  17
ENDBRANCH  15  16
ENDBRANCH  14  15
ENDBRANCH   1  14
TORSDOF 9
