REMARK  Name = 6436219
REMARK  2 active torsions:
REMARK  status: ('A' for Active; 'I' for Inactive)
REMARK    1  A    between atoms: C_4  and  C_24
REMARK    2  A    between atoms: C_4  and  O_28
REMARK                            x       y       z     vdW  Elec       q    Type
REMARK                         _______ _______ _______ _____ _____    ______ ____
ROOT
ATOM      1  O   UNL     1      -1.435   0.026  -0.706  0.00  0.00    -0.335 OA
ATOM      2  O   UNL     1       1.237  -2.145   0.028  0.00  0.00    -0.449 OA
ATOM      3  O   UNL     1       3.056  -2.642  -1.319  0.00  0.00    -0.245 OA
ATOM      4  C   UNL     1      -1.584  -1.073   0.203  0.00  0.00    +0.205 C 
ATOM      5  C   UNL     1      -0.097   0.208  -1.178  0.00  0.00    +0.121 C 
ATOM      6  C   UNL     1      -1.112  -2.387  -0.452  0.00  0.00    +0.101 C 
ATOM      7  C   UNL     1       0.292  -2.268  -1.058  0.00  0.00    +0.177 C 
ATOM      8  C   UNL     1       0.349  -1.031  -1.958  0.00  0.00    +0.073 C 
ATOM      9  C   UNL     1      -0.054   1.459  -2.064  0.00  0.00    +0.030 C 
ATOM     10  C   UNL     1      -0.412   2.758  -1.323  0.00  0.00    +0.007 C 
ATOM     11  C   UNL     1       0.522   3.129  -0.151  0.00  0.00    +0.022 C 
ATOM     12  C   UNL     1       0.033   4.423   0.510  0.00  0.00    +0.005 C 
ATOM     13  C   UNL     1       1.948   3.319  -0.610  0.00  0.00    -0.031 C 
ATOM     14  C   UNL     1       2.551  -2.319  -0.257  0.00  0.00    +0.341 C 
ATOM     15  C   UNL     1       3.047   2.664  -0.203  0.00  0.00    -0.030 C 
ATOM     16  C   UNL     1       3.317  -2.037   0.967  0.00  0.00    +0.073 C 
ATOM     17  C   UNL     1       3.154   1.562   0.813  0.00  0.00    +0.030 C 
ATOM     18  C   UNL     1       3.853   0.329   0.221  0.00  0.00    +0.027 C 
ATOM     19  C   UNL     1       3.904  -0.845   1.180  0.00  0.00    -0.037 C 
ATOM     20  C   UNL     1       4.707  -0.630   2.437  0.00  0.00    +0.027 C 
ENDROOT
BRANCH   4  24
ATOM     21  S   UNL     1      -5.552  -0.725  -0.176  0.00  0.00    -0.055 S 
ATOM     22  O   UNL     1      -5.487   1.247   1.577  0.00  0.00    -0.263 OA
ATOM     23  N   UNL     1      -3.535   0.021   1.219  0.00  0.00    -0.292 N 
ATOM     24  C   UNL     1      -3.062  -1.172   0.547  0.00  0.00    +0.135 C 
ATOM     25  C   UNL     1      -3.930  -1.362  -0.689  0.00  0.00    +0.091 C 
ATOM     26  C   UNL     1      -4.857   0.356   1.028  0.00  0.00    +0.273 C 
ATOM     27  H   UNL     1      -2.940   0.565   1.785  0.00  0.00    +0.150 HD
ENDBRANCH   4  24
BRANCH   4  28
ATOM     28  O   UNL     1      -0.854  -0.863   1.413  0.00  0.00    -0.362 OA
ATOM     29  H   UNL     1       0.093  -0.797   1.212  0.00  0.00    +0.213 HD
ENDBRANCH   4  28
TORSDOF 2
