REMARK  Name = 24894149
REMARK  3 active torsions:
REMARK  status: ('A' for Active; 'I' for Inactive)
REMARK    1  A    between atoms: C_15  and  C_23
REMARK    2  A    between atoms: C_28  and  C_29
REMARK    3  A    between atoms: C_29  and  N_30
REMARK                            x       y       z     vdW  Elec       q    Type
REMARK                         _______ _______ _______ _____ _____    ______ ____
ROOT
ATOM      1  F   UNL     1      -6.089   0.276  -1.659  0.00  0.00    -0.204 F 
ATOM      2  O   UNL     1       2.705   2.651   1.380  0.00  0.00    -0.270 OA
ATOM      3  N   UNL     1       1.252   1.302   0.138  0.00  0.00    -0.276 N 
ATOM      4  N   UNL     1      -2.246  -0.783   1.047  0.00  0.00    -0.318 N 
ATOM      5  N   UNL     1      -1.942   0.501  -1.082  0.00  0.00    -0.242 NA
ATOM      6  N   UNL     1      -3.689   0.806  -2.552  0.00  0.00    -0.343 N 
ATOM      7  C   UNL     1      -1.403   0.058   0.213  0.00  0.00    +0.145 C 
ATOM      8  C   UNL     1      -1.044   1.325   1.029  0.00  0.00    +0.063 C 
ATOM      9  C   UNL     1      -0.111  -0.741  -0.085  0.00  0.00    +0.063 C 
ATOM     10  C   UNL     1       0.081   2.139   0.391  0.00  0.00    +0.097 C 
ATOM     11  C   UNL     1       0.998   0.120  -0.693  0.00  0.00    +0.097 C 
ATOM     12  C   UNL     1      -3.607  -0.810   0.807  0.00  0.00    +0.051 C 
ATOM     13  C   UNL     1      -3.208   0.374  -1.337  0.00  0.00    +0.125 C 
ATOM     14  C   UNL     1      -4.150  -0.241  -0.352  0.00  0.00    +0.071 C 
ATOM     15  C   UNL     1       2.487   1.661   0.683  0.00  0.00    +0.249 C 
ATOM     16  C   UNL     1      -4.466  -1.439   1.721  0.00  0.00    +0.015 C 
ATOM     17  C   UNL     1      -5.535  -0.274  -0.569  0.00  0.00    +0.144 C 
ATOM     18  C   UNL     1      -5.842  -1.477   1.500  0.00  0.00    +0.004 C 
ATOM     19  C   UNL     1      -6.376  -0.890   0.358  0.00  0.00    +0.030 C 
ATOM     20  H   UNL     1      -1.854  -1.324   1.770  0.00  0.00    +0.148 HD
ATOM     21  H   UNL     1      -3.078   1.213  -3.208  0.00  0.00    +0.144 HD
ATOM     22  H   UNL     1      -4.646   0.709  -2.766  0.00  0.00    +0.144 HD
ENDROOT
BRANCH  15  23
ATOM     23  C   UNL     1       3.641   0.796   0.410  0.00  0.00    +0.054 C 
ATOM     24  C   UNL     1       4.439   1.031  -0.710  0.00  0.00    +0.004 C 
ATOM     25  C   UNL     1       3.941  -0.260   1.271  0.00  0.00    +0.004 C 
ATOM     26  C   UNL     1       5.536   0.209  -0.969  0.00  0.00    -0.006 C 
ATOM     27  C   UNL     1       5.038  -1.081   1.012  0.00  0.00    -0.006 C 
ATOM     28  C   UNL     1       5.836  -0.846  -0.108  0.00  0.00    -0.044 C 
BRANCH  28  29
ATOM     29  C   UNL     1       7.008  -1.725  -0.384  0.00  0.00    -0.059 C 
BRANCH  29  30
ATOM     30  N   UNL     1       6.748  -2.681  -1.461  0.00  0.00    +0.383 N 
ATOM     31  H   UNL     1       7.576  -3.257  -1.612  0.00  0.00    -0.089 HD
ATOM     32  H   UNL     1       6.525  -2.175  -2.318  0.00  0.00    -0.089 HD
ATOM     33  H   UNL     1       5.961  -3.277  -1.204  0.00  0.00    -0.089 HD
ENDBRANCH  29  30
ENDBRANCH  28  29
ENDBRANCH  15  23
TORSDOF 3
