REMARK  Name = 891831
REMARK  6 active torsions:
REMARK  status: ('A' for Active; 'I' for Inactive)
REMARK    1  A    between atoms: N_1  and  C_3
REMARK    2  A    between atoms: N_1  and  C_16
REMARK    3  A    between atoms: C_4  and  S_9
REMARK    4  A    between atoms: S_9  and  N_12
REMARK    5  A    between atoms: C_16  and  N_17
REMARK    6  A    between atoms: N_17  and  N_20
REMARK                            x       y       z     vdW  Elec       q    Type
REMARK                         _______ _______ _______ _____ _____    ______ ____
ROOT
ATOM      1  N   UNL     1       0.423  -0.669  -0.007  0.00  0.00    -0.295 N 
ATOM      2  H   UNL     1       1.023   0.103   0.106  0.00  0.00    +0.154 HD
ENDROOT
BRANCH   1   3
ATOM      3  C   UNL     1      -0.951  -0.323   0.024  0.00  0.00    +0.050 C 
ATOM      4  C   UNL     1      -3.633   0.355   0.085  0.00  0.00    +0.122 C 
ATOM      5  C   UNL     1      -1.347   0.910  -0.463  0.00  0.00    +0.016 C 
ATOM      6  C   UNL     1      -1.863  -1.225   0.541  0.00  0.00    +0.016 C 
ATOM      7  C   UNL     1      -2.699   1.252  -0.432  0.00  0.00    +0.021 C 
ATOM      8  C   UNL     1      -3.215  -0.884   0.572  0.00  0.00    +0.021 C 
BRANCH   4   9
ATOM      9  S   UNL     1      -5.325   0.782   0.125  0.00  0.00    +0.057 S 
ATOM     10  O   UNL     1      -5.971   0.007   1.175  0.00  0.00    -0.153 OA
ATOM     11  O   UNL     1      -5.436   2.234   0.126  0.00  0.00    -0.153 OA
BRANCH   9  12
ATOM     12  N   UNL     1      -5.845   0.194  -1.393  0.00  0.00    -0.203 NA
ATOM     13  H   UNL     1      -6.841   0.381  -1.507  0.00  0.00    +0.144 HD
ATOM     14  H   UNL     1      -5.680  -0.812  -1.443  0.00  0.00    +0.144 HD
ENDBRANCH   9  12
ENDBRANCH   4   9
ENDBRANCH   1   3
BRANCH   1  16
ATOM     15  S   UNL     1       0.483  -3.421  -0.362  0.00  0.00    -0.017 S 
ATOM     16  C   UNL     1       1.100  -1.875  -0.163  0.00  0.00    +0.149 C 
BRANCH  16  17
ATOM     17  N   UNL     1       2.486  -1.740  -0.178  0.00  0.00    -0.258 N 
ATOM     18  H   UNL     1       3.042  -2.545  -0.290  0.00  0.00    +0.168 HD
BRANCH  17  20
ATOM     19  N   UNL     1       5.452   1.165   0.082  0.00  0.00    +0.387 N 
ATOM     20  N   UNL     1       3.106  -0.513  -0.040  0.00  0.00    -0.211 NA
ATOM     21  C   UNL     1       4.684   0.840   1.290  0.00  0.00    -0.058 C 
ATOM     22  C   UNL     1       4.580   1.160  -1.099  0.00  0.00    -0.058 C 
ATOM     23  C   UNL     1       3.975  -0.510   1.140  0.00  0.00    +0.069 C 
ATOM     24  C   UNL     1       3.871  -0.191  -1.249  0.00  0.00    +0.069 C 
ATOM     25  C   UNL     1       6.125   2.454   0.225  0.00  0.00    -0.101 C 
ATOM     26  H   UNL     1       6.167   0.448  -0.045  0.00  0.00    -0.080 HD
ENDBRANCH  17  20
ENDBRANCH  16  17
ENDBRANCH   1  16
TORSDOF 6
