REMARK  Name = 2273
REMARK  6 active torsions:
REMARK  status: ('A' for Active; 'I' for Inactive)
REMARK    1  A    between atoms: C_2  and  N_20
REMARK    2  A    between atoms: C_3  and  C_12
REMARK    3  A    between atoms: C_4  and  S_14
REMARK    4  A    between atoms: S_14  and  N_17
REMARK    5  A    between atoms: N_20  and  C_22
REMARK    6  A    between atoms: C_22  and  C_24
REMARK                            x       y       z     vdW  Elec       q    Type
REMARK                         _______ _______ _______ _____ _____    ______ ____
ROOT
ATOM      1 CL   UNL     1      -2.860   3.198   0.007  0.00  0.00    -0.081 Cl
ATOM      2  C   UNL     1       0.011   0.429   0.057  0.00  0.00    +0.055 C 
ATOM      3  C   UNL     1      -0.703  -0.769   0.061  0.00  0.00    +0.080 C 
ATOM      4  C   UNL     1      -2.778   0.467   0.033  0.00  0.00    +0.133 C 
ATOM      5  C   UNL     1      -2.097  -0.751   0.050  0.00  0.00    +0.032 C 
ATOM      6  C   UNL     1      -0.670   1.646   0.040  0.00  0.00    +0.028 C 
ATOM      7  C   UNL     1      -2.065   1.665   0.029  0.00  0.00    +0.077 C 
ENDROOT
BRANCH   3  12
ATOM      8  N   UNL     1      -0.540  -3.134   0.639  0.00  0.00    -0.110 NA
ATOM      9  N   UNL     1       1.197  -2.217  -0.487  0.00  0.00    -0.087 NA
ATOM     10  N   UNL     1       0.457  -3.992   0.380  0.00  0.00    -0.140 N 
ATOM     11  N   UNL     1       1.507  -3.492  -0.286  0.00  0.00    -0.022 NA
ATOM     12  C   UNL     1      -0.028  -2.041   0.077  0.00  0.00    +0.075 C 
ATOM     13  H   UNL     1       0.420  -4.934   0.663  0.00  0.00    +0.197 HD
ENDBRANCH   3  12
BRANCH   4  14
ATOM     14  S   UNL     1      -4.530   0.429   0.020  0.00  0.00    +0.058 S 
ATOM     15  O   UNL     1      -4.961  -0.834   0.596  0.00  0.00    -0.153 OA
ATOM     16  O   UNL     1      -5.017   1.684   0.571  0.00  0.00    -0.153 OA
BRANCH  14  17
ATOM     17  N   UNL     1      -4.837   0.407  -1.659  0.00  0.00    -0.203 NA
ATOM     18  H   UNL     1      -5.844   0.384  -1.821  0.00  0.00    +0.144 HD
ATOM     19  H   UNL     1      -4.407  -0.421  -2.072  0.00  0.00    +0.144 HD
ENDBRANCH  14  17
ENDBRANCH   4  14
BRANCH   2  20
ATOM     20  N   UNL     1       1.425   0.440   0.068  0.00  0.00    -0.328 N 
ATOM     21  H   UNL     1       1.903  -0.420   0.079  0.00  0.00    +0.147 HD
BRANCH  20  22
ATOM     22  C   UNL     1       2.188   1.647   0.063  0.00  0.00    +0.121 C 
BRANCH  22  24
ATOM     23  S   UNL     1       4.285   0.421  -1.247  0.00  0.00    -0.089 S 
ATOM     24  C   UNL     1       3.660   1.340   0.041  0.00  0.00    +0.027 C 
ATOM     25  C   UNL     1       4.603   1.713   0.951  0.00  0.00    +0.004 C 
ATOM     26  C   UNL     1       5.893   1.230   0.586  0.00  0.00    +0.007 C 
ATOM     27  C   UNL     1       5.863   0.512  -0.589  0.00  0.00    +0.035 C 
ENDBRANCH  22  24
ENDBRANCH  20  22
ENDBRANCH   2  20
TORSDOF 6
