REMARK  Name = 4369141
REMARK  13 active torsions:
REMARK  status: ('A' for Active; 'I' for Inactive)
REMARK    1  A    between atoms: C_1  and  C_4
REMARK    2  A    between atoms: C_1  and  N_19
REMARK    3  A    between atoms: C_1  and  C_35
REMARK    4  A    between atoms: N_3  and  C_6
REMARK    5  A    between atoms: C_6  and  C_9
REMARK    6  A    between atoms: N_8  and  C_11
REMARK    7  A    between atoms: C_11  and  C_12
REMARK    8  A    between atoms: C_11  and  C_16
REMARK    9  A    between atoms: C_16  and  O_17
REMARK   10  A    between atoms: N_19  and  C_22
REMARK   11  A    between atoms: C_22  and  C_23
REMARK   12  A    between atoms: C_26  and  C_29
REMARK   13  A    between atoms: C_35  and  S_36
REMARK                            x       y       z     vdW  Elec       q    Type
REMARK                         _______ _______ _______ _____ _____    ______ ____
ROOT
ATOM      1  C   UNL     1       1.075  -3.774  -0.123  0.00  0.00    +0.028 C 
ENDROOT
BRANCH   1   4
ATOM      2  O   UNL     1       2.339  -2.276  -1.549  0.00  0.00    -0.277 OA
ATOM      3  N   UNL     1       2.971  -2.475   0.676  0.00  0.00    -0.298 N 
ATOM      4  C   UNL     1       2.186  -2.775  -0.436  0.00  0.00    +0.204 C 
ATOM      5  H   UNL     1       2.774  -2.925   1.529  0.00  0.00    +0.150 HD
BRANCH   3   6
ATOM      6  C   UNL     1       4.054  -1.538   0.627  0.00  0.00    +0.176 C 
BRANCH   6   9
ATOM      7  O   UNL     1       2.555   0.048   1.662  0.00  0.00    -0.273 OA
ATOM      8  N   UNL     1       4.292   0.834   0.333  0.00  0.00    -0.295 N 
ATOM      9  C   UNL     1       3.542  -0.153   0.959  0.00  0.00    +0.243 C 
ATOM     10  H   UNL     1       5.067   0.558  -0.209  0.00  0.00    +0.150 HD
BRANCH   8  11
ATOM     11  C   UNL     1       3.996   2.241   0.435  0.00  0.00    +0.171 C 
BRANCH  11  12
ATOM     12  C   UNL     1       5.256   3.128   0.341  0.00  0.00    +0.029 C 
ATOM     13  C   UNL     1       6.284   2.748   1.410  0.00  0.00    +0.002 C 
ATOM     14  C   UNL     1       5.910   3.105  -1.045  0.00  0.00    +0.002 C 
ENDBRANCH  11  12
BRANCH  11  16
ATOM     15  O   UNL     1       2.511   1.904  -1.444  0.00  0.00    -0.248 OA
ATOM     16  C   UNL     1       2.943   2.664  -0.584  0.00  0.00    +0.335 C 
BRANCH  16  17
ATOM     17  O   UNL     1       2.558   3.961  -0.419  0.00  0.00    -0.443 OA
ATOM     18  C   UNL     1       1.571   4.439  -1.340  0.00  0.00    +0.256 C 
ENDBRANCH  16  17
ENDBRANCH  11  16
ENDBRANCH   8  11
ENDBRANCH   6   9
ENDBRANCH   3   6
ENDBRANCH   1   4
BRANCH   1  19
ATOM     19  N   UNL     1      -0.178  -3.046  -0.339  0.00  0.00    +0.394 N 
ATOM     20  H   UNL     1      -0.936  -3.715  -0.470  0.00  0.00    -0.083 HD
ATOM     21  H   UNL     1      -0.078  -2.458  -1.167  0.00  0.00    -0.083 HD
BRANCH  19  22
ATOM     22  C   UNL     1      -0.481  -2.198   0.802  0.00  0.00    -0.053 C 
BRANCH  22  23
ATOM     23  C   UNL     1      -1.766  -1.437   0.610  0.00  0.00    -0.044 C 
ATOM     24  C   UNL     1      -1.747  -0.177   0.011  0.00  0.00    -0.006 C 
ATOM     25  C   UNL     1      -2.975  -1.991   1.032  0.00  0.00    -0.006 C 
ATOM     26  C   UNL     1      -4.146  -0.026   0.255  0.00  0.00    -0.000 C 
ATOM     27  C   UNL     1      -2.937   0.528  -0.167  0.00  0.00    -0.000 C 
ATOM     28  C   UNL     1      -4.165  -1.285   0.854  0.00  0.00    -0.000 C 
BRANCH  26  29
ATOM     29  C   UNL     1      -5.380   0.706   0.070  0.00  0.00    -0.000 C 
ATOM     30  C   UNL     1      -6.118   0.544  -1.102  0.00  0.00    -0.000 C 
ATOM     31  C   UNL     1      -5.833   1.572   1.065  0.00  0.00    -0.000 C 
ATOM     32  C   UNL     1      -7.309   1.249  -1.280  0.00  0.00    +0.000 C 
ATOM     33  C   UNL     1      -7.024   2.277   0.888  0.00  0.00    +0.000 C 
ATOM     34  C   UNL     1      -7.761   2.115  -0.285  0.00  0.00    +0.000 C 
ENDBRANCH  26  29
ENDBRANCH  22  23
ENDBRANCH  19  22
ENDBRANCH   1  19
BRANCH   1  35
ATOM     35  C   UNL     1       1.105  -4.998  -1.042  0.00  0.00    +0.041 C 
BRANCH  35  36
ATOM     36  S   UNL     1       2.669  -5.915  -0.874  0.00  0.00    -0.170 S 
ATOM     37  H   UNL     1       2.655  -6.992  -1.705  0.00  0.00    +0.102 HD
ENDBRANCH  35  36
ENDBRANCH   1  35
TORSDOF 13
