REMARK  Name = 24764440
REMARK  2 active torsions:
REMARK  status: ('A' for Active; 'I' for Inactive)
REMARK    1  A    between atoms: C_10  and  C_12
REMARK    2  A    between atoms: C_13  and  N_18
REMARK                            x       y       z     vdW  Elec       q    Type
REMARK                         _______ _______ _______ _____ _____    ______ ____
ROOT
ATOM      1  O   UNL     1       0.006   2.503   0.055  0.00  0.00    -0.270 OA
ATOM      2  N   UNL     1      -1.077   0.509  -0.514  0.00  0.00    -0.276 N 
ATOM      3  C   UNL     1      -3.456   0.505   0.121  0.00  0.00    +0.020 C 
ATOM      4  C   UNL     1      -2.097  -1.639   0.130  0.00  0.00    +0.020 C 
ATOM      5  C   UNL     1      -3.487  -1.018  -0.088  0.00  0.00    +0.003 C 
ATOM      6  C   UNL     1      -2.371   1.149  -0.752  0.00  0.00    +0.094 C 
ATOM      7  C   UNL     1      -1.056  -0.940  -0.752  0.00  0.00    +0.094 C 
ATOM      8  C   UNL     1      -4.822   1.121  -0.173  0.00  0.00    +0.002 C 
ATOM      9  C   UNL     1      -2.123  -3.140  -0.149  0.00  0.00    +0.002 C 
ATOM     10  C   UNL     1       0.017   1.285  -0.120  0.00  0.00    +0.250 C 
ENDROOT
BRANCH  10  12
ATOM     11 BR   UNL     1       4.620  -0.386  -2.176  0.00  0.00    -0.049 Br
ATOM     12  C   UNL     1       1.296   0.606   0.123  0.00  0.00    +0.067 C 
ATOM     13  C   UNL     1       1.627   0.115   1.386  0.00  0.00    +0.046 C 
ATOM     14  C   UNL     1       2.187   0.457  -0.939  0.00  0.00    +0.012 C 
ATOM     15  C   UNL     1       2.849  -0.525   1.587  0.00  0.00    +0.015 C 
ATOM     16  C   UNL     1       3.410  -0.183  -0.738  0.00  0.00    +0.035 C 
ATOM     17  C   UNL     1       3.741  -0.674   0.525  0.00  0.00    +0.008 C 
BRANCH  13  18
ATOM     18  N   UNL     1       0.738   0.256   2.475  0.00  0.00    -0.357 N 
ATOM     19  H   UNL     1      -0.129   0.705   2.348  0.00  0.00    +0.142 HD
ATOM     20  H   UNL     1       0.985  -0.096   3.361  0.00  0.00    +0.142 HD
ENDBRANCH  13  18
ENDBRANCH  10  12
TORSDOF 2
