REMARK  Name = 233979
REMARK  4 active torsions:
REMARK  status: ('A' for Active; 'I' for Inactive)
REMARK    1  A    between atoms: N_2  and  C_12
REMARK    2  A    between atoms: C_3  and  C_6
REMARK    3  A    between atoms: C_12  and  C_13
REMARK    4  A    between atoms: C_13  and  O_14
REMARK                            x       y       z     vdW  Elec       q    Type
REMARK                         _______ _______ _______ _____ _____    ______ ____
ROOT
ATOM      1  O   UNL     1      -1.312   1.895   0.481  0.00  0.00    -0.270 OA
ATOM      2  N   UNL     1      -1.877  -0.047  -0.655  0.00  0.00    -0.298 N 
ATOM      3  C   UNL     1      -0.967   0.813  -0.028  0.00  0.00    +0.246 C 
ATOM      4  H   UNL     1      -1.535  -0.887  -1.036  0.00  0.00    +0.150 HD
ENDROOT
BRANCH   3   6
ATOM      5 CL   UNL     1       4.753  -0.874   0.041  0.00  0.00    -0.082 Cl
ATOM      6  C   UNL     1       0.427   0.402  -0.012  0.00  0.00    +0.053 C 
ATOM      7  C   UNL     1       1.437   1.362   0.057  0.00  0.00    +0.005 C 
ATOM      8  C   UNL     1       0.756  -0.953  -0.064  0.00  0.00    +0.005 C 
ATOM      9  C   UNL     1       2.775   0.968   0.073  0.00  0.00    +0.012 C 
ATOM     10  C   UNL     1       2.094  -1.347  -0.047  0.00  0.00    +0.012 C 
ATOM     11  C   UNL     1       3.103  -0.387   0.022  0.00  0.00    +0.058 C 
ENDBRANCH   3   6
BRANCH   2  12
ATOM     12  C   UNL     1      -3.290   0.233  -0.772  0.00  0.00    +0.122 C 
BRANCH  12  13
ATOM     13  C   UNL     1      -4.032  -0.326   0.429  0.00  0.00    +0.158 C 
BRANCH  13  14
ATOM     14  O   UNL     1      -3.866  -1.738   0.474  0.00  0.00    -0.380 OA
ATOM     15  H   UNL     1      -4.340  -2.095   1.241  0.00  0.00    +0.211 HD
ENDBRANCH  13  14
ENDBRANCH  12  13
ENDBRANCH   2  12
TORSDOF 4
