16122585
  -OEChem-10051721183D

 49 49  0     1  0  0  0  0  0999 V2000
   -2.6848    0.2373   -1.9332 O   0  0  0  0  0  0  0  0  0  0  0  0
    3.4418    2.4514    0.6422 O   0  0  0  0  0  0  0  0  0  0  0  0
    0.5626    1.0762    1.4027 O   0  0  0  0  0  0  0  0  0  0  0  0
   -4.3311    0.7681   -0.3552 N   0  0  0  0  0  0  0  0  0  0  0  0
   -0.9827    1.7490   -0.1980 N   0  0  0  0  0  0  0  0  0  0  0  0
   -2.1090    1.0268    0.3079 C   0  0  1  0  0  0  0  0  0  0  0  0
   -3.0157    1.8576    1.2123 C   0  0  0  0  0  0  0  0  0  0  0  0
    2.5749   -1.7351   -0.1588 C   0  0  0  0  0  0  0  0  0  0  0  0
    2.1342   -2.6207    1.0094 C   0  0  0  0  0  0  0  0  0  0  0  0
    3.7264   -0.8119    0.2494 C   0  0  0  0  0  0  0  0  0  0  0  0
    0.9780   -3.5622    0.6572 C   0  0  0  0  0  0  0  0  0  0  0  0
   -4.3806    1.2307    1.0048 C   0  0  0  0  0  0  0  0  0  0  0  0
    4.1865    0.1208   -0.8779 C   0  0  0  0  0  0  0  0  0  0  0  0
   -3.0282    0.6353   -0.8308 C   0  0  0  0  0  0  0  0  0  0  0  0
   -0.3110   -2.8881    0.1776 C   0  0  0  0  0  0  0  0  0  0  0  0
    3.1301    1.1198   -1.3475 C   0  0  0  0  0  0  0  0  0  0  0  0
   -1.4455   -3.8739   -0.1013 C   0  0  0  0  0  0  0  0  0  0  0  0
    1.2651    2.5867   -0.3350 C   0  0  0  0  0  0  0  0  0  0  0  0
    2.6888    2.0833   -0.2589 C   0  0  0  0  0  0  0  0  0  0  0  0
    0.2692    1.7142    0.3949 C   0  0  0  0  0  0  0  0  0  0  0  0
   -2.6689   -3.1653   -0.6618 C   0  0  0  0  0  0  0  0  0  0  0  0
   -1.7820    0.1139    0.8186 H   0  0  0  0  0  0  0  0  0  0  0  0
   -2.6990    1.8456    2.2594 H   0  0  0  0  0  0  0  0  0  0  0  0
   -3.0330    2.9050    0.8834 H   0  0  0  0  0  0  0  0  0  0  0  0
    1.7266   -1.1289   -0.4875 H   0  0  0  0  0  0  0  0  0  0  0  0
    2.8812   -2.3602   -1.0055 H   0  0  0  0  0  0  0  0  0  0  0  0
    2.9846   -3.2220    1.3533 H   0  0  0  0  0  0  0  0  0  0  0  0
    1.8312   -1.9877    1.8526 H   0  0  0  0  0  0  0  0  0  0  0  0
    3.4367   -0.2244    1.1282 H   0  0  0  0  0  0  0  0  0  0  0  0
    4.5818   -1.4266    0.5566 H   0  0  0  0  0  0  0  0  0  0  0  0
    1.3189   -4.2636   -0.1149 H   0  0  0  0  0  0  0  0  0  0  0  0
    0.7505   -4.1672    1.5439 H   0  0  0  0  0  0  0  0  0  0  0  0
   -5.2005    1.9422    1.1296 H   0  0  0  0  0  0  0  0  0  0  0  0
   -4.5378    0.3636    1.6537 H   0  0  0  0  0  0  0  0  0  0  0  0
    5.0732    0.6670   -0.5326 H   0  0  0  0  0  0  0  0  0  0  0  0
    4.5070   -0.4834   -1.7355 H   0  0  0  0  0  0  0  0  0  0  0  0
   -0.1099   -2.3256   -0.7412 H   0  0  0  0  0  0  0  0  0  0  0  0
   -0.6379   -2.1618    0.9314 H   0  0  0  0  0  0  0  0  0  0  0  0
    3.5349    1.7252   -2.1665 H   0  0  0  0  0  0  0  0  0  0  0  0
    2.2552    0.5932   -1.7403 H   0  0  0  0  0  0  0  0  0  0  0  0
   -5.1522    0.5274   -0.9012 H   0  0  0  0  0  0  0  0  0  0  0  0
   -1.1231    2.3344   -1.0168 H   0  0  0  0  0  0  0  0  0  0  0  0
   -1.7179   -4.3971    0.8224 H   0  0  0  0  0  0  0  0  0  0  0  0
   -1.1108   -4.6325   -0.8182 H   0  0  0  0  0  0  0  0  0  0  0  0
    1.2281    3.5880    0.1093 H   0  0  0  0  0  0  0  0  0  0  0  0
    0.9956    2.6997   -1.3911 H   0  0  0  0  0  0  0  0  0  0  0  0
   -3.0447   -2.4166    0.0427 H   0  0  0  0  0  0  0  0  0  0  0  0
   -3.4706   -3.8862   -0.8501 H   0  0  0  0  0  0  0  0  0  0  0  0
   -2.4346   -2.6651   -1.6066 H   0  0  0  0  0  0  0  0  0  0  0  0
  1 14  2  0  0  0  0
  2 19  2  0  0  0  0
  3 20  2  0  0  0  0
  4 12  1  0  0  0  0
  4 14  1  0  0  0  0
  4 41  1  0  0  0  0
  5  6  1  0  0  0  0
  5 20  1  0  0  0  0
  5 42  1  0  0  0  0
  6  7  1  0  0  0  0
  6 14  1  0  0  0  0
  6 22  1  0  0  0  0
  7 12  1  0  0  0  0
  7 23  1  0  0  0  0
  7 24  1  0  0  0  0
  8  9  1  0  0  0  0
  8 10  1  0  0  0  0
  8 25  1  0  0  0  0
  8 26  1  0  0  0  0
  9 11  1  0  0  0  0
  9 27  1  0  0  0  0
  9 28  1  0  0  0  0
 10 13  1  0  0  0  0
 10 29  1  0  0  0  0
 10 30  1  0  0  0  0
 11 15  1  0  0  0  0
 11 31  1  0  0  0  0
 11 32  1  0  0  0  0
 12 33  1  0  0  0  0
 12 34  1  0  0  0  0
 13 16  1  0  0  0  0
 13 35  1  0  0  0  0
 13 36  1  0  0  0  0
 15 17  1  0  0  0  0
 15 37  1  0  0  0  0
 15 38  1  0  0  0  0
 16 19  1  0  0  0  0
 16 39  1  0  0  0  0
 16 40  1  0  0  0  0
 17 21  1  0  0  0  0
 17 43  1  0  0  0  0
 17 44  1  0  0  0  0
 18 19  1  0  0  0  0
 18 20  1  0  0  0  0
 18 45  1  0  0  0  0
 18 46  1  0  0  0  0
 21 47  1  0  0  0  0
 21 48  1  0  0  0  0
 21 49  1  0  0  0  0
M  END
> <DATABASE_ID>
DB08323

> <DATABASE_NAME>
drugbank

> <ORIGINAL_SOURCE>
PUBCHEM

> <ORIGINAL_SOURCE_URL>
https://pubchem.ncbi.nlm.nih.gov/rest/pug/compound/inchikey/VEYZCVBECUYIJZ-AWEZNQCLSA-N/SDF?record_type=3d

> <SMILES>
[H][C@@]1(CCNC1=O)NC(=O)CC(=O)CCCCCCCCC

> <INCHI_IDENTIFIER>
InChI=1S/C16H28N2O3/c1-2-3-4-5-6-7-8-9-13(19)12-15(20)18-14-10-11-17-16(14)21/h14H,2-12H2,1H3,(H,17,21)(H,18,20)/t14-/m0/s1

> <INCHI_KEY>
VEYZCVBECUYIJZ-AWEZNQCLSA-N

> <FORMULA>
C16H28N2O3

> <MOLECULAR_WEIGHT>
296.4051

> <EXACT_MASS>
296.209992772

> <JCHEM_ACCEPTOR_COUNT>
3

> <JCHEM_AVERAGE_POLARIZABILITY>
34.610785857907565

> <JCHEM_BIOAVAILABILITY>
1

> <JCHEM_DONOR_COUNT>
2

> <JCHEM_FORMAL_CHARGE>
0

> <JCHEM_GHOSE_FILTER>
1

> <JCHEM_IUPAC>
3-oxo-N-[(3S)-2-oxopyrrolidin-3-yl]dodecanamide

> <ALOGPS_LOGP>
2.48

> <JCHEM_LOGP>
2.222866052

> <ALOGPS_LOGS>
-3.68

> <JCHEM_MDDR_LIKE_RULE>
0

> <JCHEM_NUMBER_OF_RINGS>
1

> <JCHEM_PHYSIOLOGICAL_CHARGE>
0

> <JCHEM_PKA>
13.976984075516416

> <JCHEM_PKA_STRONGEST_ACIDIC>
10.313383506173942

> <JCHEM_PKA_STRONGEST_BASIC>
-3.7327816472233413

> <JCHEM_POLAR_SURFACE_AREA>
75.27000000000001

> <JCHEM_REFRACTIVITY>
81.53689999999999

> <JCHEM_ROTATABLE_BOND_COUNT>
11

> <JCHEM_RULE_OF_FIVE>
1

> <ALOGPS_SOLUBILITY>
6.21e-02 g/l

> <JCHEM_TRADITIONAL_IUPAC>
3-oxo-N-[(3S)-2-oxopyrrolidin-3-yl]dodecanamide

> <JCHEM_VEBER_RULE>
0

> <DRUGBANK_ID>
DB08323

> <DRUG_GROUPS>
experimental

> <GENERIC_NAME>
3-OXO-N-[(3S)-2-OXOPYRROLIDIN-3-YL]DODECANAMIDE

$$$$
