REMARK  Name = 16750094
REMARK  4 active torsions:
REMARK  status: ('A' for Active; 'I' for Inactive)
REMARK    1  A    between atoms: C_4  and  C_22
REMARK    2  A    between atoms: C_7  and  C_12
REMARK    3  A    between atoms: C_14  and  C_19
REMARK    4  A    between atoms: C_23  and  O_28
REMARK                            x       y       z     vdW  Elec       q    Type
REMARK                         _______ _______ _______ _____ _____    ______ ____
ROOT
ATOM      1  N   UNL     1      -2.427  -3.011  -0.517  0.00  0.00    -0.297 N 
ATOM      2  N   UNL     1      -0.040  -2.871  -0.226  0.00  0.00    -0.229 NA
ATOM      3  C   UNL     1      -1.574  -0.960  -0.288  0.00  0.00    +0.033 C 
ATOM      4  C   UNL     1      -2.982  -0.857  -0.449  0.00  0.00    +0.020 C 
ATOM      5  C   UNL     1      -1.261  -2.315  -0.336  0.00  0.00    +0.132 C 
ATOM      6  C   UNL     1      -0.514  -0.057  -0.106  0.00  0.00    +0.004 C 
ATOM      7  C   UNL     1       0.772  -0.580   0.013  0.00  0.00    +0.021 C 
ATOM      8  C   UNL     1      -3.479  -2.135  -0.588  0.00  0.00    +0.063 C 
ATOM      9  C   UNL     1       0.943  -1.956  -0.052  0.00  0.00    +0.100 C 
ATOM     10  H   UNL     1      -2.498  -3.990  -0.587  0.00  0.00    +0.154 HD
ENDROOT
BRANCH   7  12
ATOM     11  N   UNL     1       2.789   2.372   1.070  0.00  0.00    -0.242 NA
ATOM     12  C   UNL     1       1.906   0.296   0.202  0.00  0.00    +0.021 C 
ATOM     13  C   UNL     1       3.167  -0.051  -0.271  0.00  0.00    +0.008 C 
ATOM     14  C   UNL     1       4.239   0.812  -0.074  0.00  0.00    +0.073 C 
ATOM     15  C   UNL     1       1.771   1.508   0.860  0.00  0.00    +0.099 C 
ATOM     16  C   UNL     1       4.000   2.001   0.596  0.00  0.00    +0.103 C 
BRANCH  14  19
ATOM     17  O   UNL     1       5.855   0.835  -1.708  0.00  0.00    -0.270 OA
ATOM     18  N   UNL     1       6.442  -0.231   0.288  0.00  0.00    -0.273 N 
ATOM     19  C   UNL     1       5.568   0.479  -0.556  0.00  0.00    +0.251 C 
ATOM     20  C   UNL     1       7.783  -0.615  -0.130  0.00  0.00    +0.115 C 
ATOM     21  C   UNL     1       6.063  -0.631   1.641  0.00  0.00    +0.115 C 
ENDBRANCH  14  19
ENDBRANCH   7  12
BRANCH   4  22
ATOM     22  C   UNL     1      -3.824   0.303  -0.477  0.00  0.00    +0.035 C 
ATOM     23  C   UNL     1      -4.846   0.469   0.458  0.00  0.00    +0.139 C 
ATOM     24  C   UNL     1      -3.611   1.274  -1.456  0.00  0.00    +0.003 C 
ATOM     25  C   UNL     1      -5.655   1.604   0.413  0.00  0.00    +0.037 C 
ATOM     26  C   UNL     1      -4.420   2.409  -1.500  0.00  0.00    +0.000 C 
ATOM     27  C   UNL     1      -5.442   2.575  -0.566  0.00  0.00    +0.003 C 
BRANCH  23  28
ATOM     28  O   UNL     1      -5.079  -0.464   1.425  0.00  0.00    -0.471 OA
ATOM     29  C   UNL     1      -6.146  -0.202   2.333  0.00  0.00    +0.252 C 
ENDBRANCH  23  28
ENDBRANCH   4  22
TORSDOF 4
