REMARK  Name = 16741238
REMARK  6 active torsions:
REMARK  status: ('A' for Active; 'I' for Inactive)
REMARK    1  A    between atoms: N_1  and  C_22
REMARK    2  A    between atoms: C_10  and  C_15
REMARK    3  A    between atoms: C_15  and  C_16
REMARK    4  A    between atoms: C_22  and  C_23
REMARK    5  A    between atoms: C_23  and  C_26
REMARK    6  A    between atoms: N_25  and  C_28
REMARK                            x       y       z     vdW  Elec       q    Type
REMARK                         _______ _______ _______ _____ _____    ______ ____
ROOT
ATOM      1  N   UNL     1      -0.653   1.664   0.357  0.00  0.00    -0.249 N 
ATOM      2  N   UNL     1       0.870   3.024  -0.914  0.00  0.00    -0.373 NA
ATOM      3  N   UNL     1      -1.404   3.438  -1.001  0.00  0.00    -0.321 N 
ATOM      4  C   UNL     1       0.396   0.820   0.932  0.00  0.00    +0.071 C 
ATOM      5  C   UNL     1       1.772   1.203   0.464  0.00  0.00    +0.045 C 
ATOM      6  C   UNL     1      -0.340   2.705  -0.523  0.00  0.00    +0.239 C 
ATOM      7  C   UNL     1       1.950   2.272  -0.425  0.00  0.00    +0.136 C 
ATOM      8  C   UNL     1       2.886   0.485   0.922  0.00  0.00    +0.007 C 
ATOM      9  C   UNL     1       3.244   2.607  -0.843  0.00  0.00    +0.032 C 
ATOM     10  C   UNL     1       4.170   0.827   0.499  0.00  0.00    +0.039 C 
ATOM     11  C   UNL     1       4.349   1.889  -0.384  0.00  0.00    +0.006 C 
ATOM     12  H   UNL     1      -2.321   3.216  -0.719  0.00  0.00    +0.146 HD
ATOM     13  H   UNL     1      -1.247   4.184  -1.624  0.00  0.00    +0.146 HD
ENDROOT
BRANCH  10  15
ATOM     14  O   UNL     1       5.907   0.426   2.013  0.00  0.00    -0.287 OA
ATOM     15  C   UNL     1       5.319   0.077   0.978  0.00  0.00    +0.196 C 
BRANCH  15  16
ATOM     16  C   UNL     1       5.841  -1.129   0.267  0.00  0.00    +0.039 C 
ATOM     17  C   UNL     1       5.223  -1.572  -0.902  0.00  0.00    +0.003 C 
ATOM     18  C   UNL     1       6.948  -1.812   0.772  0.00  0.00    +0.003 C 
ATOM     19  C   UNL     1       5.711  -2.697  -1.566  0.00  0.00    +0.000 C 
ATOM     20  C   UNL     1       7.436  -2.937   0.108  0.00  0.00    +0.000 C 
ATOM     21  C   UNL     1       6.817  -3.380  -1.061  0.00  0.00    +0.000 C 
ENDBRANCH  15  16
ENDBRANCH  10  15
BRANCH   1  22
ATOM     22  C   UNL     1      -2.012   1.334   0.774  0.00  0.00    +0.109 C 
BRANCH  22  23
ATOM     23  C   UNL     1      -2.655   0.369  -0.218  0.00  0.00    +0.107 C 
BRANCH  23  26
ATOM     24  O   UNL     1      -4.643   0.484   1.124  0.00  0.00    -0.275 OA
ATOM     25  N   UNL     1      -4.736  -0.875  -0.752  0.00  0.00    -0.279 N 
ATOM     26  C   UNL     1      -4.097   0.008   0.125  0.00  0.00    +0.227 C 
ATOM     27  C   UNL     1      -4.071  -1.428  -1.930  0.00  0.00    +0.115 C 
BRANCH  25  28
ATOM     28  C   UNL     1      -6.100  -1.306  -0.559  0.00  0.00    +0.075 C 
ATOM     29  C   UNL     1      -7.053  -0.110  -0.616  0.00  0.00    +0.020 C 
ATOM     30  C   UNL     1      -6.245  -2.072   0.759  0.00  0.00    +0.020 C 
ATOM     31  C   UNL     1      -8.499  -0.529  -0.362  0.00  0.00    +0.002 C 
ATOM     32  C   UNL     1      -7.692  -2.490   1.010  0.00  0.00    +0.002 C 
ATOM     33  C   UNL     1      -8.640  -1.296   0.950  0.00  0.00    +0.000 C 
ENDBRANCH  25  28
ENDBRANCH  23  26
ENDBRANCH  22  23
ENDBRANCH   1  22
TORSDOF 6
