REMARK  Name = 21855
REMARK  5 active torsions:
REMARK  status: ('A' for Active; 'I' for Inactive)
REMARK    1  A    between atoms: C_1  and  C_10
REMARK    2  A    between atoms: C_2  and  C_18
REMARK    3  A    between atoms: C_10  and  C_13
REMARK    4  A    between atoms: C_18  and  C_19
REMARK    5  A    between atoms: C_19  and  N_20
REMARK                            x       y       z     vdW  Elec       q    Type
REMARK                         _______ _______ _______ _____ _____    ______ ____
ROOT
ATOM      1  C   UNL     1       0.005  -0.343  -0.703  0.00  0.00    -0.035 C 
ATOM      2  C   UNL     1       1.289  -0.677  -0.461  0.00  0.00    -0.032 C 
ATOM      3  C   UNL     1       1.419  -2.028   0.215  0.00  0.00    -0.009 C 
ATOM      4  C   UNL     1      -0.836  -1.438  -0.211  0.00  0.00    +0.062 C 
ATOM      5  C   UNL     1      -0.014  -2.435   0.331  0.00  0.00    -0.015 C 
ATOM      6  C   UNL     1      -2.214  -1.588  -0.219  0.00  0.00    -0.018 C 
ATOM      7  C   UNL     1      -0.542  -3.595   0.872  0.00  0.00    -0.004 C 
ATOM      8  C   UNL     1      -2.759  -2.755   0.324  0.00  0.00    -0.004 C 
ATOM      9  C   UNL     1      -1.930  -3.750   0.866  0.00  0.00    -0.001 C 
ENDROOT
BRANCH   1  10
ATOM     10  C   UNL     1      -0.571   0.870  -1.337  0.00  0.00    +0.059 C 
ATOM     11  C   UNL     1      -1.291   0.535  -2.653  0.00  0.00    +0.011 C 
BRANCH  10  13
ATOM     12  N   UNL     1      -2.738   1.815  -0.812  0.00  0.00    -0.248 NA
ATOM     13  C   UNL     1      -1.480   1.641  -0.390  0.00  0.00    +0.062 C 
ATOM     14  C   UNL     1      -0.952   2.088   0.794  0.00  0.00    +0.015 C 
ATOM     15  C   UNL     1      -1.808   2.788   1.637  0.00  0.00    +0.003 C 
ATOM     16  C   UNL     1      -3.540   2.500   0.033  0.00  0.00    +0.098 C 
ATOM     17  C   UNL     1      -3.128   3.003   1.257  0.00  0.00    +0.021 C 
ENDBRANCH  10  13
ENDBRANCH   1  10
BRANCH   2  18
ATOM     18  C   UNL     1       2.524   0.095  -0.771  0.00  0.00    +0.003 C 
BRANCH  18  19
ATOM     19  C   UNL     1       3.338   0.369   0.491  0.00  0.00    -0.073 C 
BRANCH  19  20
ATOM     20  N   UNL     1       4.545   1.118   0.162  0.00  0.00    +0.384 N 
ATOM     21  C   UNL     1       5.367   0.375  -0.795  0.00  0.00    -0.101 C 
ATOM     22  C   UNL     1       5.315   1.412   1.371  0.00  0.00    -0.101 C 
ATOM     23  H   UNL     1       4.267   2.000  -0.267  0.00  0.00    -0.080 HD
ENDBRANCH  19  20
ENDBRANCH  18  19
ENDBRANCH   2  18
TORSDOF 5
