REMARK  Name = 5894
REMARK  5 active torsions:
REMARK  status: ('A' for Active; 'I' for Inactive)
REMARK    1  A    between atoms: C1*_2  and  N_8
REMARK    2  A    between atoms: C2*_3  and  O2*_17
REMARK    3  A    between atoms: C3*_4  and  O3*_19
REMARK    4  A    between atoms: C4*_5  and  C5*_21
REMARK    5  A    between atoms: C5*_21  and  O5*_22
REMARK                            x       y       z     vdW  Elec       q    Type
REMARK                         _______ _______ _______ _____ _____    ______ ____
ROOT
ATOM      1  O4* UNL     1       2.346  -0.354  -0.980  0.00  0.00    -0.333 OA
ATOM      2  C1* UNL     1       1.273   0.375  -0.354  0.00  0.00    +0.224 C 
ATOM      3  C2* UNL     1       1.866   1.014   0.892  0.00  0.00    +0.187 C 
ATOM      4  C3* UNL     1       3.277   1.323   0.431  0.00  0.00    +0.171 C 
ATOM      5  C4* UNL     1       3.604   0.115  -0.442  0.00  0.00    +0.175 C 
ENDROOT
BRANCH   2   8
ATOM      6 CL   UNL     1      -4.096   2.421  -0.627  0.00  0.00    -0.082 Cl
ATOM      7 CL   UNL     1      -5.658  -0.302   0.103  0.00  0.00    -0.086 Cl
ATOM      8  N   UNL     1       0.155  -0.527  -0.086  0.00  0.00    -0.262 N 
ATOM      9  N   UNL     1      -0.917  -2.411   0.421  0.00  0.00    -0.251 NA
ATOM     10  C   UNL     1      -1.180  -0.209  -0.107  0.00  0.00    +0.066 C 
ATOM     11  C   UNL     1       0.259  -1.854   0.235  0.00  0.00    +0.221 C 
ATOM     12  C   UNL     1      -1.827  -1.400   0.212  0.00  0.00    +0.074 C 
ATOM     13  C   UNL     1      -1.855   0.983  -0.370  0.00  0.00    +0.028 C 
ATOM     14  C   UNL     1      -3.231  -1.421   0.276  0.00  0.00    +0.085 C 
ATOM     15  C   UNL     1      -3.252   0.944  -0.302  0.00  0.00    +0.066 C 
ATOM     16  C   UNL     1      -3.929  -0.236   0.015  0.00  0.00    +0.052 C 
ENDBRANCH   2   8
BRANCH   3  17
ATOM     17  O2* UNL     1       1.149   2.167   1.286  0.00  0.00    -0.378 OA
ATOM     18  H2* UNL     1       0.257   1.911   1.570  0.00  0.00    +0.211 HD
ENDBRANCH   3  17
BRANCH   4  19
ATOM     19  O3* UNL     1       3.265   2.492  -0.387  0.00  0.00    -0.379 OA
ATOM     20  H3* UNL     1       3.058   3.267   0.159  0.00  0.00    +0.211 HD
ENDBRANCH   4  19
BRANCH   5  21
ATOM     21  C5* UNL     1       4.248  -1.024   0.338  0.00  0.00    +0.169 C 
BRANCH  21  22
ATOM     22  O5* UNL     1       4.502  -2.096  -0.553  0.00  0.00    -0.379 OA
ATOM     23  H5* UNL     1       4.913  -2.828  -0.068  0.00  0.00    +0.211 HD
ENDBRANCH  21  22
ENDBRANCH   5  21
TORSDOF 5
