REMARK  Name = 11833
REMARK  0 active torsions:
REMARK  status: ('A' for Active; 'I' for Inactive)
REMARK                            x       y       z     vdW  Elec       q    Type
REMARK                         _______ _______ _______ _____ _____    ______ ____
ROOT
ATOM      1  O   UNL     1      -0.894  -1.463   0.000  0.00  0.00    -0.421 OA
ATOM      2  O   UNL     1      -3.175  -1.302   0.000  0.00  0.00    -0.244 OA
ATOM      3  C   UNL     1       0.448   0.579   0.000  0.00  0.00    +0.031 C 
ATOM      4  C   UNL     1      -0.793   1.365   0.000  0.00  0.00    -0.012 C 
ATOM      5  C   UNL     1       0.357  -0.814   0.000  0.00  0.00    +0.148 C 
ATOM      6  C   UNL     1       1.729   1.147   0.000  0.00  0.00    +0.003 C 
ATOM      7  C   UNL     1      -1.969   0.721   0.000  0.00  0.00    +0.078 C 
ATOM      8  C   UNL     1       1.487  -1.635   0.000  0.00  0.00    +0.038 C 
ATOM      9  C   UNL     1      -0.729   2.864   0.000  0.00  0.00    +0.031 C 
ATOM     10  C   UNL     1       2.871   0.337   0.000  0.00  0.00    +0.000 C 
ATOM     11  C   UNL     1       2.749  -1.052   0.000  0.00  0.00    +0.003 C 
ATOM     12  C   UNL     1      -2.081  -0.747   0.001  0.00  0.00    +0.346 C 
ENDROOT
TORSDOF 0
