REMARK  Name = 4369380
REMARK  8 active torsions:
REMARK  status: ('A' for Active; 'I' for Inactive)
REMARK    1  A    between atoms: C_1  and  C_4
REMARK    2  A    between atoms: C_1  and  C_11
REMARK    3  A    between atoms: C_1  and  C_18
REMARK    4  A    between atoms: N_3  and  C_6
REMARK    5  A    between atoms: C_6  and  C_8
REMARK    6  A    between atoms: C_8  and  O_9
REMARK    7  A    between atoms: C_11  and  C_12
REMARK    8  A    between atoms: C_18  and  S_19
REMARK                            x       y       z     vdW  Elec       q    Type
REMARK                         _______ _______ _______ _____ _____    ______ ____
ROOT
ATOM      1  C   UNL     1       0.138   1.716   0.521  0.00  0.00    +0.091 C 
ENDROOT
BRANCH   1   4
ATOM      2  O   UNL     1       1.289   0.760  -1.393  0.00  0.00    -0.275 OA
ATOM      3  N   UNL     1       2.042   0.218   0.732  0.00  0.00    -0.295 N 
ATOM      4  C   UNL     1       1.204   0.856  -0.170  0.00  0.00    +0.224 C 
ATOM      5  H   UNL     1       1.892   0.358   1.695  0.00  0.00    +0.150 HD
BRANCH   3   6
ATOM      6  C   UNL     1       3.126  -0.643   0.320  0.00  0.00    +0.200 C 
BRANCH   6   8
ATOM      7  O   UNL     1       3.480  -2.977  -0.153  0.00  0.00    -0.248 OA
ATOM      8  C   UNL     1       2.709  -2.085   0.178  0.00  0.00    +0.334 C 
BRANCH   8   9
ATOM      9  O   UNL     1       1.401  -2.299   0.450  0.00  0.00    -0.479 OA
ATOM     10  H   UNL     1       0.851  -1.583   0.700  0.00  0.00    +0.295 HD
ENDBRANCH   8   9
ENDBRANCH   6   8
ENDBRANCH   3   6
ENDBRANCH   1   4
BRANCH   1  11
ATOM     11  C   UNL     1      -1.174   1.709  -0.295  0.00  0.00    +0.036 C 
BRANCH  11  12
ATOM     12  C   UNL     1      -1.963   0.428  -0.178  0.00  0.00    -0.022 C 
ATOM     13  C   UNL     1      -1.725  -0.602  -1.075  0.00  0.00    -0.004 C 
ATOM     14  C   UNL     1      -2.912   0.303   0.824  0.00  0.00    -0.004 C 
ATOM     15  C   UNL     1      -2.454  -1.786  -0.967  0.00  0.00    -0.000 C 
ATOM     16  C   UNL     1      -3.642  -0.881   0.932  0.00  0.00    -0.000 C 
ATOM     17  C   UNL     1      -3.413  -1.926   0.036  0.00  0.00    -0.000 C 
ENDBRANCH  11  12
ENDBRANCH   1  11
BRANCH   1  18
ATOM     18  C   UNL     1       0.685   3.121   0.844  0.00  0.00    +0.063 C 
BRANCH  18  19
ATOM     19  S   UNL     1       1.208   4.090  -0.607  0.00  0.00    -0.167 S 
ATOM     20  H   UNL     1       1.669   5.303  -0.199  0.00  0.00    +0.102 HD
ENDBRANCH  18  19
ENDBRANCH   1  18
TORSDOF 8
