REMARK  Name = 11291932
REMARK  3 active torsions:
REMARK  status: ('A' for Active; 'I' for Inactive)
REMARK    1  A    between atoms: C_2  and  C_16
REMARK    2  A    between atoms: C_3  and  C_19
REMARK    3  A    between atoms: C_19  and  C_23
REMARK                            x       y       z     vdW  Elec       q    Type
REMARK                         _______ _______ _______ _____ _____    ______ ____
ROOT
ATOM      1  F   UNL     1      -3.737  -2.490  -1.030  0.00  0.00    -0.204 F 
ATOM      2  C   UNL     1      -2.211  -1.242   0.295  0.00  0.00    +0.081 C 
ATOM      3  C   UNL     1      -0.063  -2.193   0.834  0.00  0.00    -0.016 C 
ATOM      4  C   UNL     1      -0.974  -1.141   0.923  0.00  0.00    +0.003 C 
ATOM      5  C   UNL     1      -2.546  -2.387  -0.423  0.00  0.00    +0.144 C 
ATOM      6  C   UNL     1      -0.394  -3.342   0.116  0.00  0.00    -0.002 C 
ATOM      7  C   UNL     1      -1.635  -3.439  -0.512  0.00  0.00    +0.029 C 
ENDROOT
BRANCH   2  16
ATOM      8  O   UNL     1      -3.943  -0.163   1.345  0.00  0.00    -0.270 OA
ATOM      9  N   UNL     1      -3.118   0.865  -0.588  0.00  0.00    -0.278 N 
ATOM     10  N   UNL     1      -1.012   2.792  -0.209  0.00  0.00    +0.385 N 
ATOM     11  C   UNL     1      -4.051   1.988  -0.509  0.00  0.00    +0.091 C 
ATOM     12  C   UNL     1      -3.438   3.221   0.151  0.00  0.00    -0.002 C 
ATOM     13  C   UNL     1      -2.094   0.969  -1.634  0.00  0.00    +0.070 C 
ATOM     14  C   UNL     1      -2.127   3.695  -0.487  0.00  0.00    -0.080 C 
ATOM     15  C   UNL     1      -0.838   1.720  -1.185  0.00  0.00    -0.060 C 
ATOM     16  C   UNL     1      -3.167  -0.133   0.391  0.00  0.00    +0.251 C 
ATOM     17  H   UNL     1      -1.167   2.367   0.705  0.00  0.00    -0.084 HD
ATOM     18  H   UNL     1      -0.165   3.359  -0.251  0.00  0.00    -0.084 HD
ENDBRANCH   2  16
BRANCH   3  19
ATOM     19  C   UNL     1       1.264  -2.091   1.507  0.00  0.00    +0.074 C 
BRANCH  19  23
ATOM     20  O   UNL     1       3.540   2.858   0.758  0.00  0.00    -0.266 OA
ATOM     21  N   UNL     1       1.645   0.186   2.119  0.00  0.00    -0.174 NA
ATOM     22  N   UNL     1       2.210   1.400   1.926  0.00  0.00    -0.242 N 
ATOM     23  C   UNL     1       1.901  -0.759   1.270  0.00  0.00    +0.083 A 
ATOM     24  C   UNL     1       2.780  -0.581   0.097  0.00  0.00    +0.020 A 
ATOM     25  C   UNL     1       3.352   0.676  -0.082  0.00  0.00    +0.059 A 
ATOM     26  C   UNL     1       3.050  -1.605  -0.814  0.00  0.00    +0.001 C 
ATOM     27  C   UNL     1       3.052   1.740   0.889  0.00  0.00    +0.273 A 
ATOM     28  C   UNL     1       4.195   0.921  -1.170  0.00  0.00    +0.005 C 
ATOM     29  C   UNL     1       3.893  -1.362  -1.900  0.00  0.00    +0.000 C 
ATOM     30  C   UNL     1       4.464  -0.103  -2.078  0.00  0.00    +0.000 C 
ATOM     31  H   UNL     1       2.002   2.102   2.584  0.00  0.00    +0.192 HD
ENDBRANCH  19  23
ENDBRANCH   3  19
TORSDOF 3
