REMARK  Name = 22425
REMARK  7 active torsions:
REMARK  status: ('A' for Active; 'I' for Inactive)
REMARK    1  A    between atoms: C_9  and  O_17
REMARK    2  A    between atoms: O_17  and  C_18
REMARK    3  A    between atoms: C_18  and  C_19
REMARK    4  A    between atoms: C_19  and  O_20
REMARK    5  A    between atoms: O_20  and  C_21
REMARK    6  A    between atoms: C_21  and  C_22
REMARK    7  A    between atoms: C_22  and  N_23
REMARK                            x       y       z     vdW  Elec       q    Type
REMARK                         _______ _______ _______ _____ _____    ______ ____
ROOT
ATOM      1  S   UNL     1       4.004  -2.154   1.210  0.00  0.00    -0.083 S 
ATOM      2  O   UNL     1       2.441   2.595  -0.819  0.00  0.00    -0.225 OA
ATOM      3  N   UNL     1       2.637   0.330  -0.191  0.00  0.00    -0.187 N 
ATOM      4  N   UNL     1       4.742   1.473  -0.413  0.00  0.00    -0.228 NA
ATOM      5  C   UNL     1       1.960  -0.947  -0.256  0.00  0.00    +0.069 C 
ATOM      6  C   UNL     1       4.077   0.348  -0.027  0.00  0.00    +0.150 C 
ATOM      7  C   UNL     1       2.475  -2.118   0.321  0.00  0.00    +0.044 C 
ATOM      8  C   UNL     1       4.780  -0.723   0.527  0.00  0.00    +0.062 C 
ATOM      9  C   UNL     1       1.955   1.566  -0.352  0.00  0.00    +0.414 C 
ATOM     10  C   UNL     1       0.758  -1.071  -0.987  0.00  0.00    +0.016 C 
ATOM     11  C   UNL     1       1.773  -3.334   0.228  0.00  0.00    +0.008 C 
ATOM     12  C   UNL     1       6.176  -0.633   0.640  0.00  0.00    +0.011 C 
ATOM     13  C   UNL     1       0.067  -2.282  -1.083  0.00  0.00    +0.001 C 
ATOM     14  C   UNL     1       0.570  -3.414  -0.465  0.00  0.00    +0.001 C 
ATOM     15  C   UNL     1       6.848   0.502   0.217  0.00  0.00    +0.021 C 
ATOM     16  C   UNL     1       6.087   1.526  -0.294  0.00  0.00    +0.100 C 
ENDROOT
BRANCH   9  17
ATOM     17  O   UNL     1       0.683   1.545   0.169  0.00  0.00    -0.431 OA
BRANCH  17  18
ATOM     18  C   UNL     1      -0.039   2.783   0.140  0.00  0.00    +0.242 C 
BRANCH  18  19
ATOM     19  C   UNL     1      -1.410   2.570   0.752  0.00  0.00    +0.189 C 
BRANCH  19  20
ATOM     20  O   UNL     1      -2.115   1.599  -0.013  0.00  0.00    -0.352 OA
BRANCH  20  21
ATOM     21  C   UNL     1      -3.402   1.343   0.529  0.00  0.00    +0.120 C 
BRANCH  21  22
ATOM     22  C   UNL     1      -4.098   0.302  -0.333  0.00  0.00    -0.045 C 
BRANCH  22  23
ATOM     23  N   UNL     1      -5.424  -0.007   0.199  0.00  0.00    +0.389 N 
ATOM     24  C   UNL     1      -6.382   1.048  -0.163  0.00  0.00    -0.077 C 
ATOM     25  C   UNL     1      -5.877  -1.321  -0.278  0.00  0.00    -0.077 C 
ATOM     26  C   UNL     1      -7.764   0.764   0.428  0.00  0.00    -0.023 C 
ATOM     27  C   UNL     1      -7.242  -1.682   0.309  0.00  0.00    -0.023 C 
ATOM     28  C   UNL     1      -8.278  -0.607   0.004  0.00  0.00    -0.004 C 
ATOM     29  H   UNL     1      -5.368  -0.045   1.217  0.00  0.00    -0.080 HD
ENDBRANCH  22  23
ENDBRANCH  21  22
ENDBRANCH  20  21
ENDBRANCH  19  20
ENDBRANCH  18  19
ENDBRANCH  17  18
ENDBRANCH   9  17
TORSDOF 7
