REMARK  Name = 656902
REMARK  8 active torsions:
REMARK  status: ('A' for Active; 'I' for Inactive)
REMARK    1  A    between atoms: C_2  and  O_7
REMARK    2  A    between atoms: C_3  and  O_9
REMARK    3  A    between atoms: C_4  and  O_11
REMARK    4  A    between atoms: C_5  and  C_23
REMARK    5  A    between atoms: C_6  and  S_13
REMARK    6  A    between atoms: S_13  and  C_14
REMARK    7  A    between atoms: C_19  and  N_22
REMARK    8  A    between atoms: C_23  and  O_24
REMARK                            x       y       z     vdW  Elec       q    Type
REMARK                         _______ _______ _______ _____ _____    ______ ____
ROOT
ATOM      1  O   UNL     1       1.319  -0.372   0.529  0.00  0.00    -0.340 OA
ATOM      2  C   UNL     1       3.920   0.349  -0.449  0.00  0.00    +0.170 C 
ATOM      3  C   UNL     1       3.606  -1.049   0.084  0.00  0.00    +0.169 C 
ATOM      4  C   UNL     1       2.940   1.391   0.101  0.00  0.00    +0.178 C 
ATOM      5  C   UNL     1       2.121  -1.374  -0.097  0.00  0.00    +0.175 C 
ATOM      6  C   UNL     1       1.492   0.918  -0.058  0.00  0.00    +0.196 C 
ENDROOT
BRANCH   2   7
ATOM      7  O   UNL     1       5.237   0.728  -0.046  0.00  0.00    -0.379 OA
ATOM      8  H   UNL     1       5.877   0.081  -0.384  0.00  0.00    +0.211 HD
ENDBRANCH   2   7
BRANCH   3   9
ATOM      9  O   UNL     1       4.381  -2.014  -0.622  0.00  0.00    -0.379 OA
ATOM     10  H   UNL     1       5.324  -1.814  -0.512  0.00  0.00    +0.211 HD
ENDBRANCH   3   9
BRANCH   4  11
ATOM     11  O   UNL     1       3.127   2.610  -0.618  0.00  0.00    -0.379 OA
ATOM     12  H   UNL     1       4.044   2.908  -0.515  0.00  0.00    +0.211 HD
ENDBRANCH   4  11
BRANCH   6  13
ATOM     13  S   UNL     1       0.347   2.110   0.726  0.00  0.00    -0.083 S 
BRANCH  13  14
ATOM     14  C   UNL     1      -1.228   1.333   0.402  0.00  0.00    +0.028 C 
ATOM     15  C   UNL     1      -1.630   1.104  -0.912  0.00  0.00    +0.008 C 
ATOM     16  C   UNL     1      -2.049   0.960   1.463  0.00  0.00    +0.008 C 
ATOM     17  C   UNL     1      -2.860   0.498  -1.166  0.00  0.00    +0.025 C 
ATOM     18  C   UNL     1      -3.279   0.353   1.209  0.00  0.00    +0.025 C 
ATOM     19  C   UNL     1      -3.685   0.123  -0.105  0.00  0.00    +0.143 C 
BRANCH  19  22
ATOM     20  O   UNL     1      -5.284  -0.693  -1.554  0.00  0.00    -0.126 OA
ATOM     21  O   UNL     1      -5.664  -0.825   0.604  0.00  0.00    -0.126 OA
ATOM     22  N   UNL     1      -4.938  -0.494  -0.364  0.00  0.00    +0.058 N 
ENDBRANCH  19  22
ENDBRANCH  13  14
ENDBRANCH   6  13
BRANCH   5  23
ATOM     23  C   UNL     1       1.755  -2.714   0.534  0.00  0.00    +0.169 C 
BRANCH  23  24
ATOM     24  O   UNL     1       0.372  -2.942   0.338  0.00  0.00    -0.379 OA
ATOM     25  H   UNL     1       0.125  -3.792   0.735  0.00  0.00    +0.211 HD
ENDBRANCH  23  24
ENDBRANCH   5  23
TORSDOF 8
