REMARK  Name = 11581936
REMARK  5 active torsions:
REMARK  status: ('A' for Active; 'I' for Inactive)
REMARK    1  A    between atoms: C_1  and  C_9
REMARK    2  A    between atoms: C_4  and  O_19
REMARK    3  A    between atoms: C_10  and  C_14
REMARK    4  A    between atoms: O_19  and  C_20
REMARK    5  A    between atoms: C_20  and  C_22
REMARK                            x       y       z     vdW  Elec       q    Type
REMARK                         _______ _______ _______ _____ _____    ______ ____
ROOT
ATOM      1  C   UNL     1       2.475   1.095  -0.150  0.00  0.00    +0.019 C 
ATOM      2  C   UNL     1       1.698   1.079   1.008  0.00  0.00    +0.005 C 
ATOM      3  C   UNL     1       1.863   1.040  -1.402  0.00  0.00    +0.005 C 
ATOM      4  C   UNL     1      -0.295   0.954  -0.338  0.00  0.00    +0.139 C 
ATOM      5  C   UNL     1       0.308   1.008   0.913  0.00  0.00    +0.037 C 
ATOM      6  C   UNL     1       0.473   0.970  -1.497  0.00  0.00    +0.037 C 
ENDROOT
BRANCH   1   9
ATOM      7  N   UNL     1       5.822   2.030   0.063  0.00  0.00    -0.208 N 
ATOM      8  N   UNL     1       4.522   2.357  -0.031  0.00  0.00    -0.178 NA
ATOM      9  C   UNL     1       3.906   1.168  -0.053  0.00  0.00    +0.100 C 
ATOM     10  C   UNL     1       4.815   0.092   0.027  0.00  0.00    +0.036 C 
ATOM     11  C   UNL     1       6.051   0.686   0.102  0.00  0.00    +0.086 C 
ATOM     12  C   UNL     1       6.820   3.071   0.113  0.00  0.00    +0.140 C 
BRANCH  10  14
ATOM     13  N   UNL     1       4.230  -4.098   0.054  0.00  0.00    -0.242 NA
ATOM     14  C   UNL     1       4.618  -1.326   0.036  0.00  0.00    +0.006 C 
ATOM     15  C   UNL     1       4.440  -2.002   1.240  0.00  0.00    +0.021 C 
ATOM     16  C   UNL     1       4.601  -2.040  -1.159  0.00  0.00    +0.021 C 
ATOM     17  C   UNL     1       4.252  -3.374   1.195  0.00  0.00    +0.099 C 
ATOM     18  C   UNL     1       4.406  -3.410  -1.097  0.00  0.00    +0.099 C 
ENDBRANCH  10  14
ENDBRANCH   1   9
BRANCH   4  19
ATOM     19  O   UNL     1      -1.661   0.885  -0.431  0.00  0.00    -0.468 OA
BRANCH  19  20
ATOM     20  C   UNL     1      -2.386   0.874   0.792  0.00  0.00    +0.264 C 
BRANCH  20  22
ATOM     21  N   UNL     1      -4.345  -0.500   0.423  0.00  0.00    -0.406 NA
ATOM     22  C   UNL     1      -3.845   0.755   0.500  0.00  0.00    +0.152 C 
ATOM     23  C   UNL     1      -6.507   0.462  -0.033  0.00  0.00    +0.026 C 
ATOM     24  C   UNL     1      -5.658  -0.647   0.161  0.00  0.00    +0.113 C 
ATOM     25  C   UNL     1      -4.597   1.899   0.325  0.00  0.00    +0.031 C 
ATOM     26  C   UNL     1      -5.949   1.744   0.055  0.00  0.00    +0.005 C 
ATOM     27  C   UNL     1      -7.872   0.271  -0.306  0.00  0.00    +0.002 C 
ATOM     28  C   UNL     1      -6.213  -1.921   0.074  0.00  0.00    +0.085 C 
ATOM     29  C   UNL     1      -8.402  -1.014  -0.388  0.00  0.00    -0.004 C 
ATOM     30  C   UNL     1      -7.571  -2.111  -0.198  0.00  0.00    -0.019 C 
ENDBRANCH  20  22
ENDBRANCH  19  20
ENDBRANCH   4  19
TORSDOF 5
