REMARK  Name = 24754814
REMARK  9 active torsions:
REMARK  status: ('A' for Active; 'I' for Inactive)
REMARK    1  A    between atoms: C_3  and  C_8
REMARK    2  A    between atoms: C_7  and  C_20
REMARK    3  A    between atoms: C_8  and  O_9
REMARK    4  A    between atoms: O_9  and  C_11
REMARK    5  A    between atoms: C_11  and  C_12
REMARK    6  A    between atoms: C_12  and  C_14
REMARK    7  A    between atoms: C_20  and  N_22
REMARK    8  A    between atoms: C_23  and  O_25
REMARK    9  A    between atoms: O_25  and  C_26
REMARK                            x       y       z     vdW  Elec       q    Type
REMARK                         _______ _______ _______ _____ _____    ______ ____
ROOT
ATOM      1  O   UNL     1       1.814   0.115  -1.169  0.00  0.00    -0.273 OA
ATOM      2  N   UNL     1       3.353  -1.085   0.075  0.00  0.00    -0.276 N 
ATOM      3  C   UNL     1       3.032  -2.399  -0.484  0.00  0.00    +0.119 C 
ATOM      4  C   UNL     1       4.215  -3.273  -0.061  0.00  0.00    +0.025 C 
ATOM      5  C   UNL     1       4.647  -2.663   1.267  0.00  0.00    +0.023 C 
ATOM      6  C   UNL     1       4.446  -1.173   1.040  0.00  0.00    +0.094 C 
ATOM      7  C   UNL     1       2.736   0.080  -0.352  0.00  0.00    +0.246 C 
ENDROOT
BRANCH   3   8
ATOM      8  C   UNL     1       1.703  -2.926   0.055  0.00  0.00    +0.228 C 
BRANCH   8   9
ATOM      9  O   UNL     1       0.654  -2.372  -0.717  0.00  0.00    -0.446 OA
BRANCH   9  11
ATOM     10  O   UNL     1      -0.901  -3.507   0.553  0.00  0.00    -0.250 OA
ATOM     11  C   UNL     1      -0.619  -2.745  -0.362  0.00  0.00    +0.322 C 
BRANCH  11  12
ATOM     12  C   UNL     1      -1.613  -2.071  -1.278  0.00  0.00    +0.136 C 
BRANCH  12  14
ATOM     13 CL   UNL     1      -4.564   1.227   1.476  0.00  0.00    -0.082 Cl
ATOM     14  C   UNL     1      -2.926  -1.772  -0.604  0.00  0.00    -0.010 C 
ATOM     15  C   UNL     1      -3.115  -0.554   0.048  0.00  0.00    +0.008 C 
ATOM     16  C   UNL     1      -3.954  -2.715  -0.631  0.00  0.00    -0.004 C 
ATOM     17  C   UNL     1      -4.331  -0.277   0.673  0.00  0.00    +0.057 C 
ATOM     18  C   UNL     1      -5.171  -2.438  -0.006  0.00  0.00    +0.001 C 
ATOM     19  C   UNL     1      -5.359  -1.220   0.645  0.00  0.00    +0.011 C 
ENDBRANCH  12  14
ENDBRANCH  11  12
ENDBRANCH   9  11
ENDBRANCH   8   9
ENDBRANCH   3   8
BRANCH   7  20
ATOM     20  C   UNL     1       3.261   1.356   0.256  0.00  0.00    +0.178 C 
BRANCH  20  22
ATOM     21  O   UNL     1       0.757   2.520   1.157  0.00  0.00    -0.226 OA
ATOM     22  N   UNL     1       2.516   2.405  -0.357  0.00  0.00    -0.262 N 
ATOM     23  C   UNL     1       1.319   2.910   0.139  0.00  0.00    +0.402 C 
ATOM     24  H   UNL     1       2.872   2.799  -1.186  0.00  0.00    +0.153 HD
BRANCH  23  25
ATOM     25  O   UNL     1       0.853   3.907  -0.671  0.00  0.00    -0.442 OA
BRANCH  25  26
ATOM     26  C   UNL     1      -0.380   4.513  -0.269  0.00  0.00    +0.138 C 
ATOM     27  C   UNL     1      -1.466   3.438  -0.246  0.00  0.00    +0.044 C 
ATOM     28  C   UNL     1      -0.191   5.126   1.118  0.00  0.00    +0.044 C 
ATOM     29  C   UNL     1      -0.717   5.595  -1.293  0.00  0.00    +0.044 C 
ENDBRANCH  25  26
ENDBRANCH  23  25
ENDBRANCH  20  22
ENDBRANCH   7  20
TORSDOF 9
