REMARK  Name = 3242
REMARK  2 active torsions:
REMARK  status: ('A' for Active; 'I' for Inactive)
REMARK    1  A    between atoms: C_5  and  O_14
REMARK    2  A    between atoms: C_11  and  O_16
REMARK                            x       y       z     vdW  Elec       q    Type
REMARK                         _______ _______ _______ _____ _____    ______ ____
ROOT
ATOM      1  N   UNL     1       1.043   0.331   0.001  0.00  0.00    -0.079 N 
ATOM      2  N   UNL     1       1.819   1.433   0.000  0.00  0.00    -0.165 NA
ATOM      3  N   UNL     1      -0.832   1.707   0.001  0.00  0.00    -0.335 NA
ATOM      4  N   UNL     1      -1.046  -0.693   0.000  0.00  0.00    -0.293 NA
ATOM      5  C   UNL     1       1.758  -0.836   0.000  0.00  0.00    +0.229 C 
ATOM      6  C   UNL     1      -0.340   0.454   0.001  0.00  0.00    +0.231 C 
ATOM      7  C   UNL     1       3.059   0.937  -0.001  0.00  0.00    +0.082 C 
ATOM      8  C   UNL     1       3.082  -0.471  -0.001  0.00  0.00    +0.072 C 
ATOM      9  C   UNL     1      -2.179   1.789   0.000  0.00  0.00    +0.111 C 
ATOM     10  C   UNL     1       4.212   1.852  -0.001  0.00  0.00    +0.054 C 
ATOM     11  C   UNL     1      -2.386  -0.537   0.000  0.00  0.00    +0.272 C 
ATOM     12  C   UNL     1      -3.014   0.691   0.000  0.00  0.00    +0.155 C 
ATOM     13  C   UNL     1      -2.767   3.160   0.000  0.00  0.00    +0.063 C 
ENDROOT
BRANCH   5  14
ATOM     14  O   UNL     1       1.172  -2.025   0.001  0.00  0.00    -0.457 OA
ATOM     15  C   UNL     1       2.010  -3.200   0.000  0.00  0.00    +0.254 C 
ENDBRANCH   5  14
BRANCH  11  16
ATOM     16  O   UNL     1      -3.146  -1.677  -0.001  0.00  0.00    -0.450 OA
ATOM     17  C   UNL     1      -2.445  -2.915  -0.001  0.00  0.00    +0.255 C 
ENDBRANCH  11  16
TORSDOF 2
