REMARK  Name = 3718
REMARK  4 active torsions:
REMARK  status: ('A' for Active; 'I' for Inactive)
REMARK    1  A    between atoms: C_1  and  N_8
REMARK    2  A    between atoms: C_2  and  C_17
REMARK    3  A    between atoms: C_17  and  C_20
REMARK    4  A    between atoms: C_20  and  O_21
REMARK                            x       y       z     vdW  Elec       q    Type
REMARK                         _______ _______ _______ _____ _____    ______ ____
ROOT
ATOM      1  C   UNL     1      -0.146   0.057  -0.167  0.00  0.00    +0.054 C 
ATOM      2  C   UNL     1      -2.928   0.293  -0.307  0.00  0.00    -0.012 C 
ATOM      3  C   UNL     1      -0.753   1.309  -0.037  0.00  0.00    +0.015 C 
ATOM      4  C   UNL     1      -0.939  -1.077  -0.367  0.00  0.00    +0.015 C 
ATOM      5  C   UNL     1      -2.141   1.427  -0.107  0.00  0.00    -0.002 C 
ATOM      6  C   UNL     1      -2.327  -0.959  -0.437  0.00  0.00    -0.002 C 
ENDROOT
BRANCH   1   8
ATOM      7  O   UNL     1       1.861   2.202   0.241  0.00  0.00    -0.270 OA
ATOM      8  N   UNL     1       1.237  -0.061  -0.098  0.00  0.00    -0.251 N 
ATOM      9  C   UNL     1       1.963  -1.327  -0.222  0.00  0.00    +0.125 C 
ATOM     10  C   UNL     1       3.385  -0.911  -0.080  0.00  0.00    +0.002 C 
ATOM     11  C   UNL     1       3.470   0.463   0.110  0.00  0.00    +0.052 C 
ATOM     12  C   UNL     1       2.112   1.019   0.100  0.00  0.00    +0.253 C 
ATOM     13  C   UNL     1       4.530  -1.686  -0.112  0.00  0.00    -0.002 C 
ATOM     14  C   UNL     1       4.676   1.120   0.272  0.00  0.00    +0.004 C 
ATOM     15  C   UNL     1       5.764  -1.047   0.050  0.00  0.00    -0.000 C 
ATOM     16  C   UNL     1       5.836   0.344   0.241  0.00  0.00    +0.000 C 
ENDBRANCH   1   8
BRANCH   2  17
ATOM     17  C   UNL     1      -4.412   0.420  -0.382  0.00  0.00    +0.121 C 
ATOM     18  C   UNL     1      -5.012  -0.034  -1.728  0.00  0.00    +0.016 C 
BRANCH  17  20
ATOM     19  O   UNL     1      -4.563  -0.997   1.603  0.00  0.00    -0.250 OA
ATOM     20  C   UNL     1      -5.130  -0.338   0.741  0.00  0.00    +0.317 C 
BRANCH  20  21
ATOM     21  O   UNL     1      -6.483  -0.216   0.687  0.00  0.00    -0.480 OA
ATOM     22  H   UNL     1      -6.880   0.298   0.011  0.00  0.00    +0.295 HD
ENDBRANCH  20  21
ENDBRANCH  17  20
ENDBRANCH   2  17
TORSDOF 4
