REMARK  Name = 12092
REMARK  3 active torsions:
REMARK  status: ('A' for Active; 'I' for Inactive)
REMARK    1  A    between atoms: C_1  and  N_7
REMARK    2  A    between atoms: C_4  and  C_11
REMARK    3  A    between atoms: C_11  and  O_12
REMARK                            x       y       z     vdW  Elec       q    Type
REMARK                         _______ _______ _______ _____ _____    ______ ____
ROOT
ATOM      1  C   UNL     1       1.387   0.007  -0.004  0.00  0.00    +0.048 C 
ATOM      2  C   UNL     1       0.702   1.212  -0.163  0.00  0.00    +0.015 C 
ATOM      3  C   UNL     1       0.677  -1.183   0.154  0.00  0.00    +0.015 C 
ATOM      4  C   UNL     1      -1.403   0.036  -0.005  0.00  0.00    +0.076 C 
ATOM      5  C   UNL     1      -0.693   1.226  -0.163  0.00  0.00    +0.008 C 
ATOM      6  C   UNL     1      -0.718  -1.169   0.153  0.00  0.00    +0.008 C 
ENDROOT
BRANCH   1   7
ATOM      7  N   UNL     1       2.797  -0.008  -0.002  0.00  0.00    -0.304 N 
ATOM      8  C   UNL     1       3.542   1.139   0.477  0.00  0.00    +0.112 C 
ATOM      9  C   UNL     1       3.519  -1.176  -0.466  0.00  0.00    +0.112 C 
ENDBRANCH   1   7
BRANCH   4  11
ATOM     10  O   UNL     1      -3.563   1.057  -0.136  0.00  0.00    -0.245 OA
ATOM     11  C   UNL     1      -2.857   0.051  -0.005  0.00  0.00    +0.338 C 
BRANCH  11  12
ATOM     12  O   UNL     1      -3.391  -1.191   0.159  0.00  0.00    -0.477 OA
ATOM     13  H   UNL     1      -2.828  -1.933   0.255  0.00  0.00    +0.295 HD
ENDBRANCH  11  12
ENDBRANCH   4  11
TORSDOF 3
