REMARK  Name = 2726820
REMARK  0 active torsions:
REMARK  status: ('A' for Active; 'I' for Inactive)
REMARK                            x       y       z     vdW  Elec       q    Type
REMARK                         _______ _______ _______ _____ _____    ______ ____
ROOT
ATOM      1  S   UNL     1      -3.167  -0.406   0.423  0.00  0.00    -0.139 S 
ATOM      2  N   UNL     1       0.914   1.441   0.045  0.00  0.00    -0.337 NA
ATOM      3  N   UNL     1       2.019  -0.692  -0.013  0.00  0.00    -0.337 NA
ATOM      4  N   UNL     1       3.255   1.298   0.044  0.00  0.00    -0.283 N 
ATOM      5  C   UNL     1      -0.403  -0.577   0.003  0.00  0.00    +0.109 C 
ATOM      6  C   UNL     1      -1.486   1.720   0.089  0.00  0.00    +0.067 C 
ATOM      7  C   UNL     1      -0.287   0.811   0.022  0.00  0.00    +0.108 C 
ATOM      8  C   UNL     1      -1.693  -1.338  -0.061  0.00  0.00    +0.071 C 
ATOM      9  C   UNL     1      -2.778   1.128  -0.457  0.00  0.00    +0.065 C 
ATOM     10  C   UNL     1       0.801  -1.270  -0.027  0.00  0.00    +0.107 C 
ATOM     11  C   UNL     1       0.826  -2.764  -0.092  0.00  0.00    +0.063 C 
ATOM     12  C   UNL     1       2.001   0.649   0.024  0.00  0.00    +0.195 C 
ATOM     13  H   UNL     1       3.300   2.281   0.071  0.00  0.00    +0.156 HD
ATOM     14  H   UNL     1       4.084   0.767   0.030  0.00  0.00    +0.156 HD
ENDROOT
TORSDOF 0
