REMARK  Name = 440917
REMARK  1 active torsions:
REMARK  status: ('A' for Active; 'I' for Inactive)
REMARK    1  A    between atoms: C_1  and  C_8
REMARK                            x       y       z     vdW  Elec       q    Type
REMARK                         _______ _______ _______ _____ _____    ______ ____
ROOT
ATOM      1  C   UNL     1       0.724   0.047  -0.337  0.00  0.00    +0.023 C 
ATOM      2  C   UNL     1       0.028   1.209   0.381  0.00  0.00    +0.009 C 
ATOM      3  C   UNL     1       0.032  -1.281   0.012  0.00  0.00    +0.029 C 
ATOM      4  C   UNL     1      -1.452   1.297  -0.009  0.00  0.00    +0.022 C 
ATOM      5  C   UNL     1      -2.149  -0.040  -0.042  0.00  0.00    -0.048 C 
ATOM      6  C   UNL     1      -1.467  -1.197  -0.016  0.00  0.00    -0.034 C 
ATOM      7  C   UNL     1      -3.647  -0.003  -0.108  0.00  0.00    +0.026 C 
ENDROOT
BRANCH   1   8
ATOM      8  C   UNL     1       2.183  -0.005   0.003  0.00  0.00    -0.044 C 
ATOM      9  C   UNL     1       3.135   0.168  -1.143  0.00  0.00    +0.026 C 
ATOM     10  C   UNL     1       2.612  -0.196   1.259  0.00  0.00    -0.009 C 
ENDBRANCH   1   8
TORSDOF 1
