REMARK  Name = 9998128
REMARK  2 active torsions:
REMARK  status: ('A' for Active; 'I' for Inactive)
REMARK    1  A    between atoms: N_1  and  C_15
REMARK    2  A    between atoms: C_7  and  C_24
REMARK                            x       y       z     vdW  Elec       q    Type
REMARK                         _______ _______ _______ _____ _____    ______ ____
ROOT
ATOM      1  N   UNL     1      -0.687   1.843  -0.710  0.00  0.00    -0.290 N 
ATOM      2  N   UNL     1       0.717  -0.016  -0.379  0.00  0.00    -0.327 NA
ATOM      3  N   UNL     1       3.022   0.282   0.256  0.00  0.00    -0.342 NA
ATOM      4  C   UNL     1       1.625   2.203  -0.072  0.00  0.00    +0.143 C 
ATOM      5  C   UNL     1       0.589   1.324  -0.378  0.00  0.00    +0.184 C 
ATOM      6  C   UNL     1       2.860   1.617   0.248  0.00  0.00    +0.133 C 
ATOM      7  C   UNL     1       1.942  -0.462  -0.058  0.00  0.00    +0.165 C 
ATOM      8  C   UNL     1       1.467   3.600  -0.078  0.00  0.00    -0.011 C 
ATOM      9  C   UNL     1       3.921   2.464   0.559  0.00  0.00    +0.029 C 
ATOM     10  C   UNL     1       2.543   4.423   0.237  0.00  0.00    -0.004 C 
ATOM     11  C   UNL     1       3.772   3.854   0.556  0.00  0.00    +0.002 C 
ATOM     12  H   UNL     1      -0.656   2.726  -1.146  0.00  0.00    +0.154 HD
ENDROOT
BRANCH   1  15
ATOM     13  N   UNL     1      -5.695  -0.264   0.194  0.00  0.00    -0.236 N 
ATOM     14  N   UNL     1      -5.541  -1.004   1.305  0.00  0.00    -0.180 NA
ATOM     15  C   UNL     1      -1.987   1.342  -0.539  0.00  0.00    +0.050 C 
ATOM     16  C   UNL     1      -3.577   0.001   0.697  0.00  0.00    +0.037 C 
ATOM     17  C   UNL     1      -4.554   0.365  -0.223  0.00  0.00    +0.067 C 
ATOM     18  C   UNL     1      -2.270   0.493   0.544  0.00  0.00    +0.018 C 
ATOM     19  C   UNL     1      -2.995   1.688  -1.448  0.00  0.00    +0.016 C 
ATOM     20  C   UNL     1      -4.301   1.207  -1.309  0.00  0.00    +0.017 C 
ATOM     21  C   UNL     1      -4.251  -0.840   1.608  0.00  0.00    +0.119 C 
ATOM     22  H   UNL     1      -6.555  -0.182  -0.278  0.00  0.00    +0.174 HD
ENDBRANCH   1  15
BRANCH   7  24
ATOM     23  N   UNL     1       1.023  -2.611  -0.364  0.00  0.00    -0.398 NA
ATOM     24  C   UNL     1       2.123  -1.890  -0.047  0.00  0.00    +0.197 C 
ATOM     25  C   UNL     1       3.350  -2.455   0.271  0.00  0.00    +0.098 C 
ATOM     26  C   UNL     1       1.161  -3.956  -0.362  0.00  0.00    +0.110 C 
ATOM     27  C   UNL     1       3.453  -3.841   0.263  0.00  0.00    -0.016 C 
ATOM     28  C   UNL     1       2.342  -4.614  -0.059  0.00  0.00    +0.023 C 
ATOM     29  C   UNL     1      -0.051  -4.753  -0.711  0.00  0.00    +0.066 C 
ENDBRANCH   7  24
TORSDOF 2
