REMARK  Name = 2405215
REMARK  2 active torsions:
REMARK  status: ('A' for Active; 'I' for Inactive)
REMARK    1  A    between atoms: N_2  and  N_15
REMARK    2  A    between atoms: C_5  and  C_8
REMARK                            x       y       z     vdW  Elec       q    Type
REMARK                         _______ _______ _______ _____ _____    ______ ____
ROOT
ATOM      1  S   UNL     1       4.285  -0.246   0.672  0.00  0.00    -0.010 S 
ATOM      2  N   UNL     1       1.533  -0.273   0.564  0.00  0.00    -0.225 N 
ATOM      3  N   UNL     1       1.168   0.332  -1.552  0.00  0.00    -0.152 NA
ATOM      4  N   UNL     1       2.517   0.310  -1.312  0.00  0.00    -0.253 N 
ATOM      5  C   UNL     1       0.622  -0.013  -0.417  0.00  0.00    +0.180 A 
ATOM      6  C   UNL     1       2.774  -0.076   0.007  0.00  0.00    +0.193 A 
ATOM      7  H   UNL     1       3.208   0.535  -1.976  0.00  0.00    +0.191 HD
ENDROOT
BRANCH   5   8
ATOM      8  C   UNL     1      -0.828  -0.126  -0.221  0.00  0.00    +0.033 C 
ATOM      9  C   UNL     1      -1.586   0.966   0.202  0.00  0.00    -0.019 C 
ATOM     10  C   UNL     1      -1.448  -1.352  -0.466  0.00  0.00    +0.003 C 
ATOM     11  C   UNL     1      -2.963   0.832   0.381  0.00  0.00    -0.004 C 
ATOM     12  C   UNL     1      -0.949   2.290   0.472  0.00  0.00    +0.031 C 
ATOM     13  C   UNL     1      -2.824  -1.486  -0.287  0.00  0.00    +0.000 C 
ATOM     14  C   UNL     1      -3.582  -0.394   0.137  0.00  0.00    -0.000 C 
ENDBRANCH   5   8
BRANCH   2  15
ATOM     15  N   UNL     1       1.283  -0.763   1.819  0.00  0.00    -0.295 N 
ATOM     16  H   UNL     1       0.355  -0.869   2.131  0.00  0.00    +0.163 HD
ATOM     17  H   UNL     1       2.032  -1.009   2.409  0.00  0.00    +0.163 HD
ENDBRANCH   2  15
TORSDOF 2
