REMARK  Name = 2817424
REMARK  6 active torsions:
REMARK  status: ('A' for Active; 'I' for Inactive)
REMARK    1  A    between atoms: C_4  and  C_7
REMARK    2  A    between atoms: C_5  and  S_14
REMARK    3  A    between atoms: C_9  and  N_13
REMARK    4  A    between atoms: S_14  and  C_15
REMARK    5  A    between atoms: C_15  and  C_17
REMARK    6  A    between atoms: C_17  and  O_18
REMARK                            x       y       z     vdW  Elec       q    Type
REMARK                         _______ _______ _______ _____ _____    ______ ____
ROOT
ATOM      1  O   UNL     1      -1.004   0.102   0.000  0.00  0.00    -0.408 OA
ATOM      2  N   UNL     1       0.240   1.959   0.086  0.00  0.00    -0.103 NA
ATOM      3  N   UNL     1      -1.090   2.335   0.102  0.00  0.00    -0.101 NA
ATOM      4  C   UNL     1       0.240   0.649   0.027  0.00  0.00    +0.285 A 
ATOM      5  C   UNL     1      -1.780   1.220   0.050  0.00  0.00    +0.279 A 
ENDROOT
BRANCH   4   7
ATOM      6  O   UNL     1       2.663   0.436   0.018  0.00  0.00    -0.428 OA
ATOM      7  C   UNL     1       1.427  -0.128  -0.009  0.00  0.00    +0.202 C 
ATOM      8  C   UNL     1       1.523  -1.499  -0.072  0.00  0.00    +0.047 C 
ATOM      9  C   UNL     1       3.558  -0.585  -0.029  0.00  0.00    +0.289 C 
ATOM     10  C   UNL     1       2.907  -1.796  -0.085  0.00  0.00    +0.066 C 
BRANCH   9  13
ATOM     11  O   UNL     1       5.807  -1.093  -0.048  0.00  0.00    -0.123 OA
ATOM     12  O   UNL     1       5.214   1.018   0.046  0.00  0.00    -0.123 OA
ATOM     13  N   UNL     1       4.902  -0.208  -0.009  0.00  0.00    +0.093 N 
ENDBRANCH   9  13
ENDBRANCH   4   7
BRANCH   5  14
ATOM     14  S   UNL     1      -3.517   1.158   0.041  0.00  0.00    -0.043 S 
BRANCH  14  15
ATOM     15  C   UNL     1      -3.867  -0.631  -0.040  0.00  0.00    +0.176 C 
BRANCH  15  17
ATOM     16  O   UNL     1      -6.156  -0.055  -0.528  0.00  0.00    -0.249 OA
ATOM     17  C   UNL     1      -5.352  -0.849  -0.054  0.00  0.00    +0.325 C 
BRANCH  17  18
ATOM     18  O   UNL     1      -5.714  -2.032   0.502  0.00  0.00    -0.480 OA
ATOM     19  H   UNL     1      -5.060  -2.605   0.851  0.00  0.00    +0.295 HD
ENDBRANCH  17  18
ENDBRANCH  15  17
ENDBRANCH  14  15
ENDBRANCH   5  14
TORSDOF 6
