REMARK  Name = 44263483
REMARK  6 active torsions:
REMARK  status: ('A' for Active; 'I' for Inactive)
REMARK    1  A    between atoms: C_5  and  O_17
REMARK    2  A    between atoms: C_6  and  O_19
REMARK    3  A    between atoms: C_7  and  O_21
REMARK    4  A    between atoms: C_8  and  C_23
REMARK    5  A    between atoms: C_10  and  C_11
REMARK    6  A    between atoms: C_23  and  O_24
REMARK                            x       y       z     vdW  Elec       q    Type
REMARK                         _______ _______ _______ _____ _____    ______ ____
ROOT
ATOM      1  O   UNL     1      -1.170   0.785   0.564  0.00  0.00    -0.319 OA
ATOM      2  O   UNL     1      -0.514  -0.541  -1.304  0.00  0.00    -0.354 OA
ATOM      3  N   UNL     1       0.849  -0.202  -1.470  0.00  0.00    -0.085 NA
ATOM      4  C   UNL     1      -0.803  -0.525   0.105  0.00  0.00    +0.288 C 
ATOM      5  C   UNL     1      -1.918  -1.525   0.438  0.00  0.00    +0.207 C 
ATOM      6  C   UNL     1      -3.256  -1.072  -0.149  0.00  0.00    +0.173 C 
ATOM      7  C   UNL     1      -3.553   0.374   0.250  0.00  0.00    +0.169 C 
ATOM      8  C   UNL     1      -2.361   1.287  -0.048  0.00  0.00    +0.177 C 
ATOM      9  C   UNL     1       0.524  -0.895   0.748  0.00  0.00    +0.124 C 
ATOM     10  C   UNL     1       1.429  -0.389  -0.328  0.00  0.00    +0.103 C 
ENDROOT
BRANCH  10  11
ATOM     11  C   UNL     1       2.870  -0.156  -0.098  0.00  0.00    +0.017 C 
ATOM     12  C   UNL     1       3.428  -0.408   1.155  0.00  0.00    +0.001 C 
ATOM     13  C   UNL     1       3.673   0.318  -1.136  0.00  0.00    +0.001 C 
ATOM     14  C   UNL     1       4.788  -0.188   1.370  0.00  0.00    +0.000 C 
ATOM     15  C   UNL     1       5.033   0.538  -0.921  0.00  0.00    +0.000 C 
ATOM     16  C   UNL     1       5.591   0.285   0.333  0.00  0.00    +0.000 C 
ENDBRANCH  10  11
BRANCH   5  17
ATOM     17  O   UNL     1      -1.580  -2.810  -0.077  0.00  0.00    -0.377 OA
ATOM     18  H   UNL     1      -0.732  -3.095   0.296  0.00  0.00    +0.211 HD
ENDBRANCH   5  17
BRANCH   6  19
ATOM     19  O   UNL     1      -4.305  -1.894   0.365  0.00  0.00    -0.379 OA
ATOM     20  H   UNL     1      -4.138  -2.819   0.124  0.00  0.00    +0.211 HD
ENDBRANCH   6  19
BRANCH   7  21
ATOM     21  O   UNL     1      -4.691   0.838  -0.473  0.00  0.00    -0.379 OA
ATOM     22  H   UNL     1      -5.449   0.263  -0.287  0.00  0.00    +0.211 HD
ENDBRANCH   7  21
BRANCH   8  23
ATOM     23  C   UNL     1      -2.587   2.698   0.488  0.00  0.00    +0.169 C 
BRANCH  23  24
ATOM     24  O   UNL     1      -1.446   3.481   0.188  0.00  0.00    -0.379 OA
ATOM     25  H   UNL     1      -1.575   4.382   0.523  0.00  0.00    +0.211 HD
ENDBRANCH  23  24
ENDBRANCH   8  23
TORSDOF 6
