REMARK  Name = 9868491
REMARK  15 active torsions:
REMARK  status: ('A' for Active; 'I' for Inactive)
REMARK    1  A    between atoms: C_1  and  C_23
REMARK    2  A    between atoms: C_2  and  C_10
REMARK    3  A    between atoms: C_3  and  O_6
REMARK    4  A    between atoms: C_4  and  O_8
REMARK    5  A    between atoms: C_11  and  C_14
REMARK    6  A    between atoms: C_14  and  C_15
REMARK    7  A    between atoms: C_15  and  O_16
REMARK    8  A    between atoms: O_16  and  C_17
REMARK    9  A    between atoms: C_23  and  C_24
REMARK   10  A    between atoms: C_25  and  C_26
REMARK   11  A    between atoms: C_26  and  C_27
REMARK   12  A    between atoms: C_27  and  C_28
REMARK   13  A    between atoms: C_28  and  C_30
REMARK   14  A    between atoms: C_30  and  O_31
REMARK   15  A    between atoms: O_31  and  C_32
REMARK                            x       y       z     vdW  Elec       q    Type
REMARK                         _______ _______ _______ _____ _____    ______ ____
ROOT
ATOM      1  C   UNL     1      -1.750  -1.751   1.322  0.00  0.00    +0.038 C 
ATOM      2  C   UNL     1      -1.219  -2.449   0.059  0.00  0.00    +0.051 C 
ATOM      3  C   UNL     1      -3.265  -1.922   1.177  0.00  0.00    +0.114 C 
ATOM      4  C   UNL     1      -2.139  -3.672  -0.101  0.00  0.00    +0.117 C 
ATOM      5  C   UNL     1      -3.417  -3.365   0.697  0.00  0.00    +0.059 C 
ENDROOT
BRANCH   3   6
ATOM      6  O   UNL     1      -3.826  -1.025   0.225  0.00  0.00    -0.384 OA
ATOM      7  H   UNL     1      -3.724  -0.114   0.540  0.00  0.00    +0.210 HD
ENDBRANCH   3   6
BRANCH   4   8
ATOM      8  O   UNL     1      -2.467  -3.863  -1.472  0.00  0.00    -0.384 OA
ATOM      9  H   UNL     1      -1.660  -4.056  -1.973  0.00  0.00    +0.210 HD
ENDBRANCH   4   8
BRANCH   2  10
ATOM     10  C   UNL     1       0.224  -2.837   0.152  0.00  0.00    -0.023 C 
ATOM     11  C   UNL     1       1.165  -2.419  -0.706  0.00  0.00    +0.038 C 
BRANCH  11  14
ATOM     12  F   UNL     1       2.974  -3.457  -1.770  0.00  0.00    -0.196 F 
ATOM     13  F   UNL     1       2.854  -3.670   0.391  0.00  0.00    -0.196 F 
ATOM     14  C   UNL     1       2.612  -2.804  -0.631  0.00  0.00    +0.322 C 
BRANCH  14  15
ATOM     15  C   UNL     1       3.509  -1.588  -0.461  0.00  0.00    +0.276 C 
BRANCH  15  16
ATOM     16  O   UNL     1       3.133  -0.904   0.729  0.00  0.00    -0.469 OA
BRANCH  16  17
ATOM     17  C   UNL     1       3.342   0.449   0.754  0.00  0.00    +0.139 C 
ATOM     18  C   UNL     1       4.392   1.006   0.024  0.00  0.00    +0.037 C 
ATOM     19  C   UNL     1       2.506   1.270   1.511  0.00  0.00    +0.037 C 
ATOM     20  C   UNL     1       4.605   2.385   0.050  0.00  0.00    +0.003 C 
ATOM     21  C   UNL     1       2.719   2.648   1.537  0.00  0.00    +0.003 C 
ATOM     22  C   UNL     1       3.769   3.205   0.807  0.00  0.00    +0.000 C 
ENDBRANCH  16  17
ENDBRANCH  15  16
ENDBRANCH  14  15
ENDBRANCH  11  14
ENDBRANCH   2  10
BRANCH   1  23
ATOM     23  C   UNL     1      -1.310  -0.301   1.443  0.00  0.00    +0.028 C 
BRANCH  23  24
ATOM     24  C   UNL     1      -1.904   0.347   2.658  0.00  0.00    -0.031 C 
ATOM     25  C   UNL     1      -2.159   1.661   2.755  0.00  0.00    -0.031 C 
BRANCH  25  26
ATOM     26  C   UNL     1      -1.881   2.644   1.655  0.00  0.00    +0.026 C 
BRANCH  26  27
ATOM     27  C   UNL     1      -3.066   2.828   0.698  0.00  0.00    +0.016 C 
BRANCH  27  28
ATOM     28  C   UNL     1      -2.840   3.868  -0.401  0.00  0.00    +0.110 C 
BRANCH  28  30
ATOM     29  O   UNL     1      -0.719   4.217  -1.523  0.00  0.00    -0.250 OA
ATOM     30  C   UNL     1      -1.696   3.508  -1.320  0.00  0.00    +0.317 C 
BRANCH  30  31
ATOM     31  O   UNL     1      -1.912   2.270  -1.852  0.00  0.00    -0.452 OA
BRANCH  31  32
ATOM     32  C   UNL     1      -0.885   1.785  -2.723  0.00  0.00    +0.169 C 
ATOM     33  C   UNL     1       0.159   1.044  -1.901  0.00  0.00    +0.047 C 
ATOM     34  C   UNL     1      -1.509   0.892  -3.784  0.00  0.00    +0.047 C 
ENDBRANCH  31  32
ENDBRANCH  30  31
ENDBRANCH  28  30
ENDBRANCH  27  28
ENDBRANCH  26  27
ENDBRANCH  25  26
ENDBRANCH  23  24
ENDBRANCH   1  23
TORSDOF 15
