REMARK  Name = 16122634
REMARK  4 active torsions:
REMARK  status: ('A' for Active; 'I' for Inactive)
REMARK    1  A    between atoms: C_1  and  C_14
REMARK    2  A    between atoms: C_2  and  C_9
REMARK    3  A    between atoms: C_14  and  C_15
REMARK    4  A    between atoms: C_15  and  N_16
REMARK                            x       y       z     vdW  Elec       q    Type
REMARK                         _______ _______ _______ _____ _____    ______ ____
ROOT
ATOM      1  C   UNL     1      -2.177   0.395  -0.293  0.00  0.00    -0.024 C 
ATOM      2  C   UNL     1       0.606   0.296  -0.123  0.00  0.00    +0.002 C 
ATOM      3  C   UNL     1      -1.508   1.171   0.653  0.00  0.00    -0.004 C 
ATOM      4  C   UNL     1      -1.455  -0.431  -1.154  0.00  0.00    -0.004 C 
ATOM      5  C   UNL     1      -0.117   1.122   0.738  0.00  0.00    -0.000 C 
ATOM      6  C   UNL     1      -0.063  -0.480  -1.069  0.00  0.00    -0.000 C 
ENDROOT
BRANCH   2   9
ATOM      7  N   UNL     1       4.073  -0.504   0.227  0.00  0.00    -0.240 N 
ATOM      8  N   UNL     1       4.253   0.803  -0.033  0.00  0.00    -0.180 NA
ATOM      9  C   UNL     1       2.038   0.246  -0.037  0.00  0.00    +0.031 C 
ATOM     10  C   UNL     1       2.764  -0.888   0.236  0.00  0.00    +0.045 C 
ATOM     11  C   UNL     1       3.007   1.255  -0.193  0.00  0.00    +0.118 C 
ATOM     12  C   UNL     1       2.370  -2.284   0.501  0.00  0.00    +0.049 C 
ATOM     13  H   UNL     1       4.817  -1.126   0.395  0.00  0.00    +0.174 HD
ENDBRANCH   2   9
BRANCH   1  14
ATOM     14  C   UNL     1      -3.665   0.447  -0.383  0.00  0.00    +0.002 C 
BRANCH  14  15
ATOM     15  C   UNL     1      -4.335  -0.596   0.522  0.00  0.00    -0.081 C 
BRANCH  15  16
ATOM     16  N   UNL     1      -5.789  -0.553   0.406  0.00  0.00    +0.381 N 
ATOM     17  H   UNL     1      -6.201  -1.257   1.019  0.00  0.00    -0.089 HD
ATOM     18  H   UNL     1      -6.058  -0.743  -0.560  0.00  0.00    -0.089 HD
ATOM     19  H   UNL     1      -6.124   0.372   0.676  0.00  0.00    -0.089 HD
ENDBRANCH  15  16
ENDBRANCH  14  15
ENDBRANCH   1  14
TORSDOF 4
