REMARK  Name = 447700
REMARK  4 active torsions:
REMARK  status: ('A' for Active; 'I' for Inactive)
REMARK    1  A    between atoms: N_4  and  C_23
REMARK    2  A    between atoms: C_7  and  C_17
REMARK    3  A    between atoms: C_25  and  C_29
REMARK    4  A    between atoms: C_29  and  O_30
REMARK                            x       y       z     vdW  Elec       q    Type
REMARK                         _______ _______ _______ _____ _____    ______ ____
ROOT
ATOM      1  O   UNL     1      -2.310  -2.241  -0.422  0.00  0.00    -0.270 OA
ATOM      2  N   UNL     1      -0.415  -0.917  -0.205  0.00  0.00    -0.228 N 
ATOM      3  N   UNL     1       1.502   0.528   0.007  0.00  0.00    -0.322 NA
ATOM      4  N   UNL     1       3.363   1.943   0.211  0.00  0.00    -0.247 N 
ATOM      5  N   UNL     1       1.225   2.888   0.384  0.00  0.00    -0.170 NA
ATOM      6  C   UNL     1       0.155   0.376  -0.003  0.00  0.00    +0.204 C 
ATOM      7  C   UNL     1      -2.680   0.059  -0.026  0.00  0.00    +0.056 C 
ATOM      8  C   UNL     1      -0.701   1.452   0.176  0.00  0.00    +0.065 C 
ATOM      9  C   UNL     1      -1.794  -1.137  -0.233  0.00  0.00    +0.255 C 
ATOM     10  C   UNL     1      -2.141   1.272   0.167  0.00  0.00    +0.010 C 
ATOM     11  C   UNL     1       0.512  -2.030  -0.394  0.00  0.00    +0.123 C 
ATOM     12  C   UNL     1      -0.108   2.690   0.367  0.00  0.00    +0.116 C 
ATOM     13  C   UNL     1       1.960   1.779   0.201  0.00  0.00    +0.150 C 
ATOM     14  H   UNL     1       3.652   2.873   0.356  0.00  0.00    +0.165 HD
ENDROOT
BRANCH   7  17
ATOM     15 CL   UNL     1      -4.119   0.381  -2.713  0.00  0.00    -0.082 Cl
ATOM     16 CL   UNL     1      -3.976  -0.535   2.687  0.00  0.00    -0.082 Cl
ATOM     17  C   UNL     1      -4.147  -0.086  -0.012  0.00  0.00    +0.026 C 
ATOM     18  C   UNL     1      -4.881   0.047  -1.195  0.00  0.00    +0.059 C 
ATOM     19  C   UNL     1      -4.818  -0.358   1.186  0.00  0.00    +0.059 C 
ATOM     20  C   UNL     1      -6.269  -0.089  -1.182  0.00  0.00    +0.011 C 
ATOM     21  C   UNL     1      -6.206  -0.494   1.199  0.00  0.00    +0.011 C 
ATOM     22  C   UNL     1      -6.932  -0.360   0.015  0.00  0.00    +0.002 C 
ENDBRANCH   7  17
BRANCH   4  23
ATOM     23  C   UNL     1       4.428   1.036   0.055  0.00  0.00    +0.057 C 
ATOM     24  C   UNL     1       4.283  -0.293   0.458  0.00  0.00    +0.013 C 
ATOM     25  C   UNL     1       5.339  -1.190   0.303  0.00  0.00    +0.008 C 
ATOM     26  C   UNL     1       5.635   1.464  -0.503  0.00  0.00    +0.015 C 
ATOM     27  C   UNL     1       6.543  -0.761  -0.255  0.00  0.00    -0.002 C 
ATOM     28  C   UNL     1       6.691   0.566  -0.659  0.00  0.00    +0.001 C 
BRANCH  25  29
ATOM     29  C   UNL     1       5.182  -2.609   0.735  0.00  0.00    +0.164 C 
BRANCH  29  30
ATOM     30  O   UNL     1       4.680  -3.380  -0.350  0.00  0.00    -0.377 OA
ATOM     31  H   UNL     1       4.577  -4.303  -0.071  0.00  0.00    +0.211 HD
ENDBRANCH  29  30
ENDBRANCH  25  29
ENDBRANCH   4  23
TORSDOF 4
