REMARK  Name = 5105
REMARK  10 active torsions:
REMARK  status: ('A' for Active; 'I' for Inactive)
REMARK    1  A    between atoms: C_1  and  C_20
REMARK    2  A    between atoms: C_4  and  O_7
REMARK    3  A    between atoms: O_7  and  C_8
REMARK    4  A    between atoms: C_8  and  C_9
REMARK    5  A    between atoms: C_9  and  C_10
REMARK    6  A    between atoms: C_10  and  N_12
REMARK    7  A    between atoms: C_13  and  C_15
REMARK    8  A    between atoms: C_15  and  O_16
REMARK    9  A    between atoms: O_16  and  C_18
REMARK   10  A    between atoms: C_20  and  N_21
REMARK                            x       y       z     vdW  Elec       q    Type
REMARK                         _______ _______ _______ _____ _____    ______ ____
ROOT
ATOM      1  C   UNL     1      -1.107  -2.038  -0.598  0.00  0.00    -0.040 C 
ATOM      2  C   UNL     1      -0.211  -1.856   0.455  0.00  0.00    +0.031 C 
ATOM      3  C   UNL     1      -0.634  -2.386  -1.864  0.00  0.00    -0.006 C 
ATOM      4  C   UNL     1       1.157  -2.022   0.243  0.00  0.00    +0.138 C 
ATOM      5  C   UNL     1       0.734  -2.552  -2.075  0.00  0.00    +0.003 C 
ATOM      6  C   UNL     1       1.630  -2.370  -1.022  0.00  0.00    +0.037 C 
ENDROOT
BRANCH   4   7
ATOM      7  O   UNL     1       2.031  -1.846   1.271  0.00  0.00    -0.475 OA
BRANCH   7   8
ATOM      8  C   UNL     1       3.339  -1.381   0.940  0.00  0.00    +0.207 C 
BRANCH   8   9
ATOM      9  C   UNL     1       3.891  -0.588   2.118  0.00  0.00    +0.069 C 
BRANCH   9  10
ATOM     10  C   UNL     1       3.024   0.610   2.482  0.00  0.00    +0.093 C 
BRANCH  10  12
ATOM     11  O   UNL     1       0.563   1.429   1.191  0.00  0.00    -0.271 OA
ATOM     12  N   UNL     1       2.879   1.536   1.392  0.00  0.00    -0.301 N 
ATOM     13  C   UNL     1       1.651   1.871   0.833  0.00  0.00    +0.267 C 
ATOM     14  H   UNL     1       3.690   1.954   1.023  0.00  0.00    +0.150 HD
BRANCH  13  15
ATOM     15  C   UNL     1       1.797   2.868  -0.297  0.00  0.00    +0.292 C 
BRANCH  15  16
ATOM     16  O   UNL     1       0.765   2.703  -1.245  0.00  0.00    -0.438 OA
BRANCH  16  18
ATOM     17  O   UNL     1       2.053   1.192  -2.426  0.00  0.00    -0.250 OA
ATOM     18  C   UNL     1       1.020   1.828  -2.271  0.00  0.00    +0.318 C 
ATOM     19  C   UNL     1      -0.158   1.753  -3.194  0.00  0.00    +0.121 C 
ENDBRANCH  16  18
ENDBRANCH  15  16
ENDBRANCH  13  15
ENDBRANCH  10  12
ENDBRANCH   9  10
ENDBRANCH   8   9
ENDBRANCH   7   8
ENDBRANCH   4   7
BRANCH   1  20
ATOM     20  C   UNL     1      -2.585  -1.859  -0.370  0.00  0.00    -0.050 C 
BRANCH  20  21
ATOM     21  N   UNL     1      -2.874  -0.654   0.407  0.00  0.00    +0.390 N 
ATOM     22  C   UNL     1      -2.832   0.536  -0.454  0.00  0.00    -0.077 C 
ATOM     23  C   UNL     1      -4.174  -0.776   1.081  0.00  0.00    -0.077 C 
ATOM     24  C   UNL     1      -3.084   1.811   0.353  0.00  0.00    -0.023 C 
ATOM     25  C   UNL     1      -4.470   0.455   1.938  0.00  0.00    -0.023 C 
ATOM     26  C   UNL     1      -4.404   1.735   1.112  0.00  0.00    -0.004 C 
ATOM     27  H   UNL     1      -2.157  -0.548   1.125  0.00  0.00    -0.079 HD
ENDBRANCH  20  21
ENDBRANCH   1  20
TORSDOF 10
