REMARK  Name = 10039403
REMARK  7 active torsions:
REMARK  status: ('A' for Active; 'I' for Inactive)
REMARK    1  A    between atoms: C_1  and  C_7
REMARK    2  A    between atoms: C_2  and  O_15
REMARK    3  A    between atoms: C_12  and  C_14
REMARK    4  A    between atoms: O_15  and  C_16
REMARK    5  A    between atoms: C_16  and  C_17
REMARK    6  A    between atoms: C_17  and  C_20
REMARK    7  A    between atoms: N_19  and  O_22
REMARK                            x       y       z     vdW  Elec       q    Type
REMARK                         _______ _______ _______ _____ _____    ______ ____
ROOT
ATOM      1  C   UNL     1      -0.958   0.476  -0.092  0.00  0.00    +0.000 C 
ATOM      2  C   UNL     1       1.761   1.049  -0.186  0.00  0.00    +0.139 C 
ATOM      3  C   UNL     1      -0.301   0.926   1.052  0.00  0.00    +0.003 C 
ATOM      4  C   UNL     1      -0.252   0.313  -1.284  0.00  0.00    +0.003 C 
ATOM      5  C   UNL     1       1.063   1.214   1.006  0.00  0.00    +0.037 C 
ATOM      6  C   UNL     1       1.112   0.601  -1.331  0.00  0.00    +0.037 C 
ENDROOT
BRANCH   1   7
ATOM      7  C   UNL     1      -2.373   0.177  -0.043  0.00  0.00    +0.000 C 
ATOM      8  C   UNL     1      -2.950  -0.273   1.144  0.00  0.00    +0.001 C 
ATOM      9  C   UNL     1      -3.160   0.339  -1.184  0.00  0.00    +0.001 C 
ATOM     10  C   UNL     1      -4.314  -0.560   1.192  0.00  0.00    +0.010 C 
ATOM     11  C   UNL     1      -4.524   0.051  -1.136  0.00  0.00    +0.010 C 
ATOM     12  C   UNL     1      -5.101  -0.399   0.052  0.00  0.00    +0.068 C 
BRANCH  12  14
ATOM     13  N   UNL     1      -7.635  -0.933   0.140  0.00  0.00    -0.191 NA
ATOM     14  C   UNL     1      -6.498  -0.693   0.100  0.00  0.00    +0.100 C 
ENDBRANCH  12  14
ENDBRANCH   1   7
BRANCH   2  15
ATOM     15  O   UNL     1       3.101   1.332  -0.232  0.00  0.00    -0.475 OA
BRANCH  15  16
ATOM     16  C   UNL     1       3.837   1.144   0.969  0.00  0.00    +0.215 C 
BRANCH  16  17
ATOM     17  C   UNL     1       5.274   0.779   0.629  0.00  0.00    +0.134 C 
BRANCH  17  20
ATOM     18  O   UNL     1       5.369  -0.572  -1.379  0.00  0.00    -0.273 OA
ATOM     19  N   UNL     1       5.519  -1.603   0.682  0.00  0.00    -0.197 N 
ATOM     20  C   UNL     1       5.388  -0.519  -0.153  0.00  0.00    +0.248 C 
ATOM     21  H   UNL     1       5.528  -1.509   1.662  0.00  0.00    +0.182 HD
BRANCH  19  22
ATOM     22  O   UNL     1       5.639  -2.849   0.054  0.00  0.00    -0.295 OA
ATOM     23  H   UNL     1       5.726  -3.543   0.726  0.00  0.00    +0.241 HD
ENDBRANCH  19  22
ENDBRANCH  17  20
ENDBRANCH  16  17
ENDBRANCH  15  16
ENDBRANCH   2  15
TORSDOF 7
