REMARK  Name = 1184681
REMARK  3 active torsions:
REMARK  status: ('A' for Active; 'I' for Inactive)
REMARK    1  A    between atoms: N_2  and  C_7
REMARK    2  A    between atoms: C_3  and  C_15
REMARK    3  A    between atoms: C_12  and  O_13
REMARK                            x       y       z     vdW  Elec       q    Type
REMARK                         _______ _______ _______ _____ _____    ______ ____
ROOT
ATOM      1  O   UNL     1      -1.117   1.848   0.123  0.00  0.00    -0.270 OA
ATOM      2  N   UNL     1      -0.402  -0.380  -0.049  0.00  0.00    -0.280 N 
ATOM      3  C   UNL     1      -1.366   0.636   0.028  0.00  0.00    +0.249 C 
ATOM      4  H   UNL     1      -0.751  -1.297  -0.122  0.00  0.00    +0.155 HD
ENDROOT
BRANCH   2   7
ATOM      5 BR   UNL     1       4.226  -2.857  -0.230  0.00  0.00    -0.046 Br
ATOM      6 BR   UNL     1       3.731   2.849   0.218  0.00  0.00    -0.046 Br
ATOM      7  C   UNL     1       1.010  -0.259  -0.035  0.00  0.00    +0.052 C 
ATOM      8  C   UNL     1       1.579   0.999   0.066  0.00  0.00    +0.024 C 
ATOM      9  C   UNL     1       1.787  -1.401  -0.121  0.00  0.00    +0.024 C 
ATOM     10  C   UNL     1       3.177  -1.282  -0.108  0.00  0.00    +0.070 C 
ATOM     11  C   UNL     1       2.969   1.118   0.080  0.00  0.00    +0.070 C 
ATOM     12  C   UNL     1       3.768  -0.022  -0.007  0.00  0.00    +0.146 C 
BRANCH  12  13
ATOM     13  O   UNL     1       5.128   0.094   0.006  0.00  0.00    -0.505 OA
ATOM     14  H   UNL     1       5.665  -0.672  -0.053  0.00  0.00    +0.292 HD
ENDBRANCH  12  13
ENDBRANCH   2   7
BRANCH   3  15
ATOM     15  C   UNL     1      -2.752   0.197   0.016  0.00  0.00    +0.054 C 
ATOM     16  C   UNL     1      -3.748   1.045  -0.468  0.00  0.00    +0.005 C 
ATOM     17  C   UNL     1      -3.086  -1.072   0.489  0.00  0.00    +0.005 C 
ATOM     18  C   UNL     1      -5.078   0.624  -0.479  0.00  0.00    +0.000 C 
ATOM     19  C   UNL     1      -4.416  -1.493   0.477  0.00  0.00    +0.000 C 
ATOM     20  C   UNL     1      -5.412  -0.645  -0.007  0.00  0.00    +0.000 C 
ENDBRANCH   3  15
TORSDOF 3
