REMARK  Name = 46937163
REMARK  5 active torsions:
REMARK  status: ('A' for Active; 'I' for Inactive)
REMARK    1  A    between atoms: C_1  and  C_10
REMARK    2  A    between atoms: C_2  and  O_16
REMARK    3  A    between atoms: O_16  and  C_17
REMARK    4  A    between atoms: C_17  and  C_18
REMARK    5  A    between atoms: C_18  and  O_19
REMARK                            x       y       z     vdW  Elec       q    Type
REMARK                         _______ _______ _______ _____ _____    ______ ____
ROOT
ATOM      1  C   UNL     1      -1.147  -0.867  -0.087  0.00  0.00    +0.036 C 
ATOM      2  C   UNL     1      -1.966   0.212  -0.419  0.00  0.00    +0.139 C 
ATOM      3  C   UNL     1      -1.712  -2.049   0.393  0.00  0.00    +0.003 C 
ATOM      4  C   UNL     1      -3.349   0.110  -0.270  0.00  0.00    +0.037 C 
ATOM      5  C   UNL     1      -3.095  -2.151   0.542  0.00  0.00    +0.000 C 
ATOM      6  C   UNL     1      -3.914  -1.072   0.210  0.00  0.00    +0.003 C 
ENDROOT
BRANCH   1  10
ATOM      7  F   UNL     1       0.519   0.041   1.986  0.00  0.00    -0.202 F 
ATOM      8  F   UNL     1       3.220   0.195   1.692  0.00  0.00    -0.199 F 
ATOM      9  F   UNL     1       4.391  -0.542  -0.666  0.00  0.00    -0.202 F 
ATOM     10  C   UNL     1       0.292  -0.782  -0.234  0.00  0.00    +0.033 C 
ATOM     11  C   UNL     1       1.079  -0.325   0.823  0.00  0.00    +0.170 C 
ATOM     12  C   UNL     1       0.890  -1.158  -1.437  0.00  0.00    +0.005 C 
ATOM     13  C   UNL     1       2.464  -0.244   0.677  0.00  0.00    +0.195 C 
ATOM     14  C   UNL     1       2.274  -1.077  -1.583  0.00  0.00    +0.032 C 
ATOM     15  C   UNL     1       3.062  -0.620  -0.525  0.00  0.00    +0.170 C 
ENDBRANCH   1  10
BRANCH   2  16
ATOM     16  O   UNL     1      -1.441   1.379  -0.891  0.00  0.00    -0.473 OA
BRANCH  16  17
ATOM     17  C   UNL     1      -1.695   2.557  -0.128  0.00  0.00    +0.237 C 
BRANCH  17  18
ATOM     18  C   UNL     1      -0.526   3.510  -0.286  0.00  0.00    +0.185 C 
BRANCH  18  19
ATOM     19  O   UNL     1       0.654   2.882   0.202  0.00  0.00    -0.378 OA
ATOM     20  H   UNL     1       1.406   3.487   0.104  0.00  0.00    +0.211 HD
ENDBRANCH  18  19
ENDBRANCH  17  18
ENDBRANCH  16  17
ENDBRANCH   2  16
TORSDOF 5
