REMARK  Name = 16122585
REMARK  11 active torsions:
REMARK  status: ('A' for Active; 'I' for Inactive)
REMARK    1  A    between atoms: C_1  and  C_4
REMARK    2  A    between atoms: C_1  and  C_14
REMARK    3  A    between atoms: N_3  and  C_8
REMARK    4  A    between atoms: C_14  and  C_15
REMARK    5  A    between atoms: C_15  and  C_16
REMARK    6  A    between atoms: C_16  and  C_17
REMARK    7  A    between atoms: C_17  and  C_18
REMARK    8  A    between atoms: C_18  and  C_19
REMARK    9  A    between atoms: C_19  and  C_20
REMARK   10  A    between atoms: C_20  and  C_21
REMARK   11  A    between atoms: C_21  and  C_22
REMARK                            x       y       z     vdW  Elec       q    Type
REMARK                         _______ _______ _______ _____ _____    ______ ____
ROOT
ATOM      1  C   UNL     1       1.265   2.587  -0.335  0.00  0.00    +0.149 C 
ENDROOT
BRANCH   1   4
ATOM      2  O   UNL     1       0.563   1.076   1.403  0.00  0.00    -0.275 OA
ATOM      3  N   UNL     1      -0.983   1.749  -0.198  0.00  0.00    -0.298 N 
ATOM      4  C   UNL     1       0.269   1.714   0.395  0.00  0.00    +0.230 C 
ATOM      5  H   UNL     1      -1.103   2.297  -1.007  0.00  0.00    +0.150 HD
BRANCH   3   8
ATOM      6  O   UNL     1      -2.685   0.237  -1.933  0.00  0.00    -0.273 OA
ATOM      7  N   UNL     1      -4.331   0.768  -0.355  0.00  0.00    -0.303 N 
ATOM      8  C   UNL     1      -2.109   1.027   0.308  0.00  0.00    +0.150 C 
ATOM      9  C   UNL     1      -3.016   1.858   1.212  0.00  0.00    +0.050 C 
ATOM     10  C   UNL     1      -4.381   1.231   1.005  0.00  0.00    +0.092 C 
ATOM     11  C   UNL     1      -3.028   0.635  -0.831  0.00  0.00    +0.240 C 
ATOM     12  H   UNL     1      -5.131   0.567  -0.892  0.00  0.00    +0.149 HD
ENDBRANCH   3   8
ENDBRANCH   1   4
BRANCH   1  14
ATOM     13  O   UNL     1       3.442   2.451   0.642  0.00  0.00    -0.296 OA
ATOM     14  C   UNL     1       2.689   2.083  -0.259  0.00  0.00    +0.160 C 
BRANCH  14  15
ATOM     15  C   UNL     1       3.130   1.120  -1.347  0.00  0.00    +0.065 C 
BRANCH  15  16
ATOM     16  C   UNL     1       4.186   0.121  -0.878  0.00  0.00    +0.008 C 
BRANCH  16  17
ATOM     17  C   UNL     1       3.726  -0.812   0.249  0.00  0.00    +0.000 C 
BRANCH  17  18
ATOM     18  C   UNL     1       2.575  -1.735  -0.159  0.00  0.00    +0.000 C 
BRANCH  18  19
ATOM     19  C   UNL     1       2.134  -2.621   1.009  0.00  0.00    +0.000 C 
BRANCH  19  20
ATOM     20  C   UNL     1       0.978  -3.562   0.657  0.00  0.00    +0.000 C 
BRANCH  20  21
ATOM     21  C   UNL     1      -0.311  -2.888   0.178  0.00  0.00    +0.000 C 
BRANCH  21  22
ATOM     22  C   UNL     1      -1.446  -3.874  -0.101  0.00  0.00    +0.000 C 
ATOM     23  C   UNL     1      -2.669  -3.165  -0.662  0.00  0.00    +0.000 C 
ENDBRANCH  21  22
ENDBRANCH  20  21
ENDBRANCH  19  20
ENDBRANCH  18  19
ENDBRANCH  17  18
ENDBRANCH  16  17
ENDBRANCH  15  16
ENDBRANCH  14  15
ENDBRANCH   1  14
TORSDOF 11
