REMARK  Name = 5327067
REMARK  10 active torsions:
REMARK  status: ('A' for Active; 'I' for Inactive)
REMARK    1  A    between atoms: C_2  and  C_3
REMARK    2  A    between atoms: C_2  and  C_19
REMARK    3  A    between atoms: C_4  and  O_9
REMARK    4  A    between atoms: O_9  and  C_10
REMARK    5  A    between atoms: C_10  and  C_11
REMARK    6  A    between atoms: C_11  and  O_12
REMARK    7  A    between atoms: C_11  and  C_14
REMARK    8  A    between atoms: C_14  and  O_15
REMARK    9  A    between atoms: N_17  and  C_23
REMARK   10  A    between atoms: C_20  and  N_29
REMARK                            x       y       z     vdW  Elec       q    Type
REMARK                         _______ _______ _______ _____ _____    ______ ____
ROOT
ATOM      1  O   UNL     1      -0.089  -3.676  -0.167  0.00  0.00    -0.286 OA
ATOM      2  C   UNL     1      -0.487  -2.521   0.049  0.00  0.00    +0.200 C 
ENDROOT
BRANCH   2   3
ATOM      3  C   UNL     1      -1.917  -2.256   0.005  0.00  0.00    +0.042 C 
ATOM      4  C   UNL     1      -3.750  -0.756  -0.434  0.00  0.00    +0.139 C 
ATOM      5  C   UNL     1      -2.382  -1.002  -0.394  0.00  0.00    +0.040 C 
ATOM      6  C   UNL     1      -2.823  -3.255   0.361  0.00  0.00    +0.003 C 
ATOM      7  C   UNL     1      -4.659  -1.748  -0.080  0.00  0.00    +0.037 C 
ATOM      8  C   UNL     1      -4.194  -3.001   0.319  0.00  0.00    +0.003 C 
BRANCH   4   9
ATOM      9  O   UNL     1      -4.207   0.474  -0.826  0.00  0.00    -0.473 OA
BRANCH   9  10
ATOM     10  C   UNL     1      -3.365   1.588  -0.548  0.00  0.00    +0.237 C 
BRANCH  10  11
ATOM     11  C   UNL     1      -4.210   2.846  -0.379  0.00  0.00    +0.183 C 
BRANCH  11  12
ATOM     12  O   UNL     1      -5.103   2.653   0.720  0.00  0.00    -0.378 OA
ATOM     13  H   UNL     1      -5.666   1.882   0.548  0.00  0.00    +0.211 HD
ENDBRANCH  11  12
BRANCH  11  14
ATOM     14  C   UNL     1      -3.344   4.061  -0.074  0.00  0.00    +0.170 C 
BRANCH  14  15
ATOM     15  O   UNL     1      -4.182   5.207   0.045  0.00  0.00    -0.379 OA
ATOM     16  H   UNL     1      -3.638   5.986   0.239  0.00  0.00    +0.211 HD
ENDBRANCH  14  15
ENDBRANCH  11  14
ENDBRANCH  10  11
ENDBRANCH   9  10
ENDBRANCH   4   9
ENDBRANCH   2   3
BRANCH   2  19
ATOM     17  N   UNL     1       2.243  -0.229   0.374  0.00  0.00    -0.177 N 
ATOM     18  N   UNL     1       1.371   0.453   1.137  0.00  0.00    -0.171 NA
ATOM     19  C   UNL     1       0.477  -1.438   0.331  0.00  0.00    +0.088 C 
ATOM     20  C   UNL     1       1.739  -1.388  -0.138  0.00  0.00    +0.122 C 
ATOM     21  C   UNL     1       0.276  -0.311   1.101  0.00  0.00    +0.124 C 
BRANCH  17  23
ATOM     22  F   UNL     1       7.317   1.783  -0.394  0.00  0.00    -0.204 F 
ATOM     23  C   UNL     1       3.529   0.281   0.179  0.00  0.00    +0.075 C 
ATOM     24  C   UNL     1       4.587  -0.593  -0.027  0.00  0.00    +0.019 C 
ATOM     25  C   UNL     1       3.729   1.655   0.195  0.00  0.00    +0.019 C 
ATOM     26  C   UNL     1       5.871  -0.084  -0.221  0.00  0.00    +0.031 C 
ATOM     27  C   UNL     1       5.013   2.164   0.001  0.00  0.00    +0.031 C 
ATOM     28  C   UNL     1       6.084   1.295  -0.207  0.00  0.00    +0.140 C 
ENDBRANCH  17  23
BRANCH  20  29
ATOM     29  N   UNL     1       2.473  -2.204  -0.926  0.00  0.00    -0.344 N 
ATOM     30  H   UNL     1       3.402  -1.968  -1.149  0.00  0.00    +0.144 HD
ATOM     31  H   UNL     1       2.078  -3.035  -1.278  0.00  0.00    +0.144 HD
ENDBRANCH  20  29
ENDBRANCH   2  19
TORSDOF 10
