REMARK  Name = 644013
REMARK  6 active torsions:
REMARK  status: ('A' for Active; 'I' for Inactive)
REMARK    1  A    between atoms: C_4  and  C_12
REMARK    2  A    between atoms: C_8  and  O_15
REMARK    3  A    between atoms: C_12  and  O_13
REMARK    4  A    between atoms: O_15  and  P_16
REMARK    5  A    between atoms: P_16  and  C_18
REMARK    6  A    between atoms: P_16  and  O_24
REMARK                            x       y       z     vdW  Elec       q    Type
REMARK                         _______ _______ _______ _____ _____    ______ ____
ROOT
ATOM      1  N   UNL     1       2.829  -1.284  -0.629  0.00  0.00    +0.389 N 
ATOM      2  C   UNL     1       2.458  -1.073   0.786  0.00  0.00    -0.045 C 
ATOM      3  C   UNL     1       1.595  -1.840  -1.212  0.00  0.00    -0.056 C 
ATOM      4  C   UNL     1       1.554   0.183   0.847  0.00  0.00    +0.108 C 
ATOM      5  C   UNL     1       1.681  -2.342   1.159  0.00  0.00    -0.022 C 
ATOM      6  C   UNL     1       1.101  -2.846  -0.166  0.00  0.00    -0.023 C 
ATOM      7  C   UNL     1       0.623  -0.655  -1.381  0.00  0.00    +0.010 C 
ATOM      8  C   UNL     1       0.307   0.041  -0.047  0.00  0.00    +0.131 C 
ATOM      9  C   UNL     1       3.982  -2.166  -0.790  0.00  0.00    -0.100 C 
ATOM     10  H   UNL     1       3.134  -0.427  -1.090  0.00  0.00    -0.080 HD
ENDROOT
BRANCH   4  12
ATOM     11  O   UNL     1       2.093   2.158  -0.431  0.00  0.00    -0.250 OA
ATOM     12  C   UNL     1       2.365   1.400   0.489  0.00  0.00    +0.317 C 
BRANCH  12  13
ATOM     13  O   UNL     1       3.425   1.508   1.341  0.00  0.00    -0.444 OA
ATOM     14  C   UNL     1       4.286   2.628   1.112  0.00  0.00    +0.256 C 
ENDBRANCH  12  13
ENDBRANCH   4  12
BRANCH   8  15
ATOM     15  O   UNL     1      -0.309   1.303  -0.271  0.00  0.00    -0.293 OA
BRANCH  15  16
ATOM     16  P   UNL     1      -1.716   1.344  -1.079  0.00  0.00    +0.363 P 
ATOM     17  O   UNL     1      -1.565   1.031  -2.543  0.00  0.00    -0.253 OA
BRANCH  16  18
ATOM     18  C   UNL     1      -2.854   0.384  -0.139  0.00  0.00    +0.080 C 
ATOM     19  C   UNL     1      -3.587  -0.636  -0.752  0.00  0.00    +0.007 C 
ATOM     20  C   UNL     1      -3.028   0.637   1.224  0.00  0.00    +0.007 C 
ATOM     21  C   UNL     1      -4.488  -1.397  -0.007  0.00  0.00    +0.000 C 
ATOM     22  C   UNL     1      -3.929  -0.124   1.969  0.00  0.00    +0.000 C 
ATOM     23  C   UNL     1      -4.659  -1.141   1.353  0.00  0.00    +0.000 C 
ENDBRANCH  16  18
BRANCH  16  24
ATOM     24  O   UNL     1      -2.165   2.887  -0.837  0.00  0.00    -0.321 OA
ATOM     25  H   UNL     1      -1.574   3.477  -1.330  0.00  0.00    +0.220 HD
ENDBRANCH  16  24
ENDBRANCH  15  16
ENDBRANCH   8  15
TORSDOF 6
