REMARK  Name = 4369452
REMARK  1 active torsions:
REMARK  status: ('A' for Active; 'I' for Inactive)
REMARK    1  A    between atoms: N_5  and  C_10
REMARK                            x       y       z     vdW  Elec       q    Type
REMARK                         _______ _______ _______ _____ _____    ______ ____
ROOT
ATOM      1  S   UNL     1      -1.252   1.258  -0.189  0.00  0.00    +0.130 S 
ATOM      2  O   UNL     1      -1.126   2.322   0.784  0.00  0.00    -0.135 OA
ATOM      3  O   UNL     1      -0.956   1.468  -1.592  0.00  0.00    -0.135 OA
ATOM      4  O   UNL     1      -3.675  -1.648   0.192  0.00  0.00    -0.272 OA
ATOM      5  N   UNL     1      -0.446  -0.157   0.382  0.00  0.00    -0.169 N 
ATOM      6  N   UNL     1      -2.770   0.499  -0.053  0.00  0.00    -0.171 N 
ATOM      7  C   UNL     1      -1.257  -1.392   0.167  0.00  0.00    +0.203 C 
ATOM      8  C   UNL     1      -2.701  -0.912   0.130  0.00  0.00    +0.264 C 
ATOM      9  H   UNL     1      -3.621   0.993  -0.098  0.00  0.00    +0.178 HD
ENDROOT
BRANCH   5  10
ATOM     10  C   UNL     1       0.980  -0.198   0.203  0.00  0.00    +0.071 C 
ATOM     11  C   UNL     1       1.518  -0.551  -1.035  0.00  0.00    +0.016 C 
ATOM     12  C   UNL     1       1.826   0.113   1.268  0.00  0.00    +0.016 C 
ATOM     13  C   UNL     1       2.901  -0.592  -1.208  0.00  0.00    +0.001 C 
ATOM     14  C   UNL     1       3.210   0.072   1.094  0.00  0.00    +0.001 C 
ATOM     15  C   UNL     1       3.747  -0.281  -0.143  0.00  0.00    +0.000 C 
ENDBRANCH   5  10
TORSDOF 1
