REMARK  Name = 24748045
REMARK  8 active torsions:
REMARK  status: ('A' for Active; 'I' for Inactive)
REMARK    1  A    between atoms: C_1  and  C_2
REMARK    2  A    between atoms: C_1  and  C_10
REMARK    3  A    between atoms: C_2  and  C_3
REMARK    4  A    between atoms: C_3  and  C_4
REMARK    5  A    between atoms: C_10  and  C_12
REMARK    6  A    between atoms: C_10  and  C_15
REMARK    7  A    between atoms: C_12  and  O_13
REMARK    8  A    between atoms: C_15  and  S_16
REMARK                            x       y       z     vdW  Elec       q    Type
REMARK                         _______ _______ _______ _____ _____    ______ ____
ROOT
ATOM      1  C   UNL     1       1.537   1.047  -0.552  0.00  0.00    +0.012 C 
ENDROOT
BRANCH   1   2
ATOM      2  C   UNL     1       0.200   0.508  -0.024  0.00  0.00    +0.005 C 
BRANCH   2   3
ATOM      3  C   UNL     1      -1.009   1.041  -0.803  0.00  0.00    +0.026 C 
BRANCH   3   4
ATOM      4  C   UNL     1      -2.329   0.470  -0.349  0.00  0.00    -0.022 C 
ATOM      5  C   UNL     1      -2.823  -0.695  -0.935  0.00  0.00    -0.004 C 
ATOM      6  C   UNL     1      -3.055   1.107   0.658  0.00  0.00    -0.004 C 
ATOM      7  C   UNL     1      -4.044  -1.223  -0.515  0.00  0.00    -0.000 C 
ATOM      8  C   UNL     1      -4.276   0.579   1.078  0.00  0.00    -0.000 C 
ATOM      9  C   UNL     1      -4.770  -0.586   0.491  0.00  0.00    -0.000 C 
ENDBRANCH   3   4
ENDBRANCH   2   3
ENDBRANCH   1   2
BRANCH   1  10
ATOM     10  C   UNL     1       2.748   0.493   0.224  0.00  0.00    +0.109 C 
BRANCH  10  12
ATOM     11  O   UNL     1       2.848  -1.647  -0.931  0.00  0.00    -0.250 OA
ATOM     12  C   UNL     1       2.758  -1.026   0.121  0.00  0.00    +0.314 C 
BRANCH  12  13
ATOM     13  O   UNL     1       2.642  -1.635   1.328  0.00  0.00    -0.480 OA
ATOM     14  H   UNL     1       2.576  -1.120   2.108  0.00  0.00    +0.295 HD
ENDBRANCH  12  13
ENDBRANCH  10  12
BRANCH  10  15
ATOM     15  C   UNL     1       4.051   1.075  -0.347  0.00  0.00    +0.064 C 
BRANCH  15  16
ATOM     16  S   UNL     1       5.522   0.491   0.556  0.00  0.00    -0.167 S 
ATOM     17  H   UNL     1       6.639   1.038   0.006  0.00  0.00    +0.102 HD
ENDBRANCH  15  16
ENDBRANCH  10  15
ENDBRANCH   1  10
TORSDOF 8
