446129
  -OEChem-10051721223D

 62 65  0     1  0  0  0  0  0999 V2000
    1.3035    3.0998    0.0158 O   0  0  0  0  0  0  0  0  0  0  0  0
   -0.5406    5.1753    0.4523 O   0  0  0  0  0  0  0  0  0  0  0  0
   -2.0055    1.8569   -0.3155 N   0  0  0  0  0  0  0  0  0  0  0  0
   -3.8954   -0.2767   -0.1271 N   0  0  0  0  0  0  0  0  0  0  0  0
   -4.5457   -2.2570    1.0572 N   0  0  0  0  0  0  0  0  0  0  0  0
    4.8805   -1.2694   -0.4823 C   0  0  0  0  0  0  0  0  0  0  0  0
    6.2170   -0.9999    0.2311 C   0  0  0  0  0  0  0  0  0  0  0  0
    4.2497   -2.5844    0.0082 C   0  0  0  0  0  0  0  0  0  0  0  0
    7.1769   -2.1792    0.0827 C   0  0  0  0  0  0  0  0  0  0  0  0
    5.2178   -3.7571   -0.1392 C   0  0  0  0  0  0  0  0  0  0  0  0
    6.5453   -3.4831    0.5616 C   0  0  0  0  0  0  0  0  0  0  0  0
    3.9224   -0.0997   -0.3490 C   0  0  0  0  0  0  0  0  0  0  0  0
   -2.6700    1.3441   -1.5198 C   0  0  0  0  0  0  0  0  0  0  0  0
   -2.9171    1.7719    0.8323 C   0  0  0  0  0  0  0  0  0  0  0  0
   -3.0854   -0.1180   -1.3388 C   0  0  0  0  0  0  0  0  0  0  0  0
   -3.3395    0.3240    1.0919 C   0  0  0  0  0  0  0  0  0  0  0  0
   -1.5659    3.2366   -0.5200 C   0  0  0  0  0  0  0  0  0  0  0  0
   -0.8786    3.8115    0.7208 C   0  0  1  0  0  0  0  0  0  0  0  0
    3.4676    0.2888    0.9112 C   0  0  0  0  0  0  0  0  0  0  0  0
    3.4974    0.5871   -1.4861 C   0  0  0  0  0  0  0  0  0  0  0  0
    0.3925    3.0599    1.1098 C   0  0  0  0  0  0  0  0  0  0  0  0
   -4.7269   -1.3938    0.0105 C   0  0  0  0  0  0  0  0  0  0  0  0
    2.1679    2.0447   -0.1038 C   0  0  0  0  0  0  0  0  0  0  0  0
    2.5878    1.3641    1.0341 C   0  0  0  0  0  0  0  0  0  0  0  0
    2.6176    1.6625   -1.3631 C   0  0  0  0  0  0  0  0  0  0  0  0
   -5.7349   -1.5983   -0.9419 C   0  0  0  0  0  0  0  0  0  0  0  0
   -6.5692   -2.7038   -0.8186 C   0  0  0  0  0  0  0  0  0  0  0  0
   -5.3759   -3.3205    1.1442 C   0  0  0  0  0  0  0  0  0  0  0  0
   -6.3930   -3.5861    0.2415 C   0  0  0  0  0  0  0  0  0  0  0  0
    5.1076   -1.4012   -1.5502 H   0  0  0  0  0  0  0  0  0  0  0  0
    6.0566   -0.8104    1.2999 H   0  0  0  0  0  0  0  0  0  0  0  0
    6.6864   -0.0968   -0.1785 H   0  0  0  0  0  0  0  0  0  0  0  0
    3.9529   -2.5047    1.0616 H   0  0  0  0  0  0  0  0  0  0  0  0
    3.3344   -2.7967   -0.5582 H   0  0  0  0  0  0  0  0  0  0  0  0
    7.4708   -2.2803   -0.9693 H   0  0  0  0  0  0  0  0  0  0  0  0
    8.0923   -1.9824    0.6520 H   0  0  0  0  0  0  0  0  0  0  0  0
    4.7630   -4.6641    0.2748 H   0  0  0  0  0  0  0  0  0  0  0  0
    5.3995   -3.9486   -1.2040 H   0  0  0  0  0  0  0  0  0  0  0  0
    6.3817   -3.4325    1.6452 H   0  0  0  0  0  0  0  0  0  0  0  0
    7.2356   -4.3148    0.3812 H   0  0  0  0  0  0  0  0  0  0  0  0
   -1.9885    1.4023   -2.3773 H   0  0  0  0  0  0  0  0  0  0  0  0
   -3.5545    1.9484   -1.7630 H   0  0  0  0  0  0  0  0  0  0  0  0
   -3.8074    2.3946    0.6718 H   0  0  0  0  0  0  0  0  0  0  0  0
   -2.4463    2.0967    1.7637 H   0  0  0  0  0  0  0  0  0  0  0  0
   -2.1958   -0.7566   -1.2635 H   0  0  0  0  0  0  0  0  0  0  0  0
   -3.6326   -0.4321   -2.2349 H   0  0  0  0  0  0  0  0  0  0  0  0
   -4.0865    0.3222    1.8958 H   0  0  0  0  0  0  0  0  0  0  0  0
   -2.4798   -0.2670    1.4334 H   0  0  0  0  0  0  0  0  0  0  0  0
   -2.4127    3.8849   -0.7863 H   0  0  0  0  0  0  0  0  0  0  0  0
   -0.8792    3.2921   -1.3748 H   0  0  0  0  0  0  0  0  0  0  0  0
   -1.5569    3.8622    1.5763 H   0  0  0  0  0  0  0  0  0  0  0  0
    3.7905   -0.2279    1.8106 H   0  0  0  0  0  0  0  0  0  0  0  0
    3.8423    0.2969   -2.4749 H   0  0  0  0  0  0  0  0  0  0  0  0
    0.8669    3.5575    1.9640 H   0  0  0  0  0  0  0  0  0  0  0  0
    0.1236    2.0348    1.3925 H   0  0  0  0  0  0  0  0  0  0  0  0
    2.2816    1.6526    2.0349 H   0  0  0  0  0  0  0  0  0  0  0  0
    2.2881    2.1944   -2.2512 H   0  0  0  0  0  0  0  0  0  0  0  0
   -0.1203    5.5376    1.2509 H   0  0  0  0  0  0  0  0  0  0  0  0
   -5.8869   -0.9053   -1.7642 H   0  0  0  0  0  0  0  0  0  0  0  0
   -7.3574   -2.8758   -1.5453 H   0  0  0  0  0  0  0  0  0  0  0  0
   -5.1970   -3.9777    1.9886 H   0  0  0  0  0  0  0  0  0  0  0  0
   -7.0321   -4.4538    0.3579 H   0  0  0  0  0  0  0  0  0  0  0  0
  1 21  1  0  0  0  0
  1 23  1  0  0  0  0
  2 18  1  0  0  0  0
  2 58  1  0  0  0  0
  3 13  1  0  0  0  0
  3 14  1  0  0  0  0
  3 17  1  0  0  0  0
  4 15  1  0  0  0  0
  4 16  1  0  0  0  0
  4 22  1  0  0  0  0
  5 22  1  0  0  0  0
  5 28  2  0  0  0  0
  6  7  1  0  0  0  0
  6  8  1  0  0  0  0
  6 12  1  0  0  0  0
  6 30  1  0  0  0  0
  7  9  1  0  0  0  0
  7 31  1  0  0  0  0
  7 32  1  0  0  0  0
  8 10  1  0  0  0  0
  8 33  1  0  0  0  0
  8 34  1  0  0  0  0
  9 11  1  0  0  0  0
  9 35  1  0  0  0  0
  9 36  1  0  0  0  0
 10 11  1  0  0  0  0
 10 37  1  0  0  0  0
 10 38  1  0  0  0  0
 11 39  1  0  0  0  0
 11 40  1  0  0  0  0
 12 19  2  0  0  0  0
 12 20  1  0  0  0  0
 13 15  1  0  0  0  0
 13 41  1  0  0  0  0
 13 42  1  0  0  0  0
 14 16  1  0  0  0  0
 14 43  1  0  0  0  0
 14 44  1  0  0  0  0
 15 45  1  0  0  0  0
 15 46  1  0  0  0  0
 16 47  1  0  0  0  0
 16 48  1  0  0  0  0
 17 18  1  0  0  0  0
 17 49  1  0  0  0  0
 17 50  1  0  0  0  0
 18 21  1  0  0  0  0
 18 51  1  0  0  0  0
 19 24  1  0  0  0  0
 19 52  1  0  0  0  0
 20 25  2  0  0  0  0
 20 53  1  0  0  0  0
 21 54  1  0  0  0  0
 21 55  1  0  0  0  0
 22 26  2  0  0  0  0
 23 24  2  0  0  0  0
 23 25  1  0  0  0  0
 24 56  1  0  0  0  0
 25 57  1  0  0  0  0
 26 27  1  0  0  0  0
 26 59  1  0  0  0  0
 27 29  2  0  0  0  0
 27 60  1  0  0  0  0
 28 29  1  0  0  0  0
 28 61  1  0  0  0  0
 29 62  1  0  0  0  0
M  END
> <DATABASE_ID>
DB08543

> <DATABASE_NAME>
drugbank

> <ORIGINAL_SOURCE>
PUBCHEM

> <ORIGINAL_SOURCE_URL>
https://pubchem.ncbi.nlm.nih.gov/rest/pug/compound/inchikey/BZJHCQBNFUNZPJ-QFIPXVFZSA-N/SDF?record_type=3d

> <SMILES>
[H][C@@](O)(COC1=CC=C(C=C1)C1CCCCC1)CN1CCN(CC1)C1=CC=CC=N1

> <INCHI_IDENTIFIER>
InChI=1S/C24H33N3O2/c28-22(18-26-14-16-27(17-15-26)24-8-4-5-13-25-24)19-29-23-11-9-21(10-12-23)20-6-2-1-3-7-20/h4-5,8-13,20,22,28H,1-3,6-7,14-19H2/t22-/m0/s1

> <INCHI_KEY>
BZJHCQBNFUNZPJ-QFIPXVFZSA-N

> <FORMULA>
C24H33N3O2

> <MOLECULAR_WEIGHT>
395.5377

> <EXACT_MASS>
395.257277315

> <JCHEM_ACCEPTOR_COUNT>
5

> <JCHEM_AVERAGE_POLARIZABILITY>
46.202710726128956

> <JCHEM_BIOAVAILABILITY>
1

> <JCHEM_DONOR_COUNT>
1

> <JCHEM_FORMAL_CHARGE>
0

> <JCHEM_GHOSE_FILTER>
1

> <JCHEM_IUPAC>
(2S)-1-(4-cyclohexylphenoxy)-3-[4-(pyridin-2-yl)piperazin-1-yl]propan-2-ol

> <ALOGPS_LOGP>
4.32

> <JCHEM_LOGP>
4.4338982646666665

> <ALOGPS_LOGS>
-3.32

> <JCHEM_MDDR_LIKE_RULE>
1

> <JCHEM_NUMBER_OF_RINGS>
4

> <JCHEM_PHYSIOLOGICAL_CHARGE>
1

> <JCHEM_PKA_STRONGEST_ACIDIC>
14.078919536331107

> <JCHEM_PKA_STRONGEST_BASIC>
7.250773250794702

> <JCHEM_POLAR_SURFACE_AREA>
48.83000000000001

> <JCHEM_REFRACTIVITY>
117.3996

> <JCHEM_ROTATABLE_BOND_COUNT>
7

> <JCHEM_RULE_OF_FIVE>
1

> <ALOGPS_SOLUBILITY>
1.90e-01 g/l

> <JCHEM_TRADITIONAL_IUPAC>
(2S)-1-(4-cyclohexylphenoxy)-3-[4-(pyridin-2-yl)piperazin-1-yl]propan-2-ol

> <JCHEM_VEBER_RULE>
0

> <DRUGBANK_ID>
DB08543

> <DRUG_GROUPS>
experimental

> <GENERIC_NAME>
1-[2-HYDROXY-3-(4-CYCLOHEXYL-PHENOXY)-PROPYL]-4-(2-PYRIDYL)-PIPERAZINE

$$$$
