REMARK  Name = 3335
REMARK  6 active torsions:
REMARK  status: ('A' for Active; 'I' for Inactive)
REMARK    1  A    between atoms: C_1  and  C_14
REMARK    2  A    between atoms: C_2  and  C_7
REMARK    3  A    between atoms: C_14  and  C_15
REMARK    4  A    between atoms: C_15  and  C_16
REMARK    5  A    between atoms: C_16  and  C_18
REMARK    6  A    between atoms: C_18  and  O_19
REMARK                            x       y       z     vdW  Elec       q    Type
REMARK                         _______ _______ _______ _____ _____    ______ ____
ROOT
ATOM      1  C   UNL     1       0.835   0.694   0.001  0.00  0.00    +0.035 C 
ATOM      2  C   UNL     1      -1.864   0.159   0.001  0.00  0.00    +0.000 C 
ATOM      3  C   UNL     1       0.423  -0.619   0.013  0.00  0.00    +0.003 C 
ATOM      4  C   UNL     1      -0.047   1.751  -0.010  0.00  0.00    +0.003 C 
ATOM      5  C   UNL     1      -0.945  -0.890   0.012  0.00  0.00    +0.000 C 
ATOM      6  C   UNL     1      -1.415   1.480  -0.010  0.00  0.00    +0.000 C 
ENDROOT
BRANCH   2   7
ATOM      7  C   UNL     1      -3.284  -0.122   0.001  0.00  0.00    +0.000 C 
ATOM      8  C   UNL     1      -3.965  -0.268  -1.208  0.00  0.00    +0.000 C 
ATOM      9  C   UNL     1      -3.971  -0.246   1.208  0.00  0.00    +0.000 C 
ATOM     10  C   UNL     1      -5.333  -0.539  -1.209  0.00  0.00    +0.000 C 
ATOM     11  C   UNL     1      -5.339  -0.517   1.207  0.00  0.00    +0.000 C 
ATOM     12  C   UNL     1      -6.020  -0.664  -0.001  0.00  0.00    +0.000 C 
ENDBRANCH   2   7
BRANCH   1  14
ATOM     13  O   UNL     1       2.678   2.154  -0.007  0.00  0.00    -0.291 OA
ATOM     14  C   UNL     1       2.299   0.985   0.001  0.00  0.00    +0.174 C 
BRANCH  14  15
ATOM     15  C   UNL     1       3.275  -0.180   0.013  0.00  0.00    +0.081 C 
BRANCH  15  16
ATOM     16  C   UNL     1       4.727   0.285  -0.013  0.00  0.00    +0.117 C 
BRANCH  16  18
ATOM     17  O   UNL     1       5.307  -2.059  -0.008  0.00  0.00    -0.250 OA
ATOM     18  C   UNL     1       5.670  -0.890  -0.006  0.00  0.00    +0.314 C 
BRANCH  18  19
ATOM     19  O   UNL     1       6.972  -0.512   0.015  0.00  0.00    -0.480 OA
ATOM     20  H   UNL     1       7.196   0.398   0.015  0.00  0.00    +0.295 HD
ENDBRANCH  18  19
ENDBRANCH  16  18
ENDBRANCH  15  16
ENDBRANCH  14  15
ENDBRANCH   1  14
TORSDOF 6
