REMARK  Name = 10184653
REMARK  7 active torsions:
REMARK  status: ('A' for Active; 'I' for Inactive)
REMARK    1  A    between atoms: N_2  and  C_15
REMARK    2  A    between atoms: C_4  and  O_32
REMARK    3  A    between atoms: C_5  and  N_22
REMARK    4  A    between atoms: C_23  and  C_25
REMARK    5  A    between atoms: C_26  and  C_27
REMARK    6  A    between atoms: C_27  and  N_28
REMARK    7  A    between atoms: O_32  and  C_34
REMARK                            x       y       z     vdW  Elec       q    Type
REMARK                         _______ _______ _______ _____ _____    ______ ____
ROOT
ATOM      1  N   UNL     1       1.613  -3.870  -0.412  0.00  0.00    -0.248 NA
ATOM      2  N   UNL     1       2.872   0.055  -0.781  0.00  0.00    -0.301 N 
ATOM      3  N   UNL     1       3.373  -2.239  -0.638  0.00  0.00    -0.233 NA
ATOM      4  C   UNL     1      -1.637  -2.184  -0.349  0.00  0.00    +0.153 C 
ATOM      5  C   UNL     1      -1.260  -0.851  -0.472  0.00  0.00    +0.081 C 
ATOM      6  C   UNL     1      -0.665  -3.188  -0.330  0.00  0.00    +0.053 C 
ATOM      7  C   UNL     1       1.060  -1.541  -0.556  0.00  0.00    +0.117 C 
ATOM      8  C   UNL     1       0.692  -2.891  -0.432  0.00  0.00    +0.070 C 
ATOM      9  C   UNL     1       0.088  -0.525  -0.575  0.00  0.00    +0.005 C 
ATOM     10  C   UNL     1       2.425  -1.284  -0.655  0.00  0.00    +0.115 C 
ATOM     11  C   UNL     1       2.904  -3.491  -0.517  0.00  0.00    +0.251 C 
ATOM     12  H   UNL     1       2.232   0.646  -1.240  0.00  0.00    +0.153 HD
ENDROOT
BRANCH   2  15
ATOM     13 CL   UNL     1       6.754   0.354   2.548  0.00  0.00    -0.080 Cl
ATOM     14  F   UNL     1       7.521   2.615   0.789  0.00  0.00    -0.203 F 
ATOM     15  C   UNL     1       4.052   0.702  -0.380  0.00  0.00    +0.050 C 
ATOM     16  C   UNL     1       4.739   0.261   0.752  0.00  0.00    +0.028 C 
ATOM     17  C   UNL     1       4.537   1.785  -1.112  0.00  0.00    +0.017 C 
ATOM     18  C   UNL     1       5.911   0.903   1.151  0.00  0.00    +0.086 C 
ATOM     19  C   UNL     1       5.709   2.428  -0.713  0.00  0.00    +0.032 C 
ATOM     20  C   UNL     1       6.396   1.987   0.419  0.00  0.00    +0.151 C 
ENDBRANCH   2  15
BRANCH   5  22
ATOM     21  O   UNL     1      -0.935   2.124  -0.715  0.00  0.00    -0.270 OA
ATOM     22  N   UNL     1      -2.219   0.165  -0.492  0.00  0.00    -0.278 N 
ATOM     23  C   UNL     1      -2.010   1.545  -0.608  0.00  0.00    +0.249 C 
ATOM     24  H   UNL     1      -3.157  -0.125  -0.415  0.00  0.00    +0.155 HD
BRANCH  23  25
ATOM     25  C   UNL     1      -3.299   2.300  -0.589  0.00  0.00    +0.051 C 
ATOM     26  C   UNL     1      -3.306   3.636  -0.690  0.00  0.00    -0.044 C 
BRANCH  26  27
ATOM     27  C   UNL     1      -4.563   4.454  -0.686  0.00  0.00    -0.050 C 
BRANCH  27  28
ATOM     28  N   UNL     1      -4.557   5.442   0.387  0.00  0.00    +0.387 N 
ATOM     29  C   UNL     1      -5.473   6.542   0.080  0.00  0.00    -0.100 C 
ATOM     30  C   UNL     1      -4.920   4.820   1.661  0.00  0.00    -0.100 C 
ATOM     31  H   UNL     1      -3.613   5.820   0.468  0.00  0.00    -0.079 HD
ENDBRANCH  27  28
ENDBRANCH  26  27
ENDBRANCH  23  25
ENDBRANCH   5  22
BRANCH   4  32
ATOM     32  O   UNL     1      -2.950  -2.534  -0.245  0.00  0.00    -0.475 OA
BRANCH  32  34
ATOM     33  O   UNL     1      -5.372  -4.278   0.304  0.00  0.00    -0.350 OA
ATOM     34  C   UNL     1      -3.342  -3.228   0.934  0.00  0.00    +0.198 C 
ATOM     35  C   UNL     1      -4.486  -2.506   1.603  0.00  0.00    +0.078 C 
ATOM     36  C   UNL     1      -3.979  -4.546   0.542  0.00  0.00    +0.185 C 
ATOM     37  C   UNL     1      -5.674  -2.959   0.779  0.00  0.00    +0.146 C 
ENDBRANCH  32  34
ENDBRANCH   4  32
TORSDOF 7
