REMARK  Name = 8163
REMARK  8 active torsions:
REMARK  status: ('A' for Active; 'I' for Inactive)
REMARK    1  A    between atoms: C_1  and  C_2
REMARK    2  A    between atoms: C_1  and  C_7
REMARK    3  A    between atoms: C_2  and  C_3
REMARK    4  A    between atoms: C_3  and  C_4
REMARK    5  A    between atoms: C_4  and  C_5
REMARK    6  A    between atoms: C_7  and  C_8
REMARK    7  A    between atoms: C_8  and  C_9
REMARK    8  A    between atoms: C_9  and  C_11
REMARK                            x       y       z     vdW  Elec       q    Type
REMARK                         _______ _______ _______ _____ _____    ______ ____
ROOT
ATOM      1  C   UNL     1      -0.392  -0.330   0.139  0.00  0.00    +0.000 C 
ENDROOT
BRANCH   1   2
ATOM      2  C   UNL     1      -1.723   0.427   0.095  0.00  0.00    +0.000 C 
BRANCH   2   3
ATOM      3  C   UNL     1      -2.986  -0.441   0.070  0.00  0.00    +0.000 C 
BRANCH   3   4
ATOM      4  C   UNL     1      -4.280   0.368  -0.036  0.00  0.00    +0.000 C 
BRANCH   4   5
ATOM      5  C   UNL     1      -5.504  -0.548  -0.066  0.00  0.00    +0.000 C 
ATOM      6  C   UNL     1      -6.795   0.252  -0.134  0.00  0.00    +0.000 C 
ENDBRANCH   4   5
ENDBRANCH   3   4
ENDBRANCH   2   3
ENDBRANCH   1   2
BRANCH   1   7
ATOM      7  C   UNL     1       0.833   0.587   0.105  0.00  0.00    +0.000 C 
BRANCH   7   8
ATOM      8  C   UNL     1       2.131  -0.227   0.060  0.00  0.00    +0.008 C 
BRANCH   8   9
ATOM      9  C   UNL     1       3.372   0.660  -0.012  0.00  0.00    +0.065 C 
BRANCH   9  11
ATOM     10  O   UNL     1       4.727  -1.344  -0.060  0.00  0.00    -0.296 OA
ATOM     11  C   UNL     1       4.679  -0.115  -0.051  0.00  0.00    +0.151 C 
ATOM     12  C   UNL     1       5.938   0.711  -0.111  0.00  0.00    +0.072 C 
ENDBRANCH   9  11
ENDBRANCH   8   9
ENDBRANCH   7   8
ENDBRANCH   1   7
TORSDOF 8
