REMARK  Name = 15939606
REMARK  1 active torsions:
REMARK  status: ('A' for Active; 'I' for Inactive)
REMARK    1  A    between atoms: C_4  and  S_11
REMARK                            x       y       z     vdW  Elec       q    Type
REMARK                         _______ _______ _______ _____ _____    ______ ____
ROOT
ATOM      1  C   UNL     1       1.322   0.509   0.000  0.00  0.00    -0.008 C 
ATOM      2  C   UNL     1       0.785  -0.800   0.001  0.00  0.00    +0.001 C 
ATOM      3  C   UNL     1       2.716   0.680   0.001  0.00  0.00    +0.018 C 
ATOM      4  C   UNL     1      -1.461   0.133  -0.001  0.00  0.00    +0.112 C 
ATOM      5  C   UNL     1      -0.609  -0.971   0.000  0.00  0.00    +0.019 C 
ATOM      6  C   UNL     1       0.449   1.609  -0.001  0.00  0.00    +0.001 C 
ATOM      7  C   UNL     1       1.658  -1.901   0.002  0.00  0.00    +0.000 C 
ATOM      8  C   UNL     1      -0.933   1.421  -0.002  0.00  0.00    +0.019 C 
ATOM      9  C   UNL     1       3.569  -0.425   0.002  0.00  0.00    -0.008 C 
ATOM     10  C   UNL     1       3.041  -1.712   0.003  0.00  0.00    -0.001 C 
ENDROOT
BRANCH   4  11
ATOM     11  S   UNL     1      -3.191  -0.100   0.000  0.00  0.00    +0.042 S 
ATOM     12  O   UNL     1      -3.539  -0.147  -1.428  0.00  0.00    -0.065 OA
ATOM     13  O   UNL     1      -3.425  -1.370   0.707  0.00  0.00    -0.065 OA
ATOM     14  O   UNL     1      -3.706   1.076   0.717  0.00  0.00    -0.065 OA
ENDBRANCH   4  11
TORSDOF 1
REMARK  Name = 15939606
REMARK  1 active torsions:
REMARK  status: ('A' for Active; 'I' for Inactive)
REMARK    1  A    between atoms: C_4  and  S_11
REMARK                            x       y       z     vdW  Elec       q    Type
REMARK                         _______ _______ _______ _____ _____    ______ ____
ROOT
ATOM      1  N   UNL     1       3.325   1.998   0.000  0.00  0.00    -0.273 NA
ATOM      2  H   UNL     1       2.757   2.803  -0.001  0.00  0.00    +0.137 HD
ATOM      3  H   UNL     1       4.305   2.088   0.001  0.00  0.00    +0.137 HD
ENDROOT
TORSDOF 0
