REMARK  Name = 25271556
REMARK  1 active torsions:
REMARK  status: ('A' for Active; 'I' for Inactive)
REMARK    1  A    between atoms: C_6  and  C_18
REMARK                            x       y       z     vdW  Elec       q    Type
REMARK                         _______ _______ _______ _____ _____    ______ ____
ROOT
ATOM      1  N   UNL     1       3.143   1.326   0.000  0.00  0.00    -0.332 NA
ATOM      2  N   UNL     1       3.653  -1.029  -0.001  0.00  0.00    -0.313 NA
ATOM      3  N   UNL     1       1.982  -2.640  -0.001  0.00  0.00    -0.332 N 
ATOM      4  N   UNL     1       5.364   0.571   0.000  0.00  0.00    -0.283 N 
ATOM      5  C   UNL     1      -0.021  -0.553   0.000  0.00  0.00    -0.016 C 
ATOM      6  C   UNL     1      -0.942   0.491   0.000  0.00  0.00    -0.008 C 
ATOM      7  C   UNL     1       1.357  -0.275   0.000  0.00  0.00    +0.067 C 
ATOM      8  C   UNL     1       1.827   1.048   0.000  0.00  0.00    +0.130 C 
ATOM      9  C   UNL     1      -0.488   1.805   0.000  0.00  0.00    -0.019 C 
ATOM     10  C   UNL     1       0.884   2.073   0.001  0.00  0.00    +0.086 C 
ATOM     11  C   UNL     1      -0.580  -1.946   0.000  0.00  0.00    +0.031 C 
ATOM     12  C   UNL     1       2.328  -1.271  -0.001  0.00  0.00    +0.193 C 
ATOM     13  C   UNL     1       3.984   0.272   0.000  0.00  0.00    +0.197 C 
ATOM     14  H   UNL     1       2.687  -3.327  -0.001  0.00  0.00    +0.145 HD
ATOM     15  H   UNL     1       1.034  -2.908   0.000  0.00  0.00    +0.145 HD
ATOM     16  H   UNL     1       5.665   1.508   0.001  0.00  0.00    +0.156 HD
ATOM     17  H   UNL     1       6.026  -0.158   0.000  0.00  0.00    +0.156 HD
ENDROOT
BRANCH   6  18
ATOM     18  C   UNL     1      -2.372   0.252   0.000  0.00  0.00    -0.001 C 
ATOM     19  C   UNL     1      -3.060   0.138  -1.208  0.00  0.00    -0.000 C 
ATOM     20  C   UNL     1      -3.060   0.136   1.208  0.00  0.00    -0.000 C 
ATOM     21  C   UNL     1      -4.436  -0.092  -1.208  0.00  0.00    -0.000 C 
ATOM     22  C   UNL     1      -4.436  -0.095   1.208  0.00  0.00    -0.000 C 
ATOM     23  C   UNL     1      -5.124  -0.209   0.000  0.00  0.00    -0.000 C 
ENDBRANCH   6  18
TORSDOF 1
