REMARK  Name = 65679
REMARK  0 active torsions:
REMARK  status: ('A' for Active; 'I' for Inactive)
REMARK                            x       y       z     vdW  Elec       q    Type
REMARK                         _______ _______ _______ _____ _____    ______ ____
ROOT
ATOM      1  S   UNL     1       2.823   1.701   0.397  0.00  0.00    +0.077 S 
ATOM      2  O   UNL     1       0.092  -1.702   0.209  0.00  0.00    -0.406 OA
ATOM      3  O   UNL     1       2.625   1.825   1.828  0.00  0.00    -0.150 OA
ATOM      4  O   UNL     1       3.752   2.561  -0.313  0.00  0.00    -0.150 OA
ATOM      5  O   UNL     1      -1.497   1.976   0.303  0.00  0.00    -0.265 OA
ATOM      6  O   UNL     1      -1.916  -2.671   0.097  0.00  0.00    -0.222 OA
ATOM      7  N   UNL     1       1.304   1.745  -0.410  0.00  0.00    -0.181 N 
ATOM      8  N   UNL     1      -1.825  -0.322   0.035  0.00  0.00    -0.193 N 
ATOM      9  C   UNL     1       0.411   0.654  -0.110  0.00  0.00    +0.160 A 
ATOM     10  C   UNL     1       3.330   0.049   0.091  0.00  0.00    +0.128 C 
ATOM     11  C   UNL     1       2.347  -0.920  -0.114  0.00  0.00    +0.055 C 
ATOM     12  C   UNL     1       0.914  -0.583  -0.007  0.00  0.00    +0.171 A 
ATOM     13  C   UNL     1      -1.050   0.855   0.062  0.00  0.00    +0.288 A 
ATOM     14  C   UNL     1       0.788   3.091  -0.752  0.00  0.00    +0.139 C 
ATOM     15  C   UNL     1       4.693  -0.241   0.018  0.00  0.00    +0.020 C 
ATOM     16  C   UNL     1       2.777  -2.227  -0.389  0.00  0.00    +0.004 C 
ATOM     17  C   UNL     1      -1.276  -1.620   0.121  0.00  0.00    +0.429 A 
ATOM     18  C   UNL     1       5.096  -1.543  -0.258  0.00  0.00    +0.001 C 
ATOM     19  C   UNL     1       4.140  -2.536  -0.462  0.00  0.00    +0.000 C 
ATOM     20  N   UNL     1      -4.020  -1.138   0.564  0.00  0.00    -0.226 NA
ATOM     21  C   UNL     1      -3.265  -0.176  -0.006  0.00  0.00    +0.155 C 
ATOM     22  C   UNL     1      -3.769   0.949  -0.630  0.00  0.00    +0.038 C 
ATOM     23  C   UNL     1      -5.151   1.099  -0.675  0.00  0.00    +0.005 C 
ATOM     24  C   UNL     1      -5.358  -0.958   0.501  0.00  0.00    +0.101 C 
ATOM     25  C   UNL     1      -5.968   0.131  -0.101  0.00  0.00    +0.021 C 
ENDROOT
TORSDOF 0
