REMARK  Name = 2765
REMARK  4 active torsions:
REMARK  status: ('A' for Active; 'I' for Inactive)
REMARK    1  A    between atoms: C_1  and  C_7
REMARK    2  A    between atoms: C_2  and  O_10
REMARK    3  A    between atoms: O_10  and  C_11
REMARK    4  A    between atoms: C_11  and  C_14
REMARK                            x       y       z     vdW  Elec       q    Type
REMARK                         _______ _______ _______ _____ _____    ______ ____
ROOT
ATOM      1  C   UNL     1       1.974   0.488  -0.299  0.00  0.00    +0.011 C 
ATOM      2  C   UNL     1       1.142  -0.623  -0.290  0.00  0.00    +0.135 C 
ATOM      3  C   UNL     1       3.316   0.345   0.055  0.00  0.00    -0.001 C 
ATOM      4  C   UNL     1       1.626  -1.874   0.066  0.00  0.00    +0.037 C 
ATOM      5  C   UNL     1       3.813  -0.908   0.414  0.00  0.00    -0.000 C 
ATOM      6  C   UNL     1       2.967  -2.018   0.420  0.00  0.00    +0.003 C 
ENDROOT
BRANCH   1   7
ATOM      7  C   UNL     1       1.459   1.836  -0.682  0.00  0.00    +0.025 C 
ATOM      8  C   UNL     1       0.277   2.397   0.042  0.00  0.00    +0.005 C 
ATOM      9  C   UNL     1       1.642   2.980   0.263  0.00  0.00    +0.005 C 
ENDBRANCH   1   7
BRANCH   2  10
ATOM     10  O   UNL     1      -0.184  -0.501  -0.635  0.00  0.00    -0.468 OA
BRANCH  10  11
ATOM     11  C   UNL     1      -1.093  -1.395  -0.029  0.00  0.00    +0.266 C 
BRANCH  11  14
ATOM     12  N   UNL     1      -2.763   0.049   1.119  0.00  0.00    -0.296 N 
ATOM     13  N   UNL     1      -3.280  -0.765  -0.942  0.00  0.00    -0.228 NA
ATOM     14  C   UNL     1      -2.414  -0.702   0.038  0.00  0.00    +0.154 C 
ATOM     15  C   UNL     1      -4.053   0.633   0.916  0.00  0.00    +0.084 C 
ATOM     16  C   UNL     1      -4.431   0.057  -0.457  0.00  0.00    +0.116 C 
ATOM     17  H   UNL     1      -2.208   0.171   1.923  0.00  0.00    +0.153 HD
ENDBRANCH  11  14
ENDBRANCH  10  11
ENDBRANCH   2  10
TORSDOF 4
