REMARK  Name = 15657209
REMARK  2 active torsions:
REMARK  status: ('A' for Active; 'I' for Inactive)
REMARK    1  A    between atoms: C_1  and  C_11
REMARK    2  A    between atoms: C_2  and  N_17
REMARK                            x       y       z     vdW  Elec       q    Type
REMARK                         _______ _______ _______ _____ _____    ______ ____
ROOT
ATOM      1  C   UNL     1      -0.279  -0.018   1.130  0.00  0.00    +0.042 C 
ATOM      2  C   UNL     1       0.982   1.926   0.069  0.00  0.00    -0.057 C 
ATOM      3  C   UNL     1       0.213   1.435   1.298  0.00  0.00    -0.012 C 
ATOM      4  C   UNL     1       2.219   1.052  -0.161  0.00  0.00    +0.005 C 
ATOM      5  C   UNL     1       0.779  -0.935   0.537  0.00  0.00    -0.023 C 
ATOM      6  C   UNL     1       1.928  -0.428  -0.100  0.00  0.00    -0.028 C 
ATOM      7  C   UNL     1       0.597  -2.328   0.612  0.00  0.00    -0.004 C 
ATOM      8  C   UNL     1       2.870  -1.321  -0.637  0.00  0.00    -0.005 C 
ATOM      9  C   UNL     1       1.535  -3.203   0.064  0.00  0.00    -0.000 C 
ATOM     10  C   UNL     1       2.671  -2.699  -0.560  0.00  0.00    -0.000 C 
ENDROOT
BRANCH   1  11
ATOM     11  C   UNL     1      -1.618  -0.062   0.399  0.00  0.00    -0.019 C 
ATOM     12  C   UNL     1      -2.801  -0.007   1.126  0.00  0.00    -0.004 C 
ATOM     13  C   UNL     1      -1.642  -0.156  -0.989  0.00  0.00    -0.004 C 
ATOM     14  C   UNL     1      -4.025  -0.048   0.458  0.00  0.00    -0.000 C 
ATOM     15  C   UNL     1      -2.865  -0.196  -1.657  0.00  0.00    -0.000 C 
ATOM     16  C   UNL     1      -4.057  -0.141  -0.934  0.00  0.00    -0.000 C 
ENDBRANCH   1  11
BRANCH   2  17
ATOM     17  N   UNL     1       1.395   3.317   0.260  0.00  0.00    +0.384 N 
ATOM     18  C   UNL     1       2.097   3.812  -0.915  0.00  0.00    -0.106 C 
ATOM     19  H   UNL     1       2.014   3.374   1.068  0.00  0.00    -0.085 HD
ATOM     20  H   UNL     1       0.564   3.888   0.409  0.00  0.00    -0.085 HD
ENDBRANCH   2  17
TORSDOF 2
