REMARK  Name = 5929
REMARK  4 active torsions:
REMARK  status: ('A' for Active; 'I' for Inactive)
REMARK    1  A    between atoms: C_1  and  N_3
REMARK    2  A    between atoms: C_1  and  C_8
REMARK    3  A    between atoms: N_3  and  N_5
REMARK    4  A    between atoms: C_8  and  C_9
REMARK                            x       y       z     vdW  Elec       q    Type
REMARK                         _______ _______ _______ _____ _____    ______ ____
ROOT
ATOM      1  C   UNL     1      -1.863   0.277   0.436  0.00  0.00    +0.073 C 
ATOM      2  C   UNL     1      -1.604   1.744   0.778  0.00  0.00    +0.019 C 
ENDROOT
BRANCH   1   3
ATOM      3  N   UNL     1      -3.266   0.138   0.033  0.00  0.00    -0.250 NA
ATOM      4  H   UNL     1      -3.876   0.441   0.792  0.00  0.00    +0.141 HD
BRANCH   3   5
ATOM      5  N   UNL     1      -3.504  -1.236  -0.260  0.00  0.00    -0.270 NA
ATOM      6  H   UNL     1      -2.891  -1.533  -1.020  0.00  0.00    +0.137 HD
ATOM      7  H   UNL     1      -4.477  -1.359  -0.541  0.00  0.00    +0.137 HD
ENDBRANCH   3   5
ENDBRANCH   1   3
BRANCH   1   8
ATOM      8  C   UNL     1      -0.950  -0.236  -0.692  0.00  0.00    +0.043 C 
BRANCH   8   9
ATOM      9  C   UNL     1       0.521  -0.172  -0.356  0.00  0.00    -0.021 C 
ATOM     10  C   UNL     1       1.239   0.971  -0.666  0.00  0.00    -0.004 C 
ATOM     11  C   UNL     1       1.125  -1.259   0.256  0.00  0.00    -0.004 C 
ATOM     12  C   UNL     1       2.598   1.030  -0.356  0.00  0.00    -0.000 C 
ATOM     13  C   UNL     1       2.484  -1.201   0.566  0.00  0.00    -0.000 C 
ATOM     14  C   UNL     1       3.220  -0.056   0.261  0.00  0.00    -0.000 C 
ENDBRANCH   8   9
ENDBRANCH   1   8
TORSDOF 4
