REMARK  Name = 68614
REMARK  9 active torsions:
REMARK  status: ('A' for Active; 'I' for Inactive)
REMARK    1  A    between atoms: C_1  and  O_2
REMARK    2  A    between atoms: C_1  and  C_4
REMARK    3  A    between atoms: C_1  and  C_11
REMARK    4  A    between atoms: C_4  and  C_6
REMARK    5  A    between atoms: C_4  and  O_9
REMARK    6  A    between atoms: C_6  and  C_8
REMARK    7  A    between atoms: C_11  and  O_12
REMARK    8  A    between atoms: C_11  and  C_14
REMARK    9  A    between atoms: C_14  and  O_15
REMARK                            x       y       z     vdW  Elec       q    Type
REMARK                         _______ _______ _______ _____ _____    ______ ____
ROOT
ATOM      1  C   UNL     1       0.624   0.381   0.419  0.00  0.00    +0.170 C 
ENDROOT
BRANCH   1   2
ATOM      2  O   UNL     1       0.437   1.649  -0.205  0.00  0.00    -0.379 OA
ATOM      3  H   UNL     1      -0.380   2.054   0.123  0.00  0.00    +0.211 HD
ENDBRANCH   1   2
BRANCH   1   4
ATOM      4  C   UNL     1      -0.626  -0.478   0.157  0.00  0.00    +0.180 C 
BRANCH   4   6
ATOM      5  F   UNL     1      -2.059   1.371   0.060  0.00  0.00    -0.226 F 
ATOM      6  C   UNL     1      -1.936   0.145   0.649  0.00  0.00    +0.254 C 
BRANCH   6   8
ATOM      7  O   UNL     1      -4.050  -0.335  -0.408  0.00  0.00    -0.285 OA
ATOM      8  C   UNL     1      -3.145  -0.701   0.336  0.00  0.00    +0.245 C 
ENDBRANCH   6   8
ENDBRANCH   4   6
BRANCH   4   9
ATOM      9  O   UNL     1      -0.725  -0.735  -1.244  0.00  0.00    -0.379 OA
ATOM     10  H   UNL     1       0.103  -1.130  -1.559  0.00  0.00    +0.211 HD
ENDBRANCH   4   9
ENDBRANCH   1   4
BRANCH   1  11
ATOM     11  C   UNL     1       1.921  -0.277  -0.093  0.00  0.00    +0.169 C 
BRANCH  11  12
ATOM     12  O   UNL     1       2.107  -1.525   0.578  0.00  0.00    -0.379 OA
ATOM     13  H   UNL     1       1.329  -2.087   0.437  0.00  0.00    +0.211 HD
ENDBRANCH  11  12
BRANCH  11  14
ATOM     14  C   UNL     1       3.158   0.587   0.144  0.00  0.00    +0.169 C 
BRANCH  14  15
ATOM     15  O   UNL     1       4.294  -0.083  -0.393  0.00  0.00    -0.379 OA
ATOM     16  H   UNL     1       5.087   0.457  -0.248  0.00  0.00    +0.211 HD
ENDBRANCH  14  15
ENDBRANCH  11  14
ENDBRANCH   1  11
TORSDOF 9
