REMARK  Name = 24965990
REMARK  2 active torsions:
REMARK  status: ('A' for Active; 'I' for Inactive)
REMARK    1  A    between atoms: C_13  and  C_21
REMARK    2  A    between atoms: C_22  and  N_28
REMARK                            x       y       z     vdW  Elec       q    Type
REMARK                         _______ _______ _______ _____ _____    ______ ____
ROOT
ATOM      1 CL   UNL     1       7.936  -0.875  -2.547  0.00  0.00    -0.086 Cl
ATOM      2  O   UNL     1       3.697   0.453   1.189  0.00  0.00    -0.414 OA
ATOM      3  O   UNL     1      -3.356   1.096   1.975  0.00  0.00    -0.270 OA
ATOM      4  N   UNL     1      -1.276   0.766   0.938  0.00  0.00    -0.276 N 
ATOM      5  N   UNL     1       1.558  -0.474   1.343  0.00  0.00    -0.251 N 
ATOM      6  N   UNL     1       3.215  -1.173  -0.316  0.00  0.00    -0.356 NA
ATOM      7  C   UNL     1      -0.667   1.903   1.659  0.00  0.00    +0.077 C 
ATOM      8  C   UNL     1       0.846   1.797   1.942  0.00  0.00    +0.041 C 
ATOM      9  C   UNL     1       1.284   0.428   2.470  0.00  0.00    +0.098 C 
ATOM     10  C   UNL     1      -0.448   0.004  -0.015  0.00  0.00    +0.115 C 
ATOM     11  C   UNL     1       0.382  -1.066   0.699  0.00  0.00    +0.118 C 
ATOM     12  C   UNL     1      -0.967   3.211   0.919  0.00  0.00    +0.022 C 
ATOM     13  C   UNL     1      -2.631   0.485   1.190  0.00  0.00    +0.250 C 
ATOM     14  C   UNL     1       2.798  -0.447   0.699  0.00  0.00    +0.348 C 
ATOM     15  C   UNL     1       4.497  -0.723  -0.521  0.00  0.00    +0.153 C 
ATOM     16  C   UNL     1       4.795   0.273   0.398  0.00  0.00    +0.175 C 
ATOM     17  C   UNL     1       5.473  -1.096  -1.456  0.00  0.00    +0.100 C 
ATOM     18  C   UNL     1       6.009   0.945   0.470  0.00  0.00    +0.041 C 
ATOM     19  C   UNL     1       6.711  -0.440  -1.414  0.00  0.00    +0.043 C 
ATOM     20  C   UNL     1       6.971   0.560  -0.469  0.00  0.00    +0.011 C 
ENDROOT
BRANCH  13  21
ATOM     21  C   UNL     1      -3.263  -0.623   0.465  0.00  0.00    +0.070 C 
ATOM     22  C   UNL     1      -3.894  -0.427  -0.764  0.00  0.00    +0.098 C 
ATOM     23  C   UNL     1      -3.224  -1.896   1.033  0.00  0.00    +0.002 C 
ATOM     24  C   UNL     1      -3.814  -2.973   0.372  0.00  0.00    -0.022 C 
ATOM     25  C   UNL     1      -4.484  -1.504  -1.425  0.00  0.00    +0.018 C 
ATOM     26  C   UNL     1      -4.444  -2.777  -0.857  0.00  0.00    -0.003 C 
ATOM     27  C   UNL     1      -3.771  -4.335   0.979  0.00  0.00    +0.031 C 
BRANCH  22  28
ATOM     28  N   UNL     1      -3.947   0.828  -1.348  0.00  0.00    -0.109 N 
ATOM     29  N   UNL     1      -3.981   0.963  -2.684  0.00  0.00    -0.154 NA
ATOM     30  N   UNL     1      -3.965   1.937  -0.591  0.00  0.00    -0.154 NA
ATOM     31  C   UNL     1      -4.025   2.293  -2.803  0.00  0.00    +0.142 C 
ATOM     32  C   UNL     1      -4.015   2.885  -1.532  0.00  0.00    +0.142 C 
ENDBRANCH  22  28
ENDBRANCH  13  21
TORSDOF 2
