REMARK  Name = 443869
REMARK  9 active torsions:
REMARK  status: ('A' for Active; 'I' for Inactive)
REMARK    1  A    between atoms: C_2  and  C_10
REMARK    2  A    between atoms: C_3  and  C_20
REMARK    3  A    between atoms: C_4  and  C_36
REMARK    4  A    between atoms: C_13  and  N_18
REMARK    5  A    between atoms: C_20  and  O_21
REMARK    6  A    between atoms: O_21  and  C_23
REMARK    7  A    between atoms: N_22  and  C_28
REMARK    8  A    between atoms: C_28  and  C_29
REMARK    9  A    between atoms: C_36  and  O_37
REMARK                            x       y       z     vdW  Elec       q    Type
REMARK                         _______ _______ _______ _____ _____    ______ ____
ROOT
ATOM      1  N   UNL     1      -3.273   1.246   2.141  0.00  0.00    -0.334 N 
ATOM      2  C   UNL     1      -2.573   0.451  -0.487  0.00  0.00    +0.011 C 
ATOM      3  C   UNL     1      -1.949   1.657   0.223  0.00  0.00    +0.071 C 
ATOM      4  C   UNL     1      -3.726  -0.177   0.304  0.00  0.00    +0.085 C 
ATOM      5  C   UNL     1      -2.296   1.980   1.490  0.00  0.00    +0.098 C 
ATOM      6  C   UNL     1      -4.014   0.227   1.563  0.00  0.00    +0.028 C 
ATOM      7  C   UNL     1      -1.708   3.108   2.294  0.00  0.00    +0.026 C 
ATOM      8  C   UNL     1      -5.096  -0.347   2.437  0.00  0.00    +0.047 C 
ATOM      9  H   UNL     1      -3.455   1.464   3.084  0.00  0.00    +0.147 HD
ENDROOT
BRANCH   2  10
ATOM     10  C   UNL     1      -1.519  -0.583  -0.763  0.00  0.00    +0.002 C 
ATOM     11  C   UNL     1      -0.844  -1.191   0.295  0.00  0.00    +0.024 C 
ATOM     12  C   UNL     1      -1.217  -0.935  -2.078  0.00  0.00    +0.000 C 
ATOM     13  C   UNL     1       0.134  -2.151   0.038  0.00  0.00    +0.143 C 
ATOM     14  C   UNL     1      -0.238  -1.895  -2.336  0.00  0.00    +0.002 C 
ATOM     15  C   UNL     1       0.437  -2.504  -1.278  0.00  0.00    +0.024 C 
BRANCH  13  18
ATOM     16  O   UNL     1       1.698  -3.633   0.861  0.00  0.00    -0.126 OA
ATOM     17  O   UNL     1       0.535  -2.440   2.290  0.00  0.00    -0.126 OA
ATOM     18  N   UNL     1       0.822  -2.771   1.114  0.00  0.00    +0.058 N 
ENDBRANCH  13  18
ENDBRANCH   2  10
BRANCH   3  20
ATOM     19  O   UNL     1      -1.334   3.392  -1.270  0.00  0.00    -0.245 OA
ATOM     20  C   UNL     1      -0.998   2.462  -0.559  0.00  0.00    +0.339 C 
BRANCH  20  21
ATOM     21  O   UNL     1       0.251   1.985  -0.338  0.00  0.00    -0.452 OA
BRANCH  21  23
ATOM     22  N   UNL     1       3.386   2.045  -0.186  0.00  0.00    +0.392 N 
ATOM     23  C   UNL     1       1.288   2.667  -1.030  0.00  0.00    +0.147 C 
ATOM     24  C   UNL     1       1.849   3.794  -0.164  0.00  0.00    +0.019 C 
ATOM     25  C   UNL     1       2.457   1.717  -1.272  0.00  0.00    -0.032 C 
ATOM     26  C   UNL     1       3.338   3.502  -0.066  0.00  0.00    -0.073 C 
ATOM     27  H   UNL     1       3.114   1.591   0.686  0.00  0.00    -0.079 HD
BRANCH  22  28
ATOM     28  C   UNL     1       4.732   1.551  -0.436  0.00  0.00    -0.050 C 
BRANCH  28  29
ATOM     29  C   UNL     1       4.869   0.094  -0.085  0.00  0.00    -0.043 C 
ATOM     30  C   UNL     1       5.253  -0.280   1.203  0.00  0.00    -0.006 C 
ATOM     31  C   UNL     1       4.612  -0.883  -1.047  0.00  0.00    -0.006 C 
ATOM     32  C   UNL     1       5.380  -1.630   1.529  0.00  0.00    -0.000 C 
ATOM     33  C   UNL     1       4.739  -2.233  -0.721  0.00  0.00    -0.000 C 
ATOM     34  C   UNL     1       5.123  -2.607   0.567  0.00  0.00    -0.000 C 
ENDBRANCH  28  29
ENDBRANCH  22  28
ENDBRANCH  21  23
ENDBRANCH  20  21
ENDBRANCH   3  20
BRANCH   4  36
ATOM     35  O   UNL     1      -4.690  -2.322   0.011  0.00  0.00    -0.245 OA
ATOM     36  C   UNL     1      -4.535  -1.186  -0.399  0.00  0.00    +0.342 C 
BRANCH  36  37
ATOM     37  O   UNL     1      -5.038  -0.623  -1.523  0.00  0.00    -0.441 OA
ATOM     38  C   UNL     1      -5.854  -1.487  -2.321  0.00  0.00    +0.256 C 
ENDBRANCH  36  37
ENDBRANCH   4  36
TORSDOF 9
