REMARK  Name = 3728
REMARK  1 active torsions:
REMARK  status: ('A' for Active; 'I' for Inactive)
REMARK    1  A    between atoms: C_6  and  O_13
REMARK                            x       y       z     vdW  Elec       q    Type
REMARK                         _______ _______ _______ _____ _____    ______ ____
ROOT
ATOM      1  I   UNL     1       0.283  -3.677   0.000  0.00  0.00    -0.042 I 
ATOM      2  I   UNL     1      -4.036   0.382   0.001  0.00  0.00    -0.039 I 
ATOM      3  N   UNL     1       1.207   1.793   0.000  0.00  0.00    -0.241 NA
ATOM      4  C   UNL     1       0.751  -0.573   0.000  0.00  0.00    +0.026 C 
ATOM      5  C   UNL     1       0.329   0.772   0.000  0.00  0.00    +0.116 C 
ATOM      6  C   UNL     1      -1.040   1.030   0.000  0.00  0.00    +0.156 C 
ATOM      7  C   UNL     1      -0.194  -1.613   0.000  0.00  0.00    +0.032 C 
ATOM      8  C   UNL     1       2.128  -0.833   0.000  0.00  0.00    +0.004 C 
ATOM      9  C   UNL     1      -1.979  -0.004   0.000  0.00  0.00    +0.066 C 
ATOM     10  C   UNL     1      -1.556  -1.327   0.000  0.00  0.00    +0.015 C 
ATOM     11  C   UNL     1       3.036   0.216   0.000  0.00  0.00    +0.021 C 
ATOM     12  C   UNL     1       2.528   1.499   0.000  0.00  0.00    +0.099 C 
ENDROOT
BRANCH   6  13
ATOM     13  O   UNL     1      -1.454   2.335   0.000  0.00  0.00    -0.504 OA
ATOM     14  H   UNL     1      -0.823   3.027   0.000  0.00  0.00    +0.292 HD
ENDBRANCH   6  13
TORSDOF 1
