REMARK  Name = 621174
REMARK  7 active torsions:
REMARK  status: ('A' for Active; 'I' for Inactive)
REMARK    1  A    between atoms: N_1  and  C_20
REMARK    2  A    between atoms: C_2  and  N_9
REMARK    3  A    between atoms: N_9  and  C_11
REMARK    4  A    between atoms: C_10  and  C_17
REMARK    5  A    between atoms: C_17  and  C_18
REMARK    6  A    between atoms: C_20  and  C_21
REMARK    7  A    between atoms: C_21  and  C_22
REMARK                            x       y       z     vdW  Elec       q    Type
REMARK                         _______ _______ _______ _____ _____    ______ ____
ROOT
ATOM      1  N   UNL     1       1.591  -0.082  -0.485  0.00  0.00    +0.387 N 
ATOM      2  C   UNL     1      -1.203  -0.915  -0.236  0.00  0.00    +0.076 C 
ATOM      3  C   UNL     1      -0.642  -0.314  -1.525  0.00  0.00    -0.003 C 
ATOM      4  C   UNL     1      -0.379  -0.451   0.965  0.00  0.00    -0.003 C 
ATOM      5  C   UNL     1       0.858  -0.583  -1.656  0.00  0.00    -0.076 C 
ATOM      6  C   UNL     1       1.112  -0.716   0.751  0.00  0.00    -0.076 C 
ATOM      7  H   UNL     1       1.419   0.920  -0.411  0.00  0.00    -0.080 HD
ENDROOT
BRANCH   2   9
ATOM      8  O   UNL     1      -3.482  -2.773  -0.103  0.00  0.00    -0.275 OA
ATOM      9  N   UNL     1      -2.595  -0.575  -0.074  0.00  0.00    -0.260 N 
ATOM     10  C   UNL     1      -3.634  -1.552  -0.020  0.00  0.00    +0.229 C 
BRANCH   9  11
ATOM     11  C   UNL     1      -2.958   0.835   0.041  0.00  0.00    +0.054 C 
ATOM     12  C   UNL     1      -2.991   1.379   1.291  0.00  0.00    +0.015 C 
ATOM     13  C   UNL     1      -3.238   1.511  -1.109  0.00  0.00    +0.015 C 
ATOM     14  C   UNL     1      -3.337   2.725   1.401  0.00  0.00    +0.001 C 
ATOM     15  C   UNL     1      -3.584   2.858  -0.998  0.00  0.00    +0.001 C 
ATOM     16  C   UNL     1      -3.634   3.465   0.257  0.00  0.00    +0.000 C 
ENDBRANCH   9  11
BRANCH  10  17
ATOM     17  C   UNL     1      -5.046  -0.984   0.108  0.00  0.00    +0.086 C 
BRANCH  17  18
ATOM     18  C   UNL     1      -6.118  -2.073   0.161  0.00  0.00    +0.010 C 
ATOM     19  C   UNL     1      -7.509  -1.479   0.320  0.00  0.00    +0.001 C 
ENDBRANCH  17  18
ENDBRANCH  10  17
ENDBRANCH   2   9
BRANCH   1  20
ATOM     20  C   UNL     1       3.028  -0.302  -0.649  0.00  0.00    -0.073 C 
BRANCH  20  21
ATOM     21  C   UNL     1       3.813   0.331   0.500  0.00  0.00    +0.004 C 
BRANCH  21  22
ATOM     22  C   UNL     1       5.298   0.132   0.331  0.00  0.00    -0.024 C 
ATOM     23  C   UNL     1       5.900  -0.994   0.873  0.00  0.00    -0.004 C 
ATOM     24  C   UNL     1       6.038   1.078  -0.362  0.00  0.00    -0.004 C 
ATOM     25  C   UNL     1       7.274  -1.179   0.717  0.00  0.00    -0.000 C 
ATOM     26  C   UNL     1       7.412   0.893  -0.519  0.00  0.00    -0.000 C 
ATOM     27  C   UNL     1       8.029  -0.236   0.021  0.00  0.00    -0.000 C 
ENDBRANCH  21  22
ENDBRANCH  20  21
ENDBRANCH   1  20
TORSDOF 7
