947
  -OEChem-10051722043D

  2  1  0     0  0  0  0  0  0999 V2000
   -0.5560    0.0000    0.0000 N   0  0  0  0  0  0  0  0  0  0  0  0
    0.5560    0.0000    0.0000 N   0  0  0  0  0  0  0  0  0  0  0  0
  1  2  3  0  0  0  0
M  END
> <DATABASE_ID>
DB09152

> <DATABASE_NAME>
drugbank

> <ORIGINAL_SOURCE>
PUBCHEM

> <ORIGINAL_SOURCE_URL>
https://pubchem.ncbi.nlm.nih.gov/rest/pug/compound/inchikey/IJGRMHOSHXDMSA-UHFFFAOYSA-N/SDF?record_type=3d

> <SMILES>
N#N

> <INCHI_IDENTIFIER>
InChI=1S/N2/c1-2

> <INCHI_KEY>
IJGRMHOSHXDMSA-UHFFFAOYSA-N

> <FORMULA>
N2

> <MOLECULAR_WEIGHT>
28.0134

> <EXACT_MASS>
28.00614801

> <JCHEM_ACCEPTOR_COUNT>
2

> <JCHEM_AVERAGE_POLARIZABILITY>
1.7660811281543802

> <JCHEM_BIOAVAILABILITY>
1

> <JCHEM_DONOR_COUNT>
0

> <JCHEM_FORMAL_CHARGE>
0

> <JCHEM_GHOSE_FILTER>
0

> <JCHEM_IUPAC>
diazyne

> <JCHEM_LOGP>
0.31153025599999995

> <JCHEM_MDDR_LIKE_RULE>
0

> <JCHEM_NUMBER_OF_RINGS>
0

> <JCHEM_PHYSIOLOGICAL_CHARGE>
0

> <JCHEM_POLAR_SURFACE_AREA>
47.58

> <JCHEM_REFRACTIVITY>
26.2298

> <JCHEM_ROTATABLE_BOND_COUNT>
0

> <JCHEM_RULE_OF_FIVE>
1

> <JCHEM_TRADITIONAL_IUPAC>
nitrogen

> <JCHEM_VEBER_RULE>
0

> <DRUGBANK_ID>
DB09152

> <DRUG_GROUPS>
approved; vet_approved

> <GENERIC_NAME>
Nitrogen

> <PRODUCTS>
Air; Air USP; Carbon Dioxide Mixture; Carbon Monox, Helium, Oxygen, Nitrogen L.D.M.; Co-HE-O2-N2 Mixture; Co-NE-O2-N2 Mixture; Compressed Gas N.O.S.; Gaseous Nitrogen 99.0%; Helium Oxygen Nitrogen mixture; Hyperbaric Chamber Mix; Liquid Nitrogen; Liquid Nitrogen Nf; Lung Diffusion Test Mix No Ne Co; Lung Diffusion Test Mix Nohco; Lung Diffusion Test Mixture; Lung Diffusion Test Mixture Gas; Medical Air; Medical Air Compressed; Medical Air USP; NITROGEN Compressed, NF; Nitric Oxide Nitrogen Mix; Nitrogen; Nitrogen 100%; Nitrogen Compressed; Nitrogen Gas 99%; Nitrogen Liquid 99%; Nitrogen Nf; Nitrogen Nf 99%; Nitrogen Oxygen Mix; Nitrogen c70f6047-a0cb-4f70-aa3a-78acd681efc3; Nitrogen, Refrigerated; Oxygen USP, Nitrogen Nf, Medical Gas Mixture; Oxygen W Nitrogen; Smofkabiven; Smofkabiven Electrolyte Free

$$$$
