REMARK  Name = 133866
REMARK  8 active torsions:
REMARK  status: ('A' for Active; 'I' for Inactive)
REMARK    1  A    between atoms: N_1  and  C_22
REMARK    2  A    between atoms: C_2  and  C_19
REMARK    3  A    between atoms: C_3  and  N_9
REMARK    4  A    between atoms: N_9  and  C_11
REMARK    5  A    between atoms: C_10  and  C_17
REMARK    6  A    between atoms: C_19  and  C_20
REMARK    7  A    between atoms: C_22  and  C_23
REMARK    8  A    between atoms: C_23  and  C_24
REMARK                            x       y       z     vdW  Elec       q    Type
REMARK                         _______ _______ _______ _____ _____    ______ ____
ROOT
ATOM      1  N   UNL     1      -1.451  -0.371   0.575  0.00  0.00    +0.387 N 
ATOM      2  C   UNL     1       0.607   0.365  -0.629  0.00  0.00    +0.002 C 
ATOM      3  C   UNL     1       1.440   0.073   0.636  0.00  0.00    +0.076 C 
ATOM      4  C   UNL     1      -0.840   0.704  -0.222  0.00  0.00    -0.075 C 
ATOM      5  C   UNL     1       0.763  -0.982   1.514  0.00  0.00    -0.003 C 
ATOM      6  C   UNL     1      -0.691  -0.610   1.810  0.00  0.00    -0.076 C 
ATOM      7  H   UNL     1      -1.429  -1.226   0.020  0.00  0.00    -0.080 HD
ENDROOT
BRANCH   3   9
ATOM      8  O   UNL     1       2.521  -2.570  -0.269  0.00  0.00    -0.275 OA
ATOM      9  N   UNL     1       2.800  -0.294   0.328  0.00  0.00    -0.260 N 
ATOM     10  C   UNL     1       3.220  -1.646   0.155  0.00  0.00    +0.229 C 
BRANCH   9  11
ATOM     11  C   UNL     1       3.794   0.768   0.185  0.00  0.00    +0.054 C 
ATOM     12  C   UNL     1       4.479   0.925  -1.019  0.00  0.00    +0.015 C 
ATOM     13  C   UNL     1       4.057   1.625   1.254  0.00  0.00    +0.015 C 
ATOM     14  C   UNL     1       5.427   1.939  -1.155  0.00  0.00    +0.001 C 
ATOM     15  C   UNL     1       5.005   2.639   1.118  0.00  0.00    +0.001 C 
ATOM     16  C   UNL     1       5.690   2.796  -0.087  0.00  0.00    +0.000 C 
ENDBRANCH   9  11
BRANCH  10  17
ATOM     17  C   UNL     1       4.655  -1.936   0.586  0.00  0.00    +0.086 C 
ATOM     18  C   UNL     1       4.850  -3.367   1.062  0.00  0.00    +0.010 C 
ENDBRANCH  10  17
ENDBRANCH   3   9
BRANCH   2  19
ATOM     19  C   UNL     1       0.632  -0.782  -1.651  0.00  0.00    +0.026 C 
BRANCH  19  20
ATOM     20  C   UNL     1      -0.170  -0.439  -2.866  0.00  0.00    -0.026 C 
ATOM     21  C   UNL     1      -1.211  -1.159  -3.299  0.00  0.00    -0.005 C 
ENDBRANCH  19  20
ENDBRANCH   2  19
BRANCH   1  22
ATOM     22  C   UNL     1      -2.844  -0.050   0.886  0.00  0.00    -0.073 C 
BRANCH  22  23
ATOM     23  C   UNL     1      -3.736  -0.236  -0.342  0.00  0.00    +0.004 C 
BRANCH  23  24
ATOM     24  C   UNL     1      -5.171   0.112  -0.041  0.00  0.00    -0.024 C 
ATOM     25  C   UNL     1      -6.045  -0.870   0.424  0.00  0.00    -0.004 C 
ATOM     26  C   UNL     1      -5.626   1.418  -0.227  0.00  0.00    -0.004 C 
ATOM     27  C   UNL     1      -7.373  -0.548   0.703  0.00  0.00    -0.000 C 
ATOM     28  C   UNL     1      -6.954   1.740   0.052  0.00  0.00    -0.000 C 
ATOM     29  C   UNL     1      -7.828   0.757   0.517  0.00  0.00    -0.000 C 
ENDBRANCH  23  24
ENDBRANCH  22  23
ENDBRANCH   1  22
TORSDOF 8
