REMARK  Name = 5311454
REMARK  4 active torsions:
REMARK  status: ('A' for Active; 'I' for Inactive)
REMARK    1  A    between atoms: C_1  and  C_12
REMARK    2  A    between atoms: C_2  and  C_5
REMARK    3  A    between atoms: C_12  and  C_13
REMARK    4  A    between atoms: C_12  and  O_17
REMARK                            x       y       z     vdW  Elec       q    Type
REMARK                         _______ _______ _______ _____ _____    ______ ____
ROOT
ATOM      1  C   UNL     1      -1.588  -0.302   0.383  0.00  0.00    +0.003 C 
ATOM      2  C   UNL     1      -0.646  -1.094  -0.153  0.00  0.00    -0.002 C 
ENDROOT
BRANCH   2   5
ATOM      3  O   UNL     1       3.234   1.872   0.285  0.00  0.00    -0.435 OA
ATOM      4  O   UNL     1       4.790   0.064  -0.057  0.00  0.00    -0.435 OA
ATOM      5  C   UNL     1       0.800  -0.823  -0.134  0.00  0.00    +0.003 C 
ATOM      6  C   UNL     1       1.242   0.475   0.083  0.00  0.00    +0.040 C 
ATOM      7  C   UNL     1       2.607   0.680   0.092  0.00  0.00    +0.176 C 
ATOM      8  C   UNL     1       1.692  -1.881  -0.334  0.00  0.00    +0.003 C 
ATOM      9  C   UNL     1       3.495  -0.353  -0.103  0.00  0.00    +0.176 C 
ATOM     10  C   UNL     1       3.069  -1.647  -0.319  0.00  0.00    +0.040 C 
ATOM     11  C   UNL     1       4.617   1.474   0.190  0.00  0.00    +0.429 C 
ENDBRANCH   2   5
BRANCH   1  12
ATOM     12  C   UNL     1      -3.061  -0.624   0.346  0.00  0.00    +0.132 C 
BRANCH  12  13
ATOM     13  C   UNL     1      -3.953   0.467  -0.327  0.00  0.00    +0.029 C 
ATOM     14  C   UNL     1      -5.437   0.050  -0.236  0.00  0.00    +0.003 C 
ATOM     15  C   UNL     1      -3.792   1.817   0.400  0.00  0.00    +0.003 C 
ATOM     16  C   UNL     1      -3.606   0.657  -1.817  0.00  0.00    +0.003 C 
ENDBRANCH  12  13
BRANCH  12  17
ATOM     17  O   UNL     1      -3.464  -0.832   1.702  0.00  0.00    -0.380 OA
ATOM     18  H   UNL     1      -4.410  -1.044   1.728  0.00  0.00    +0.211 HD
ENDBRANCH  12  17
ENDBRANCH   1  12
TORSDOF 4
