REMARK  Name = 60672
REMARK  8 active torsions:
REMARK  status: ('A' for Active; 'I' for Inactive)
REMARK    1  A    between atoms: N_1  and  C_22
REMARK    2  A    between atoms: C_2  and  N_10
REMARK    3  A    between atoms: N_10  and  C_13
REMARK    4  A    between atoms: C_11  and  C_19
REMARK    5  A    between atoms: C_19  and  O_20
REMARK    6  A    between atoms: C_22  and  C_23
REMARK    7  A    between atoms: C_23  and  N_25
REMARK    8  A    between atoms: N_27  and  C_30
REMARK                            x       y       z     vdW  Elec       q    Type
REMARK                         _______ _______ _______ _____ _____    ______ ____
ROOT
ATOM      1  N   UNL     1       1.076  -0.131   0.436  0.00  0.00    +0.388 N 
ATOM      2  C   UNL     1      -1.707  -0.662  -0.280  0.00  0.00    +0.076 C 
ATOM      3  C   UNL     1      -1.198  -0.859   1.163  0.00  0.00    -0.002 C 
ATOM      4  C   UNL     1      -0.859   0.363  -1.038  0.00  0.00    -0.003 C 
ATOM      5  C   UNL     1       0.310  -1.180   1.127  0.00  0.00    -0.076 C 
ATOM      6  C   UNL     1       0.630   0.019  -0.957  0.00  0.00    -0.076 C 
ATOM      7  C   UNL     1      -1.475   0.339   2.084  0.00  0.00    -0.000 C 
ATOM      8  H   UNL     1       0.909   0.752   0.918  0.00  0.00    -0.080 HD
ENDROOT
BRANCH   2  10
ATOM      9  O   UNL     1      -5.353  -1.080  -0.441  0.00  0.00    -0.272 OA
ATOM     10  N   UNL     1      -3.107  -0.325  -0.342  0.00  0.00    -0.256 N 
ATOM     11  C   UNL     1      -4.140  -1.302  -0.388  0.00  0.00    +0.260 C 
BRANCH  10  13
ATOM     12  F   UNL     1      -4.729   0.820   1.648  0.00  0.00    -0.203 F 
ATOM     13  C   UNL     1      -3.483   1.085  -0.357  0.00  0.00    +0.081 C 
ATOM     14  C   UNL     1      -4.291   1.606   0.654  0.00  0.00    +0.154 C 
ATOM     15  C   UNL     1      -3.033   1.914  -1.385  0.00  0.00    +0.017 C 
ATOM     16  C   UNL     1      -4.647   2.955   0.638  0.00  0.00    +0.031 C 
ATOM     17  C   UNL     1      -3.389   3.262  -1.402  0.00  0.00    +0.001 C 
ATOM     18  C   UNL     1      -4.196   3.783  -0.390  0.00  0.00    +0.002 C 
ENDBRANCH  10  13
BRANCH  11  19
ATOM     19  C   UNL     1      -3.697  -2.752  -0.312  0.00  0.00    +0.228 C 
BRANCH  19  20
ATOM     20  O   UNL     1      -4.829  -3.595  -0.308  0.00  0.00    -0.342 OA
ATOM     21  C   UNL     1      -4.466  -4.971  -0.237  0.00  0.00    +0.175 C 
ENDBRANCH  19  20
ENDBRANCH  11  19
ENDBRANCH   2  10
BRANCH   1  22
ATOM     22  C   UNL     1       2.508  -0.426   0.483  0.00  0.00    -0.050 C 
BRANCH  22  23
ATOM     23  C   UNL     1       3.317   0.855   0.351  0.00  0.00    +0.111 C 
BRANCH  23  25
ATOM     24  O   UNL     1       5.247   0.226  -1.841  0.00  0.00    -0.243 OA
ATOM     25  N   UNL     1       4.728   0.590   0.424  0.00  0.00    -0.184 N 
ATOM     26  N   UNL     1       5.470   0.579   1.573  0.00  0.00    -0.042 NA
ATOM     27  N   UNL     1       6.786   0.134  -0.066  0.00  0.00    -0.182 N 
ATOM     28  N   UNL     1       6.677   0.311   1.285  0.00  0.00    -0.042 NA
ATOM     29  C   UNL     1       5.545   0.305  -0.660  0.00  0.00    +0.365 A 
BRANCH  27  30
ATOM     30  C   UNL     1       8.043  -0.183  -0.690  0.00  0.00    +0.134 C 
ATOM     31  C   UNL     1       8.261  -1.679  -0.771  0.00  0.00    +0.029 C 
ENDBRANCH  27  30
ENDBRANCH  23  25
ENDBRANCH  22  23
ENDBRANCH   1  22
TORSDOF 8
