REMARK  Name = 156375
REMARK  4 active torsions:
REMARK  status: ('A' for Active; 'I' for Inactive)
REMARK    1  A    between atoms: C_1  and  N_3
REMARK    2  A    between atoms: C_1  and  C_9
REMARK    3  A    between atoms: N_3  and  C_6
REMARK    4  A    between atoms: C_9  and  C_11
REMARK                            x       y       z     vdW  Elec       q    Type
REMARK                         _______ _______ _______ _____ _____    ______ ____
ROOT
ATOM      1  C   UNL     1      -1.519  -0.330  -0.009  0.00  0.00    -0.057 C 
ATOM      2  C   UNL     1      -1.627  -1.487  -1.003  0.00  0.00    -0.023 C 
ENDROOT
BRANCH   1   3
ATOM      3  N   UNL     1      -2.830  -0.136   0.617  0.00  0.00    +0.387 N 
ATOM      4  H   UNL     1      -2.770   0.628   1.291  0.00  0.00    -0.084 HD
ATOM      5  H   UNL     1      -3.102  -1.000   1.086  0.00  0.00    -0.084 HD
BRANCH   3   6
ATOM      6  C   UNL     1      -3.832   0.189  -0.384  0.00  0.00    -0.062 C 
ATOM      7  C   UNL     1      -3.453   1.473  -1.116  0.00  0.00    -0.023 C 
ATOM      8  C   UNL     1      -5.195   0.323   0.287  0.00  0.00    -0.023 C 
ENDBRANCH   3   6
ENDBRANCH   1   3
BRANCH   1   9
ATOM      9  C   UNL     1      -0.461  -0.585   1.080  0.00  0.00    +0.005 C 
BRANCH   9  11
ATOM     10  I   UNL     1       5.480   0.662  -0.812  0.00  0.00    -0.043 I 
ATOM     11  C   UNL     1       0.951  -0.288   0.633  0.00  0.00    -0.024 C 
ATOM     12  C   UNL     1       1.702  -1.295   0.049  0.00  0.00    -0.004 C 
ATOM     13  C   UNL     1       1.467   0.985   0.814  0.00  0.00    -0.004 C 
ATOM     14  C   UNL     1       3.006  -1.022  -0.365  0.00  0.00    +0.005 C 
ATOM     15  C   UNL     1       2.771   1.258   0.399  0.00  0.00    +0.005 C 
ATOM     16  C   UNL     1       3.540   0.255  -0.190  0.00  0.00    +0.030 C 
ENDBRANCH   9  11
ENDBRANCH   1   9
TORSDOF 4
