REMARK  Name = 4133
REMARK  3 active torsions:
REMARK  status: ('A' for Active; 'I' for Inactive)
REMARK    1  A    between atoms: C_1  and  C_10
REMARK    2  A    between atoms: C_2  and  O_7
REMARK    3  A    between atoms: C_10  and  O_11
REMARK                            x       y       z     vdW  Elec       q    Type
REMARK                         _______ _______ _______ _____ _____    ______ ____
ROOT
ATOM      1  C   UNL     1      -0.038   0.074   0.082  0.00  0.00    +0.109 C 
ATOM      2  C   UNL     1      -0.950  -0.964  -0.106  0.00  0.00    +0.140 C 
ATOM      3  C   UNL     1      -0.491   1.387   0.206  0.00  0.00    +0.009 C 
ATOM      4  C   UNL     1      -2.316  -0.689  -0.172  0.00  0.00    +0.037 C 
ATOM      5  C   UNL     1      -1.857   1.663   0.140  0.00  0.00    +0.000 C 
ATOM      6  C   UNL     1      -2.769   0.625  -0.049  0.00  0.00    +0.003 C 
ENDROOT
BRANCH   2   7
ATOM      7  O   UNL     1      -0.528  -2.254  -0.230  0.00  0.00    -0.505 OA
ATOM      8  H   UNL     1       0.387  -2.453  -0.188  0.00  0.00    +0.292 HD
ENDBRANCH   2   7
BRANCH   1  10
ATOM      9  O   UNL     1       1.887  -1.242   0.580  0.00  0.00    -0.245 OA
ATOM     10  C   UNL     1       1.392  -0.192   0.154  0.00  0.00    +0.344 C 
BRANCH  10  11
ATOM     11  O   UNL     1       2.123   0.867  -0.311  0.00  0.00    -0.441 OA
ATOM     12  C   UNL     1       3.547   0.726  -0.293  0.00  0.00    +0.256 C 
ENDBRANCH  10  11
ENDBRANCH   1  10
TORSDOF 3
