REMARK  Name = 3965
REMARK  5 active torsions:
REMARK  status: ('A' for Active; 'I' for Inactive)
REMARK    1  A    between atoms: C_1  and  C_13
REMARK    2  A    between atoms: C_4  and  C_7
REMARK    3  A    between atoms: C_7  and  C_10
REMARK    4  A    between atoms: C_10  and  O_11
REMARK    5  A    between atoms: C_13  and  C_15
REMARK                            x       y       z     vdW  Elec       q    Type
REMARK                         _______ _______ _______ _____ _____    ______ ____
ROOT
ATOM      1  C   UNL     1       0.554   0.905  -0.192  0.00  0.00    -0.022 C 
ATOM      2  C   UNL     1       0.033   0.449  -1.393  0.00  0.00    -0.005 C 
ATOM      3  C   UNL     1      -0.260   1.115   0.910  0.00  0.00    -0.005 C 
ATOM      4  C   UNL     1      -2.166   0.403  -0.393  0.00  0.00    -0.012 C 
ATOM      5  C   UNL     1      -1.335   0.196  -1.494  0.00  0.00    -0.004 C 
ATOM      6  C   UNL     1      -1.628   0.863   0.809  0.00  0.00    -0.004 C 
ENDROOT
BRANCH   4   7
ATOM      7  C   UNL     1      -3.628   0.133  -0.501  0.00  0.00    +0.121 C 
ATOM      8  C   UNL     1      -4.508   1.378  -0.269  0.00  0.00    +0.016 C 
BRANCH   7  10
ATOM      9  O   UNL     1      -3.357  -1.584   1.215  0.00  0.00    -0.250 OA
ATOM     10  C   UNL     1      -4.091  -0.986   0.439  0.00  0.00    +0.317 C 
BRANCH  10  11
ATOM     11  O   UNL     1      -5.416  -1.267   0.323  0.00  0.00    -0.480 OA
ATOM     12  H   UNL     1      -5.945  -0.787  -0.284  0.00  0.00    +0.295 HD
ENDBRANCH  10  11
ENDBRANCH   7  10
ENDBRANCH   4   7
BRANCH   1  13
ATOM     13  C   UNL     1       2.033   1.178  -0.083  0.00  0.00    +0.034 C 
BRANCH  13  15
ATOM     14  O   UNL     1       4.811   1.190   0.956  0.00  0.00    -0.296 OA
ATOM     15  C   UNL     1       2.805  -0.045   0.369  0.00  0.00    +0.062 C 
ATOM     16  C   UNL     1       2.748  -1.194  -0.639  0.00  0.00    +0.008 C 
ATOM     17  C   UNL     1       4.015  -1.993  -0.365  0.00  0.00    +0.008 C 
ATOM     18  C   UNL     1       5.090  -0.936  -0.147  0.00  0.00    +0.065 C 
ATOM     19  C   UNL     1       4.299   0.196   0.457  0.00  0.00    +0.151 C 
ENDBRANCH  13  15
ENDBRANCH   1  13
TORSDOF 5
