REMARK  Name = 28718
REMARK  3 active torsions:
REMARK  status: ('A' for Active; 'I' for Inactive)
REMARK    1  A    between atoms: N_1  and  C_4
REMARK    2  A    between atoms: C_13  and  C_18
REMARK    3  A    between atoms: C_18  and  O_19
REMARK                            x       y       z     vdW  Elec       q    Type
REMARK                         _______ _______ _______ _____ _____    ______ ____
ROOT
ATOM      1  N   UNL     1       0.066  -0.322  -0.164  0.00  0.00    -0.298 N 
ATOM      2  H   UNL     1       0.152  -1.288  -0.335  0.00  0.00    +0.154 HD
ATOM      3  N   UNL     1       1.247   1.676  -0.641  0.00  0.00    -0.229 NA
ATOM      4  C   UNL     1       1.282   0.379  -0.246  0.00  0.00    +0.138 C 
ATOM      5  C   UNL     1       2.459  -0.288   0.080  0.00  0.00    +0.107 C 
ATOM      6  C   UNL     1       3.658   0.412  -0.004  0.00  0.00    +0.011 C 
ATOM      7  C   UNL     1       3.652   1.743  -0.405  0.00  0.00    +0.021 C 
ATOM      8  C   UNL     1       2.432   2.324  -0.710  0.00  0.00    +0.100 C 
ENDROOT
BRANCH   1  10
ATOM      9 CL   UNL     1      -5.024  -0.970  -0.795  0.00  0.00    -0.083 Cl
ATOM     10  C   UNL     1      -1.256   0.088   0.118  0.00  0.00    +0.046 C 
ATOM     11  C   UNL     1      -2.348  -0.586  -0.430  0.00  0.00    +0.002 C 
ATOM     12  C   UNL     1      -1.462   1.184   0.956  0.00  0.00    +0.014 C 
ATOM     13  C   UNL     1      -3.646  -0.164  -0.138  0.00  0.00    +0.055 C 
ATOM     14  C   UNL     1      -2.115  -1.760  -1.329  0.00  0.00    +0.033 C 
ATOM     15  C   UNL     1      -2.759   1.605   1.248  0.00  0.00    +0.002 C 
ATOM     16  C   UNL     1      -3.851   0.931   0.701  0.00  0.00    +0.011 C 
ENDBRANCH   1  10
BRANCH   5  18
ATOM     17  O   UNL     1       1.564  -2.255   1.105  0.00  0.00    -0.245 OA
ATOM     18  C   UNL     1       2.475  -1.682   0.501  0.00  0.00    +0.341 C 
BRANCH  18  19
ATOM     19  O   UNL     1       3.627  -2.316   0.153  0.00  0.00    -0.477 OA
ATOM     20  H   UNL     1       4.298  -1.849  -0.306  0.00  0.00    +0.295 HD
ENDBRANCH  18  19
ENDBRANCH   5  18
TORSDOF 3
