133866
  -OEChem-10051722043D

 60 62  0     1  0  0  0  0  0999 V2000
    2.5208   -2.5697   -0.2685 O   0  0  0  0  0  0  0  0  0  0  0  0
   -1.4508   -0.3709    0.5754 N   0  0  1  0  0  0  0  0  0  0  0  0
    2.8004   -0.2939    0.3275 N   0  0  0  0  0  0  0  0  0  0  0  0
    0.6072    0.3652   -0.6295 C   0  0  2  0  0  0  0  0  0  0  0  0
    1.4400    0.0735    0.6358 C   0  0  1  0  0  0  0  0  0  0  0  0
   -0.8402    0.7044   -0.2217 C   0  0  0  0  0  0  0  0  0  0  0  0
    0.7633   -0.9824    1.5140 C   0  0  0  0  0  0  0  0  0  0  0  0
   -0.6911   -0.6098    1.8102 C   0  0  0  0  0  0  0  0  0  0  0  0
    0.6319   -0.7823   -1.6505 C   0  0  0  0  0  0  0  0  0  0  0  0
   -2.8437   -0.0504    0.8861 C   0  0  0  0  0  0  0  0  0  0  0  0
   -3.7357   -0.2364   -0.3419 C   0  0  0  0  0  0  0  0  0  0  0  0
    3.7936    0.7676    0.1855 C   0  0  0  0  0  0  0  0  0  0  0  0
    3.2205   -1.6461    0.1548 C   0  0  0  0  0  0  0  0  0  0  0  0
   -0.1703   -0.4392   -2.8656 C   0  0  0  0  0  0  0  0  0  0  0  0
    4.6554   -1.9359    0.5857 C   0  0  0  0  0  0  0  0  0  0  0  0
   -5.1715    0.1124   -0.0409 C   0  0  0  0  0  0  0  0  0  0  0  0
    4.4787    0.9251   -1.0194 C   0  0  0  0  0  0  0  0  0  0  0  0
    4.0567    1.6245    1.2544 C   0  0  0  0  0  0  0  0  0  0  0  0
   -1.2110   -1.1594   -3.2989 C   0  0  0  0  0  0  0  0  0  0  0  0
    4.8504   -3.3672    1.0623 C   0  0  0  0  0  0  0  0  0  0  0  0
    5.4270    1.9390   -1.1554 C   0  0  0  0  0  0  0  0  0  0  0  0
    5.0049    2.6385    1.1182 C   0  0  0  0  0  0  0  0  0  0  0  0
   -6.0452   -0.8704    0.4244 C   0  0  0  0  0  0  0  0  0  0  0  0
   -5.6260    1.4181   -0.2272 C   0  0  0  0  0  0  0  0  0  0  0  0
    5.6900    2.7957   -0.0866 C   0  0  0  0  0  0  0  0  0  0  0  0
   -7.3734   -0.5479    0.7032 C   0  0  0  0  0  0  0  0  0  0  0  0
   -6.9542    1.7405    0.0517 C   0  0  0  0  0  0  0  0  0  0  0  0
   -7.8278    0.7575    0.5168 C   0  0  0  0  0  0  0  0  0  0  0  0
    1.0329    1.2551   -1.1156 H   0  0  0  0  0  0  0  0  0  0  0  0
    1.4608    0.9990    1.2269 H   0  0  0  0  0  0  0  0  0  0  0  0
   -0.8241    1.6343    0.3655 H   0  0  0  0  0  0  0  0  0  0  0  0
   -1.4248    0.9398   -1.1141 H   0  0  0  0  0  0  0  0  0  0  0  0
    1.3104   -1.0885    2.4594 H   0  0  0  0  0  0  0  0  0  0  0  0
    0.7485   -1.9740    1.0541 H   0  0  0  0  0  0  0  0  0  0  0  0
   -0.7171    0.2755    2.4594 H   0  0  0  0  0  0  0  0  0  0  0  0
   -1.1430   -1.4361    2.3730 H   0  0  0  0  0  0  0  0  0  0  0  0
    1.6551   -0.9531   -2.0011 H   0  0  0  0  0  0  0  0  0  0  0  0
    0.2710   -1.7183   -1.2112 H   0  0  0  0  0  0  0  0  0  0  0  0
   -2.9379    0.9649    1.2946 H   0  0  0  0  0  0  0  0  0  0  0  0
   -3.2138   -0.7290    1.6670 H   0  0  0  0  0  0  0  0  0  0  0  0
   -3.6793   -1.2748   -0.6954 H   0  0  0  0  0  0  0  0  0  0  0  0
   -3.4136    0.3798   -1.1881 H   0  0  0  0  0  0  0  0  0  0  0  0
    0.1267    0.4390   -3.4333 H   0  0  0  0  0  0  0  0  0  0  0  0
    4.9428   -1.2701    1.4058 H   0  0  0  0  0  0  0  0  0  0  0  0
    5.3173   -1.7461   -0.2656 H   0  0  0  0  0  0  0  0  0  0  0  0
    4.2786    0.2687   -1.8624 H   0  0  0  0  0  0  0  0  0  0  0  0
    3.5420    1.5077    2.2044 H   0  0  0  0  0  0  0  0  0  0  0  0
   -1.7496   -0.8632   -4.1924 H   0  0  0  0  0  0  0  0  0  0  0  0
   -1.5452   -2.0473   -2.7739 H   0  0  0  0  0  0  0  0  0  0  0  0
    4.6477   -4.0818    0.2579 H   0  0  0  0  0  0  0  0  0  0  0  0
    4.1755   -3.5973    1.8933 H   0  0  0  0  0  0  0  0  0  0  0  0
    5.8798   -3.5196    1.4009 H   0  0  0  0  0  0  0  0  0  0  0  0
    5.9594    2.0623   -2.0939 H   0  0  0  0  0  0  0  0  0  0  0  0
    5.2121    3.3037    1.9514 H   0  0  0  0  0  0  0  0  0  0  0  0
   -5.7025   -1.8906    0.5753 H   0  0  0  0  0  0  0  0  0  0  0  0
   -4.9545    2.1931   -0.5869 H   0  0  0  0  0  0  0  0  0  0  0  0
    6.4286    3.5849   -0.1923 H   0  0  0  0  0  0  0  0  0  0  0  0
   -8.0535   -1.3131    1.0659 H   0  0  0  0  0  0  0  0  0  0  0  0
   -7.3082    2.7571   -0.0926 H   0  0  0  0  0  0  0  0  0  0  0  0
   -8.8618    1.0088    0.7342 H   0  0  0  0  0  0  0  0  0  0  0  0
  1 13  2  0  0  0  0
  2  6  1  0  0  0  0
  2  8  1  0  0  0  0
  2 10  1  0  0  0  0
  3  5  1  0  0  0  0
  3 12  1  0  0  0  0
  3 13  1  0  0  0  0
  4  5  1  0  0  0  0
  4  6  1  0  0  0  0
  4  9  1  0  0  0  0
  4 29  1  0  0  0  0
  5  7  1  0  0  0  0
  5 30  1  0  0  0  0
  6 31  1  0  0  0  0
  6 32  1  0  0  0  0
  7  8  1  0  0  0  0
  7 33  1  0  0  0  0
  7 34  1  0  0  0  0
  8 35  1  0  0  0  0
  8 36  1  0  0  0  0
  9 14  1  0  0  0  0
  9 37  1  0  0  0  0
  9 38  1  0  0  0  0
 10 11  1  0  0  0  0
 10 39  1  0  0  0  0
 10 40  1  0  0  0  0
 11 16  1  0  0  0  0
 11 41  1  0  0  0  0
 11 42  1  0  0  0  0
 12 17  2  0  0  0  0
 12 18  1  0  0  0  0
 13 15  1  0  0  0  0
 14 19  2  0  0  0  0
 14 43  1  0  0  0  0
 15 20  1  0  0  0  0
 15 44  1  0  0  0  0
 15 45  1  0  0  0  0
 16 23  2  0  0  0  0
 16 24  1  0  0  0  0
 17 21  1  0  0  0  0
 17 46  1  0  0  0  0
 18 22  2  0  0  0  0
 18 47  1  0  0  0  0
 19 48  1  0  0  0  0
 19 49  1  0  0  0  0
 20 50  1  0  0  0  0
 20 51  1  0  0  0  0
 20 52  1  0  0  0  0
 21 25  2  0  0  0  0
 21 53  1  0  0  0  0
 22 25  1  0  0  0  0
 22 54  1  0  0  0  0
 23 26  1  0  0  0  0
 23 55  1  0  0  0  0
 24 27  2  0  0  0  0
 24 56  1  0  0  0  0
 25 57  1  0  0  0  0
 26 28  2  0  0  0  0
 26 58  1  0  0  0  0
 27 28  1  0  0  0  0
 27 59  1  0  0  0  0
 28 60  1  0  0  0  0
M  END
> <DATABASE_ID>
DB09169

> <DATABASE_NAME>
drugbank

> <ORIGINAL_SOURCE>
PUBCHEM

> <ORIGINAL_SOURCE_URL>
https://pubchem.ncbi.nlm.nih.gov/rest/pug/compound/inchikey/BZXKQFFMDLTPJL-LADGPHEKSA-N/SDF?record_type=3d

> <SMILES>
CCC(=O)N([C@@H]1CCN(CCC2=CC=CC=C2)C[C@@H]1CC=C)C1=CC=CC=C1

> <INCHI_IDENTIFIER>
InChI=1S/C25H32N2O/c1-3-11-22-20-26(18-16-21-12-7-5-8-13-21)19-17-24(22)27(25(28)4-2)23-14-9-6-10-15-23/h3,5-10,12-15,22,24H,1,4,11,16-20H2,2H3/t22-,24+/m0/s1

> <INCHI_KEY>
BZXKQFFMDLTPJL-LADGPHEKSA-N

> <FORMULA>
C25H32N2O

> <MOLECULAR_WEIGHT>
376.544

> <EXACT_MASS>
376.251463658

> <JCHEM_ACCEPTOR_COUNT>
2

> <JCHEM_ATOM_COUNT>
60

> <JCHEM_AVERAGE_POLARIZABILITY>
44.61121805563677

> <JCHEM_BIOAVAILABILITY>
1

> <JCHEM_DONOR_COUNT>
0

> <JCHEM_FORMAL_CHARGE>
0

> <JCHEM_GHOSE_FILTER>
1

> <JCHEM_IUPAC>
N-phenyl-N-[(3S,4R)-1-(2-phenylethyl)-3-(prop-2-en-1-yl)piperidin-4-yl]propanamide

> <ALOGPS_LOGP>
4.94

> <JCHEM_LOGP>
4.879971451333333

> <ALOGPS_LOGS>
-5.32

> <JCHEM_MDDR_LIKE_RULE>
1

> <JCHEM_NUMBER_OF_RINGS>
3

> <JCHEM_PHYSIOLOGICAL_CHARGE>
1

> <JCHEM_PKA_STRONGEST_BASIC>
9.378924478467686

> <JCHEM_POLAR_SURFACE_AREA>
23.550000000000004

> <JCHEM_REFRACTIVITY>
117.14500000000004

> <JCHEM_ROTATABLE_BOND_COUNT>
8

> <JCHEM_RULE_OF_FIVE>
1

> <ALOGPS_SOLUBILITY>
1.79e-03 g/l

> <JCHEM_TRADITIONAL_IUPAC>
3-allylfentanyl

> <JCHEM_VEBER_RULE>
1

> <DRUGBANK_ID>
DB09169

> <DRUG_GROUPS>
illicit

> <GENERIC_NAME>
3-Allylfentanyl

$$$$
