REMARK  Name = 33014
REMARK  5 active torsions:
REMARK  status: ('A' for Active; 'I' for Inactive)
REMARK    1  A    between atoms: C_2  and  C_12
REMARK    2  A    between atoms: C_2  and  C_18
REMARK    3  A    between atoms: C_18  and  C_19
REMARK    4  A    between atoms: C_19  and  C_20
REMARK    5  A    between atoms: C_20  and  N_21
REMARK                            x       y       z     vdW  Elec       q    Type
REMARK                         _______ _______ _______ _____ _____    ______ ____
ROOT
ATOM      1  S   UNL     1      -0.088   0.158  -2.014  0.00  0.00    -0.131 S 
ATOM      2  C   UNL     1      -0.336  -0.451  -0.271  0.00  0.00    +0.076 C 
ATOM      3  C   UNL     1       0.444   1.860  -1.542  0.00  0.00    +0.058 C 
ATOM      4  C   UNL     1      -0.079   0.758   0.616  0.00  0.00    -0.013 C 
ATOM      5  C   UNL     1       0.317   1.938  -0.038  0.00  0.00    -0.016 C 
ATOM      6  C   UNL     1      -0.482   2.857  -2.247  0.00  0.00    +0.015 C 
ATOM      7  C   UNL     1       1.897   2.046  -1.992  0.00  0.00    +0.015 C 
ATOM      8  C   UNL     1      -0.207   0.738   2.009  0.00  0.00    -0.003 C 
ATOM      9  C   UNL     1       0.578   3.091   0.709  0.00  0.00    -0.004 C 
ATOM     10  C   UNL     1       0.052   1.893   2.745  0.00  0.00    -0.000 C 
ATOM     11  C   UNL     1       0.443   3.066   2.098  0.00  0.00    -0.000 C 
ENDROOT
BRANCH   2  12
ATOM     12  C   UNL     1      -1.739  -0.954  -0.151  0.00  0.00    -0.010 C 
ATOM     13  C   UNL     1      -2.805  -0.117  -0.475  0.00  0.00    -0.003 C 
ATOM     14  C   UNL     1      -1.974  -2.256   0.282  0.00  0.00    -0.003 C 
ATOM     15  C   UNL     1      -4.114  -0.586  -0.363  0.00  0.00    -0.000 C 
ATOM     16  C   UNL     1      -3.283  -2.725   0.393  0.00  0.00    -0.000 C 
ATOM     17  C   UNL     1      -4.353  -1.890   0.070  0.00  0.00    -0.000 C 
ENDBRANCH   2  12
BRANCH   2  18
ATOM     18  C   UNL     1       0.663  -1.577  -0.004  0.00  0.00    +0.016 C 
BRANCH  18  19
ATOM     19  C   UNL     1       2.100  -1.090  -0.159  0.00  0.00    -0.022 C 
BRANCH  19  20
ATOM     20  C   UNL     1       3.092  -2.212   0.142  0.00  0.00    -0.082 C 
BRANCH  20  21
ATOM     21  N   UNL     1       4.460  -1.739  -0.030  0.00  0.00    +0.382 N 
ATOM     22  C   UNL     1       5.415  -2.808   0.223  0.00  0.00    -0.106 C 
ATOM     23  H   UNL     1       4.634  -0.975   0.623  0.00  0.00    -0.085 HD
ATOM     24  H   UNL     1       4.576  -1.418  -0.991  0.00  0.00    -0.085 HD
ENDBRANCH  20  21
ENDBRANCH  19  20
ENDBRANCH  18  19
ENDBRANCH   2  18
TORSDOF 5
