37264
  -OEChem-10051722053D

 60 62  0     0  0  0  0  0  0999 V2000
    5.5588    0.2825    0.0406 O   0  0  0  0  0  0  0  0  0  0  0  0
    4.9346    2.3942   -0.5737 O   0  0  0  0  0  0  0  0  0  0  0  0
    7.8683   -0.9815    1.1036 O   0  0  0  0  0  0  0  0  0  0  0  0
   -3.6325    2.3284    0.1011 O   0  0  0  0  0  0  0  0  0  0  0  0
   -6.2283    1.4679   -0.1045 O   0  0  0  0  0  0  0  0  0  0  0  0
   -6.7927   -1.2407   -0.1865 O   0  0  0  0  0  0  0  0  0  0  0  0
    0.7522    0.0421    0.3908 N   0  0  0  0  0  0  0  0  0  0  0  0
    3.4076    0.9834    0.4616 N   0  0  0  0  0  0  0  0  0  0  0  0
   -1.5651    0.5152    0.2262 N   0  0  0  0  0  0  0  0  0  0  0  0
   -0.7747   -1.7612    0.2489 N   0  0  0  0  0  0  0  0  0  0  0  0
   -2.2863   -3.5584    0.1088 N   0  0  0  0  0  0  0  0  0  0  0  0
    1.8550   -0.9270    0.4568 C   0  0  0  0  0  0  0  0  0  0  0  0
    1.0736    1.3429   -0.2186 C   0  0  0  0  0  0  0  0  0  0  0  0
    3.0854   -0.2913    1.1029 C   0  0  0  0  0  0  0  0  0  0  0  0
    2.3113    1.9463    0.4412 C   0  0  0  0  0  0  0  0  0  0  0  0
   -0.5659   -0.4162    0.2856 C   0  0  0  0  0  0  0  0  0  0  0  0
    4.6583    1.3091   -0.0657 C   0  0  0  0  0  0  0  0  0  0  0  0
    7.7659   -0.6943   -0.2935 C   0  0  0  0  0  0  0  0  0  0  0  0
    6.8690    0.5360   -0.4796 C   0  0  0  0  0  0  0  0  0  0  0  0
   -2.8340    0.0818    0.1257 C   0  0  0  0  0  0  0  0  0  0  0  0
   -3.1393   -1.2883    0.0819 C   0  0  0  0  0  0  0  0  0  0  0  0
   -2.0565   -2.1608    0.1482 C   0  0  0  0  0  0  0  0  0  0  0  0
    7.1817   -1.9351   -0.9698 C   0  0  0  0  0  0  0  0  0  0  0  0
    9.1721   -0.4118   -0.8252 C   0  0  0  0  0  0  0  0  0  0  0  0
   -3.8916    0.9857    0.0614 C   0  0  0  0  0  0  0  0  0  0  0  0
   -4.4697   -1.7299   -0.0235 C   0  0  0  0  0  0  0  0  0  0  0  0
   -5.2175    0.5545   -0.0434 C   0  0  0  0  0  0  0  0  0  0  0  0
   -5.5071   -0.8048   -0.0861 C   0  0  0  0  0  0  0  0  0  0  0  0
   -3.4172    2.9782   -1.1472 C   0  0  0  0  0  0  0  0  0  0  0  0
   -6.8018    1.8814    1.1335 C   0  0  0  0  0  0  0  0  0  0  0  0
   -7.3136   -1.4285   -1.5014 C   0  0  0  0  0  0  0  0  0  0  0  0
    1.5822   -1.8046    1.0546 H   0  0  0  0  0  0  0  0  0  0  0  0
    2.0949   -1.2697   -0.5574 H   0  0  0  0  0  0  0  0  0  0  0  0
    1.2497    1.1994   -1.2921 H   0  0  0  0  0  0  0  0  0  0  0  0
    0.2570    2.0656   -0.1100 H   0  0  0  0  0  0  0  0  0  0  0  0
    3.9268   -0.9884    1.0616 H   0  0  0  0  0  0  0  0  0  0  0  0
    2.8900   -0.0755    2.1604 H   0  0  0  0  0  0  0  0  0  0  0  0
    2.0970    2.2136    1.4830 H   0  0  0  0  0  0  0  0  0  0  0  0
    2.6056    2.8618   -0.0816 H   0  0  0  0  0  0  0  0  0  0  0  0
    7.2924    1.3864    0.0693 H   0  0  0  0  0  0  0  0  0  0  0  0
    6.7915    0.7933   -1.5428 H   0  0  0  0  0  0  0  0  0  0  0  0
    7.8291   -2.8053   -0.8111 H   0  0  0  0  0  0  0  0  0  0  0  0
    6.2063   -2.2000   -0.5465 H   0  0  0  0  0  0  0  0  0  0  0  0
    7.0622   -1.7853   -2.0478 H   0  0  0  0  0  0  0  0  0  0  0  0
    9.8354   -1.2661   -0.6475 H   0  0  0  0  0  0  0  0  0  0  0  0
    9.1623   -0.1964   -1.8985 H   0  0  0  0  0  0  0  0  0  0  0  0
    9.6212    0.4408   -0.3030 H   0  0  0  0  0  0  0  0  0  0  0  0
   -4.7246   -2.7854   -0.0662 H   0  0  0  0  0  0  0  0  0  0  0  0
    6.9678   -1.1123    1.4471 H   0  0  0  0  0  0  0  0  0  0  0  0
   -1.4568   -4.1404    0.1325 H   0  0  0  0  0  0  0  0  0  0  0  0
   -3.1066   -3.9259    0.5740 H   0  0  0  0  0  0  0  0  0  0  0  0
   -2.5452    2.5574   -1.6577 H   0  0  0  0  0  0  0  0  0  0  0  0
   -3.2289    4.0379   -0.9538 H   0  0  0  0  0  0  0  0  0  0  0  0
   -4.3021    2.8928   -1.7858 H   0  0  0  0  0  0  0  0  0  0  0  0
   -6.0476    2.3567    1.7686 H   0  0  0  0  0  0  0  0  0  0  0  0
   -7.5879    2.6107    0.9198 H   0  0  0  0  0  0  0  0  0  0  0  0
   -7.2484    1.0290    1.6550 H   0  0  0  0  0  0  0  0  0  0  0  0
   -6.7375   -2.1901   -2.0364 H   0  0  0  0  0  0  0  0  0  0  0  0
   -8.3488   -1.7696   -1.4141 H   0  0  0  0  0  0  0  0  0  0  0  0
   -7.3011   -0.4867   -2.0590 H   0  0  0  0  0  0  0  0  0  0  0  0
  1 17  1  0  0  0  0
  1 19  1  0  0  0  0
  2 17  2  0  0  0  0
  3 18  1  0  0  0  0
  3 49  1  0  0  0  0
  4 25  1  0  0  0  0
  4 29  1  0  0  0  0
  5 27  1  0  0  0  0
  5 30  1  0  0  0  0
  6 28  1  0  0  0  0
  6 31  1  0  0  0  0
  7 12  1  0  0  0  0
  7 13  1  0  0  0  0
  7 16  1  0  0  0  0
  8 14  1  0  0  0  0
  8 15  1  0  0  0  0
  8 17  1  0  0  0  0
  9 16  2  0  0  0  0
  9 20  1  0  0  0  0
 10 16  1  0  0  0  0
 10 22  2  0  0  0  0
 11 22  1  0  0  0  0
 11 50  1  0  0  0  0
 11 51  1  0  0  0  0
 12 14  1  0  0  0  0
 12 32  1  0  0  0  0
 12 33  1  0  0  0  0
 13 15  1  0  0  0  0
 13 34  1  0  0  0  0
 13 35  1  0  0  0  0
 14 36  1  0  0  0  0
 14 37  1  0  0  0  0
 15 38  1  0  0  0  0
 15 39  1  0  0  0  0
 18 19  1  0  0  0  0
 18 23  1  0  0  0  0
 18 24  1  0  0  0  0
 19 40  1  0  0  0  0
 19 41  1  0  0  0  0
 20 21  1  0  0  0  0
 20 25  2  0  0  0  0
 21 22  1  0  0  0  0
 21 26  2  0  0  0  0
 23 42  1  0  0  0  0
 23 43  1  0  0  0  0
 23 44  1  0  0  0  0
 24 45  1  0  0  0  0
 24 46  1  0  0  0  0
 24 47  1  0  0  0  0
 25 27  1  0  0  0  0
 26 28  1  0  0  0  0
 26 48  1  0  0  0  0
 27 28  2  0  0  0  0
 29 52  1  0  0  0  0
 29 53  1  0  0  0  0
 29 54  1  0  0  0  0
 30 55  1  0  0  0  0
 30 56  1  0  0  0  0
 30 57  1  0  0  0  0
 31 58  1  0  0  0  0
 31 59  1  0  0  0  0
 31 60  1  0  0  0  0
M  END
> <DATABASE_ID>
DB09206

> <DATABASE_NAME>
drugbank

> <ORIGINAL_SOURCE>
PUBCHEM

> <ORIGINAL_SOURCE_URL>
https://pubchem.ncbi.nlm.nih.gov/rest/pug/compound/inchikey/YNZXWQJZEDLQEG-UHFFFAOYSA-N/SDF?record_type=3d

> <SMILES>
COC1=CC2=C(N=C(N=C2N)N2CCN(CC2)C(=O)OCC(C)(C)O)C(OC)=C1OC

> <INCHI_IDENTIFIER>
InChI=1S/C20H29N5O6/c1-20(2,27)11-31-19(26)25-8-6-24(7-9-25)18-22-14-12(17(21)23-18)10-13(28-3)15(29-4)16(14)30-5/h10,27H,6-9,11H2,1-5H3,(H2,21,22,23)

> <INCHI_KEY>
YNZXWQJZEDLQEG-UHFFFAOYSA-N

> <FORMULA>
C20H29N5O6

> <MOLECULAR_WEIGHT>
435.481

> <EXACT_MASS>
435.211783674

> <JCHEM_ACCEPTOR_COUNT>
9

> <JCHEM_ATOM_COUNT>
60

> <JCHEM_AVERAGE_POLARIZABILITY>
46.29665537793063

> <JCHEM_BIOAVAILABILITY>
1

> <JCHEM_DONOR_COUNT>
2

> <JCHEM_FORMAL_CHARGE>
0

> <JCHEM_GHOSE_FILTER>
1

> <JCHEM_IUPAC>
2-hydroxy-2-methylpropyl 4-(4-amino-6,7,8-trimethoxyquinazolin-2-yl)piperazine-1-carboxylate

> <ALOGPS_LOGP>
1.35

> <JCHEM_LOGP>
1.2047649316666669

> <ALOGPS_LOGS>
-2.44

> <JCHEM_MDDR_LIKE_RULE>
1

> <JCHEM_NUMBER_OF_RINGS>
3

> <JCHEM_PHYSIOLOGICAL_CHARGE>
0

> <JCHEM_PKA_STRONGEST_ACIDIC>
14.585076154014093

> <JCHEM_PKA_STRONGEST_BASIC>
5.990965560707999

> <JCHEM_POLAR_SURFACE_AREA>
132.50000000000003

> <JCHEM_REFRACTIVITY>
114.87279999999998

> <JCHEM_ROTATABLE_BOND_COUNT>
7

> <JCHEM_RULE_OF_FIVE>
1

> <ALOGPS_SOLUBILITY>
1.56e+00 g/l

> <JCHEM_TRADITIONAL_IUPAC>
2-hydroxy-2-methylpropyl 4-(4-amino-6,7,8-trimethoxyquinazolin-2-yl)piperazine-1-carboxylate

> <JCHEM_VEBER_RULE>
0

> <DRUGBANK_ID>
DB09206

> <DRUG_GROUPS>
experimental

> <GENERIC_NAME>
Trimazosin

> <SALTS>
Trimazosin hydrochloride

$$$$
