REMARK  Name = 280
REMARK  0 active torsions:
REMARK  status: ('A' for Active; 'I' for Inactive)
REMARK                            x       y       z     vdW  Elec       q    Type
REMARK                         _______ _______ _______ _____ _____    ______ ____
ROOT
ATOM      1  O   UNL     1      -1.197   0.000   0.000  0.00  0.00    -0.186 OA
ATOM      2  O   UNL     1       1.197   0.000   0.000  0.00  0.00    -0.186 OA
ATOM      3  C   UNL     1       0.000   0.000   0.000  0.00  0.00    +0.372 C 
ENDROOT
TORSDOF 0
