REMARK  Name = 204109
REMARK  5 active torsions:
REMARK  status: ('A' for Active; 'I' for Inactive)
REMARK    1  A    between atoms: C_1  and  C_20
REMARK    2  A    between atoms: C_9  and  O_11
REMARK    3  A    between atoms: O_11  and  C_12
REMARK    4  A    between atoms: C_12  and  C_14
REMARK    5  A    between atoms: C_20  and  C_25
REMARK                            x       y       z     vdW  Elec       q    Type
REMARK                         _______ _______ _______ _____ _____    ______ ____
ROOT
ATOM      1  C   UNL     1      -2.984  -1.043   0.325  0.00  0.00    -0.021 C 
ATOM      2  C   UNL     1      -0.751  -0.111   0.581  0.00  0.00    -0.000 C 
ATOM      3  C   UNL     1      -2.131  -0.065   0.837  0.00  0.00    -0.004 C 
ATOM      4  C   UNL     1      -0.229  -1.165  -0.206  0.00  0.00    +0.003 C 
ATOM      5  C   UNL     1      -2.470  -2.079  -0.449  0.00  0.00    -0.004 C 
ATOM      6  C   UNL     1      -1.101  -2.142  -0.713  0.00  0.00    -0.000 C 
ATOM      7  C   UNL     1       1.151  -1.212  -0.462  0.00  0.00    +0.037 C 
ATOM      8  C   UNL     1       0.122   0.865   1.088  0.00  0.00    +0.003 C 
ATOM      9  C   UNL     1       2.004  -0.233   0.050  0.00  0.00    +0.139 C 
ATOM     10  C   UNL     1       1.490   0.803   0.824  0.00  0.00    +0.037 C 
ENDROOT
BRANCH   9  11
ATOM     11  O   UNL     1       3.340  -0.292  -0.206  0.00  0.00    -0.471 OA
BRANCH  11  12
ATOM     12  C   UNL     1       4.154   0.739   0.349  0.00  0.00    +0.234 C 
BRANCH  12  14
ATOM     13  F   UNL     1       6.047  -0.755   1.823  0.00  0.00    -0.204 F 
ATOM     14  C   UNL     1       5.580   0.606  -0.066  0.00  0.00    +0.049 C 
ATOM     15  C   UNL     1       6.466  -0.146   0.705  0.00  0.00    +0.140 C 
ATOM     16  C   UNL     1       6.027   1.236  -1.227  0.00  0.00    +0.002 C 
ATOM     17  C   UNL     1       7.800  -0.269   0.314  0.00  0.00    +0.029 C 
ATOM     18  C   UNL     1       7.361   1.114  -1.618  0.00  0.00    -0.000 C 
ATOM     19  C   UNL     1       8.247   0.361  -0.848  0.00  0.00    +0.002 C 
ENDBRANCH  12  14
ENDBRANCH  11  12
ENDBRANCH   9  11
BRANCH   1  20
ATOM     20  C   UNL     1      -4.447  -0.978   0.607  0.00  0.00    +0.047 C 
BRANCH  20  25
ATOM     21  S   UNL     1      -5.073   1.609  -0.127  0.00  0.00    -0.048 S 
ATOM     22  O   UNL     1      -7.143  -1.620  -0.558  0.00  0.00    -0.274 OA
ATOM     23  O   UNL     1      -7.324   2.943   0.127  0.00  0.00    -0.263 OA
ATOM     24  N   UNL     1      -7.438   0.649  -0.227  0.00  0.00    -0.246 N 
ATOM     25  C   UNL     1      -5.207  -0.177  -0.448  0.00  0.00    +0.137 C 
ATOM     26  C   UNL     1      -6.686  -0.491  -0.420  0.00  0.00    +0.239 C 
ATOM     27  C   UNL     1      -6.805   1.852  -0.055  0.00  0.00    +0.279 C 
ATOM     28  H   UNL     1      -8.421   0.599  -0.212  0.00  0.00    +0.158 HD
ENDBRANCH  20  25
ENDBRANCH   1  20
TORSDOF 5
