68865
  -OEChem-10051722073D

 39 39  0     0  0  0  0  0  0999 V2000
   -0.9448   -0.6107    1.0690 O   0  0  0  0  0  0  0  0  0  0  0  0
   -1.4637    0.0346   -1.1175 O   0  0  0  0  0  0  0  0  0  0  0  0
    5.2572   -1.2938   -0.8255 O   0  0  0  0  0  0  0  0  0  0  0  0
   -4.1497    0.0201   -0.3443 N   0  0  0  0  0  0  0  0  0  0  0  0
    4.3358    0.7102    0.0073 N   0  0  0  0  0  0  0  0  0  0  0  0
   -5.5171   -0.3765   -0.0094 C   0  0  0  0  0  0  0  0  0  0  0  0
   -3.9456    1.4403   -0.0615 C   0  0  0  0  0  0  0  0  0  0  0  0
   -3.1859   -0.7925    0.3970 C   0  0  0  0  0  0  0  0  0  0  0  0
   -5.7657   -1.8350   -0.3540 C   0  0  0  0  0  0  0  0  0  0  0  0
   -4.9392    2.3003   -0.8240 C   0  0  0  0  0  0  0  0  0  0  0  0
   -1.7901   -0.3973   -0.0199 C   0  0  0  0  0  0  0  0  0  0  0  0
    0.3851   -0.2776    0.8004 C   0  0  0  0  0  0  0  0  0  0  0  0
    3.0073    0.3781    0.2739 C   0  0  0  0  0  0  0  0  0  0  0  0
    1.2204   -1.2476    0.2925 C   0  0  0  0  0  0  0  0  0  0  0  0
    0.8095    1.0075    1.0554 C   0  0  0  0  0  0  0  0  0  0  0  0
    2.5486   -0.9155    0.0259 C   0  0  0  0  0  0  0  0  0  0  0  0
    2.1378    1.3398    0.7887 C   0  0  0  0  0  0  0  0  0  0  0  0
    5.3471   -0.1128   -0.5059 C   0  0  0  0  0  0  0  0  0  0  0  0
    6.6529    0.6282   -0.6483 C   0  0  0  0  0  0  0  0  0  0  0  0
   -6.2440    0.1855   -0.6042 H   0  0  0  0  0  0  0  0  0  0  0  0
   -5.7484   -0.2005    1.0487 H   0  0  0  0  0  0  0  0  0  0  0  0
   -2.9520    1.7798   -0.3692 H   0  0  0  0  0  0  0  0  0  0  0  0
   -4.0355    1.6539    1.0117 H   0  0  0  0  0  0  0  0  0  0  0  0
   -3.3061   -0.6568    1.4790 H   0  0  0  0  0  0  0  0  0  0  0  0
   -3.2598   -1.8583    0.1605 H   0  0  0  0  0  0  0  0  0  0  0  0
   -5.4261   -2.0766   -1.3671 H   0  0  0  0  0  0  0  0  0  0  0  0
   -5.2885   -2.5197    0.3537 H   0  0  0  0  0  0  0  0  0  0  0  0
   -6.8408   -2.0438   -0.3122 H   0  0  0  0  0  0  0  0  0  0  0  0
   -4.9963    2.0175   -1.8807 H   0  0  0  0  0  0  0  0  0  0  0  0
   -5.9428    2.2707   -0.3889 H   0  0  0  0  0  0  0  0  0  0  0  0
   -4.6187    3.3479   -0.7862 H   0  0  0  0  0  0  0  0  0  0  0  0
    0.8623   -2.2543    0.1009 H   0  0  0  0  0  0  0  0  0  0  0  0
    0.1326    1.7553    1.4566 H   0  0  0  0  0  0  0  0  0  0  0  0
    3.1612   -1.7130   -0.3710 H   0  0  0  0  0  0  0  0  0  0  0  0
    2.4815    2.3518    0.9870 H   0  0  0  0  0  0  0  0  0  0  0  0
    4.5929    1.6730    0.2153 H   0  0  0  0  0  0  0  0  0  0  0  0
    6.5327    1.4563   -1.3524 H   0  0  0  0  0  0  0  0  0  0  0  0
    7.4246   -0.0492   -1.0242 H   0  0  0  0  0  0  0  0  0  0  0  0
    6.9667    1.0177    0.3243 H   0  0  0  0  0  0  0  0  0  0  0  0
  1 11  1  0  0  0  0
  1 12  1  0  0  0  0
  2 11  2  0  0  0  0
  3 18  2  0  0  0  0
  4  6  1  0  0  0  0
  4  7  1  0  0  0  0
  4  8  1  0  0  0  0
  5 13  1  0  0  0  0
  5 18  1  0  0  0  0
  5 36  1  0  0  0  0
  6  9  1  0  0  0  0
  6 20  1  0  0  0  0
  6 21  1  0  0  0  0
  7 10  1  0  0  0  0
  7 22  1  0  0  0  0
  7 23  1  0  0  0  0
  8 11  1  0  0  0  0
  8 24  1  0  0  0  0
  8 25  1  0  0  0  0
  9 26  1  0  0  0  0
  9 27  1  0  0  0  0
  9 28  1  0  0  0  0
 10 29  1  0  0  0  0
 10 30  1  0  0  0  0
 10 31  1  0  0  0  0
 12 14  2  0  0  0  0
 12 15  1  0  0  0  0
 13 16  2  0  0  0  0
 13 17  1  0  0  0  0
 14 16  1  0  0  0  0
 14 32  1  0  0  0  0
 15 17  2  0  0  0  0
 15 33  1  0  0  0  0
 16 34  1  0  0  0  0
 17 35  1  0  0  0  0
 18 19  1  0  0  0  0
 19 37  1  0  0  0  0
 19 38  1  0  0  0  0
 19 39  1  0  0  0  0
M  END
> <DATABASE_ID>
DB09288

> <DATABASE_NAME>
drugbank

> <ORIGINAL_SOURCE>
PUBCHEM

> <ORIGINAL_SOURCE_URL>
https://pubchem.ncbi.nlm.nih.gov/rest/pug/compound/inchikey/QTGAJCQTLIRCFL-UHFFFAOYSA-N/SDF?record_type=3d

> <SMILES>
CCN(CC)CC(=O)OC1=CC=C(NC(C)=O)C=C1

> <INCHI_IDENTIFIER>
InChI=1S/C14H20N2O3/c1-4-16(5-2)10-14(18)19-13-8-6-12(7-9-13)15-11(3)17/h6-9H,4-5,10H2,1-3H3,(H,15,17)

> <INCHI_KEY>
QTGAJCQTLIRCFL-UHFFFAOYSA-N

> <FORMULA>
C14H20N2O3

> <MOLECULAR_WEIGHT>
264.325

> <EXACT_MASS>
264.147392512

> <JCHEM_ACCEPTOR_COUNT>
3

> <JCHEM_ATOM_COUNT>
39

> <JCHEM_AVERAGE_POLARIZABILITY>
29.173396974390442

> <JCHEM_BIOAVAILABILITY>
1

> <JCHEM_DONOR_COUNT>
1

> <JCHEM_FORMAL_CHARGE>
0

> <JCHEM_GHOSE_FILTER>
1

> <JCHEM_IUPAC>
4-acetamidophenyl 2-(diethylamino)acetate

> <ALOGPS_LOGP>
1.96

> <JCHEM_LOGP>
1.4233315553333334

> <ALOGPS_LOGS>
-2.71

> <JCHEM_MDDR_LIKE_RULE>
0

> <JCHEM_NUMBER_OF_RINGS>
1

> <JCHEM_PHYSIOLOGICAL_CHARGE>
1

> <JCHEM_PKA_STRONGEST_ACIDIC>
14.668609162767098

> <JCHEM_PKA_STRONGEST_BASIC>
6.834623347881453

> <JCHEM_POLAR_SURFACE_AREA>
58.64000000000001

> <JCHEM_REFRACTIVITY>
74.9796

> <JCHEM_ROTATABLE_BOND_COUNT>
7

> <JCHEM_RULE_OF_FIVE>
1

> <ALOGPS_SOLUBILITY>
5.13e-01 g/l

> <JCHEM_TRADITIONAL_IUPAC>
propacetamol

> <JCHEM_VEBER_RULE>
0

> <DRUGBANK_ID>
DB09288

> <DRUG_GROUPS>
experimental

> <GENERIC_NAME>
Propacetamol

> <INTERNATIONAL_BRANDS>
Pro-dafalgan

> <SALTS>
Propacetamol hydrochloride

$$$$
