REMARK  Name = 32170
REMARK  7 active torsions:
REMARK  status: ('A' for Active; 'I' for Inactive)
REMARK    1  A    between atoms: N_2  and  C_6
REMARK    2  A    between atoms: C_3  and  C_15
REMARK    3  A    between atoms: C_8  and  C_12
REMARK    4  A    between atoms: C_12  and  O_13
REMARK    5  A    between atoms: C_15  and  N_17
REMARK    6  A    between atoms: N_17  and  C_20
REMARK    7  A    between atoms: C_20  and  C_21
REMARK                            x       y       z     vdW  Elec       q    Type
REMARK                         _______ _______ _______ _____ _____    ______ ____
ROOT
ATOM      1  O   UNL     1      -1.321   0.629  -1.867  0.00  0.00    -0.277 OA
ATOM      2  N   UNL     1       0.088  -0.254  -0.208  0.00  0.00    -0.285 N 
ATOM      3  C   UNL     1      -1.023  -0.235  -1.047  0.00  0.00    +0.206 C 
ATOM      4  H   UNL     1       0.165  -1.024   0.400  0.00  0.00    +0.155 HD
ENDROOT
BRANCH   2   6
ATOM      5  S   UNL     1       3.401   1.766   0.217  0.00  0.00    -0.079 S 
ATOM      6  C   UNL     1       1.108   0.703  -0.135  0.00  0.00    +0.059 C 
ATOM      7  C   UNL     1       0.930   2.079  -0.411  0.00  0.00    -0.001 C 
ATOM      8  C   UNL     1       2.391   0.384   0.218  0.00  0.00    +0.118 C 
ATOM      9  C   UNL     1       2.106   2.780  -0.257  0.00  0.00    +0.033 C 
ATOM     10  C   UNL     1      -0.350   2.709  -0.815  0.00  0.00    +0.033 C 
BRANCH   8  12
ATOM     11  O   UNL     1       4.160  -1.072   0.877  0.00  0.00    -0.244 OA
ATOM     12  C   UNL     1       2.962  -0.879   0.566  0.00  0.00    +0.349 C 
BRANCH  12  13
ATOM     13  O   UNL     1       2.042  -1.904   0.528  0.00  0.00    -0.441 OA
ATOM     14  C   UNL     1       2.495  -3.221   0.859  0.00  0.00    +0.256 C 
ENDBRANCH  12  13
ENDBRANCH   8  12
ENDBRANCH   2   6
BRANCH   3  15
ATOM     15  C   UNL     1      -1.904  -1.463  -0.824  0.00  0.00    +0.017 C 
ATOM     16  C   UNL     1      -2.078  -2.273  -2.103  0.00  0.00    -0.014 C 
BRANCH  15  17
ATOM     17  N   UNL     1      -3.203  -0.970  -0.372  0.00  0.00    +0.391 N 
ATOM     18  H   UNL     1      -3.822  -1.764  -0.207  0.00  0.00    -0.084 HD
ATOM     19  H   UNL     1      -3.590  -0.361  -1.093  0.00  0.00    -0.084 HD
BRANCH  17  20
ATOM     20  C   UNL     1      -3.066  -0.208   0.860  0.00  0.00    -0.081 C 
BRANCH  20  21
ATOM     21  C   UNL     1      -4.429   0.305   1.319  0.00  0.00    -0.023 C 
ATOM     22  C   UNL     1      -4.311   1.124   2.595  0.00  0.00    -0.002 C 
ENDBRANCH  20  21
ENDBRANCH  17  20
ENDBRANCH  15  17
ENDBRANCH   3  15
TORSDOF 7
