REMARK  Name = 2793
REMARK  6 active torsions:
REMARK  status: ('A' for Active; 'I' for Inactive)
REMARK    1  A    between atoms: N_1  and  C_20
REMARK    2  A    between atoms: C_2  and  N_8
REMARK    3  A    between atoms: C_2  and  C_17
REMARK    4  A    between atoms: C_20  and  C_21
REMARK    5  A    between atoms: C_21  and  C_22
REMARK    6  A    between atoms: C_22  and  N_24
REMARK                            x       y       z     vdW  Elec       q    Type
REMARK                         _______ _______ _______ _____ _____    ______ ____
ROOT
ATOM      1  N   UNL     1      -0.443   1.422  -0.093  0.00  0.00    +0.387 N 
ATOM      2  C   UNL     1      -3.362   1.085  -0.057  0.00  0.00    +0.024 C 
ATOM      3  C   UNL     1      -2.557   1.162  -1.359  0.00  0.00    -0.033 C 
ATOM      4  C   UNL     1      -2.464   0.635   1.103  0.00  0.00    -0.033 C 
ATOM      5  C   UNL     1      -1.261   1.963  -1.187  0.00  0.00    -0.079 C 
ATOM      6  C   UNL     1      -1.172   1.457   1.181  0.00  0.00    -0.079 C 
ATOM      7  H   UNL     1      -0.233   0.448  -0.310  0.00  0.00    -0.080 HD
ENDROOT
BRANCH   2   8
ATOM      8  N   UNL     1      -4.474   0.148  -0.215  0.00  0.00    +0.395 N 
ATOM      9  C   UNL     1      -5.268   0.078   1.020  0.00  0.00    -0.077 C 
ATOM     10  C   UNL     1      -3.977  -1.180  -0.603  0.00  0.00    -0.077 C 
ATOM     11  C   UNL     1      -6.465  -0.860   0.855  0.00  0.00    -0.023 C 
ATOM     12  C   UNL     1      -5.131  -2.159  -0.821  0.00  0.00    -0.023 C 
ATOM     13  C   UNL     1      -6.022  -2.251   0.413  0.00  0.00    -0.004 C 
ATOM     14  H   UNL     1      -5.083   0.486  -0.961  0.00  0.00    -0.079 HD
ENDBRANCH   2   8
BRANCH   2  17
ATOM     15  O   UNL     1      -3.804   3.003   1.313  0.00  0.00    -0.277 OA
ATOM     16  N   UNL     1      -4.822   2.881  -0.747  0.00  0.00    -0.330 N 
ATOM     17  C   UNL     1      -4.001   2.415   0.252  0.00  0.00    +0.201 C 
ATOM     18  H   UNL     1      -5.286   3.743  -0.641  0.00  0.00    +0.145 HD
ATOM     19  H   UNL     1      -4.947   2.353  -1.568  0.00  0.00    +0.145 HD
ENDBRANCH   2  17
BRANCH   1  20
ATOM     20  C   UNL     1       0.816   2.159   0.017  0.00  0.00    -0.076 C 
BRANCH  20  21
ATOM     21  C   UNL     1       1.636   2.090  -1.274  0.00  0.00    -0.001 C 
BRANCH  21  22
ATOM     22  C   UNL     1       1.988   0.673  -1.728  0.00  0.00    +0.093 C 
BRANCH  22  24
ATOM     23 CL   UNL     1       0.342  -4.399  -2.053  0.00  0.00    -0.082 Cl
ATOM     24  N   UNL     1       2.735  -0.039  -0.679  0.00  0.00    -0.287 N 
ATOM     25  C   UNL     1       2.132  -1.258  -0.274  0.00  0.00    +0.048 C 
ATOM     26  C   UNL     1       4.006   0.478  -0.308  0.00  0.00    +0.048 C 
ATOM     27  C   UNL     1       2.038  -1.620   1.080  0.00  0.00    -0.008 C 
ATOM     28  C   UNL     1       4.661   0.184   0.913  0.00  0.00    -0.008 C 
ATOM     29  C   UNL     1       2.584  -0.714   2.146  0.00  0.00    +0.032 C 
ATOM     30  C   UNL     1       4.099  -0.652   2.044  0.00  0.00    +0.032 C 
ATOM     31  C   UNL     1       1.593  -2.147  -1.229  0.00  0.00    +0.026 C 
ATOM     32  C   UNL     1       4.713   1.309  -1.219  0.00  0.00    +0.015 C 
ATOM     33  C   UNL     1       1.423  -2.829   1.451  0.00  0.00    -0.002 C 
ATOM     34  C   UNL     1       5.964   0.688   1.151  0.00  0.00    -0.003 C 
ATOM     35  C   UNL     1       0.986  -3.347  -0.854  0.00  0.00    +0.059 C 
ATOM     36  C   UNL     1       5.989   1.813  -0.957  0.00  0.00    +0.001 C 
ATOM     37  C   UNL     1       0.899  -3.688   0.489  0.00  0.00    +0.011 C 
ATOM     38  C   UNL     1       6.620   1.497   0.231  0.00  0.00    -0.000 C 
ENDBRANCH  22  24
ENDBRANCH  21  22
ENDBRANCH  20  21
ENDBRANCH   1  20
TORSDOF 6
