20055414
  -OEChem-10051722053D

 55 59  0     1  0  0  0  0  0999 V2000
    7.7689   -1.9785    0.1507 F   0  0  0  0  0  0  0  0  0  0  0  0
    6.0274   -2.5822    1.2938 F   0  0  0  0  0  0  0  0  0  0  0  0
    6.0281   -2.7874   -0.8710 F   0  0  0  0  0  0  0  0  0  0  0  0
   -4.5910    0.0807    0.6529 N   0  0  0  0  0  0  0  0  0  0  0  0
   -6.1357    1.5005    0.0768 N   0  0  0  0  0  0  0  0  0  0  0  0
   -4.9222    2.1712    0.2563 N   0  0  0  0  0  0  0  0  0  0  0  0
   -0.2725    1.6004   -0.0432 N   0  0  0  0  0  0  0  0  0  0  0  0
    2.5290    1.0622   -0.1886 N   0  0  0  0  0  0  0  0  0  0  0  0
   -5.4964   -2.0811    0.6353 C   0  0  1  0  0  0  0  0  0  0  0  0
   -6.6331   -1.0381    0.3340 C   0  0  2  0  0  0  0  0  0  0  0  0
   -5.3829   -2.9371   -0.6343 C   0  0  0  0  0  0  0  0  0  0  0  0
   -7.1873   -1.4212   -1.0340 C   0  0  0  0  0  0  0  0  0  0  0  0
   -4.2099   -1.2758    0.9577 C   0  0  0  0  0  0  0  0  0  0  0  0
   -6.0269   -2.1123   -1.7390 C   0  0  0  0  0  0  0  0  0  0  0  0
   -5.8938    0.2390    0.3233 C   0  0  0  0  0  0  0  0  0  0  0  0
   -4.0060    1.2832    0.6041 C   0  0  0  0  0  0  0  0  0  0  0  0
   -2.5845    1.5144    0.9007 C   0  0  0  0  0  0  0  0  0  0  0  0
   -1.6880    1.4008   -0.3517 C   0  0  0  0  0  0  0  0  0  0  0  0
    0.4817    1.9117   -1.2634 C   0  0  0  0  0  0  0  0  0  0  0  0
    0.2880    0.4050    0.5990 C   0  0  0  0  0  0  0  0  0  0  0  0
    1.9553    2.1784   -0.9465 C   0  0  0  0  0  0  0  0  0  0  0  0
    1.7545    0.6222    0.9787 C   0  0  0  0  0  0  0  0  0  0  0  0
    3.9162    0.8802   -0.1639 C   0  0  0  0  0  0  0  0  0  0  0  0
    4.4496   -0.4015   -0.0287 C   0  0  0  0  0  0  0  0  0  0  0  0
    4.7657    1.9811   -0.2740 C   0  0  0  0  0  0  0  0  0  0  0  0
    5.8324   -0.5823   -0.0035 C   0  0  0  0  0  0  0  0  0  0  0  0
    6.1486    1.8003   -0.2490 C   0  0  0  0  0  0  0  0  0  0  0  0
    6.6818    0.5186   -0.1138 C   0  0  0  0  0  0  0  0  0  0  0  0
    6.4031   -1.9523    0.1415 C   0  0  0  0  0  0  0  0  0  0  0  0
   -5.7529   -2.7260    1.4840 H   0  0  0  0  0  0  0  0  0  0  0  0
   -7.4046   -1.0339    1.1101 H   0  0  0  0  0  0  0  0  0  0  0  0
   -4.3560   -3.2260   -0.8766 H   0  0  0  0  0  0  0  0  0  0  0  0
   -5.9588   -3.8608   -0.4958 H   0  0  0  0  0  0  0  0  0  0  0  0
   -8.0100   -2.1360   -0.9082 H   0  0  0  0  0  0  0  0  0  0  0  0
   -7.5654   -0.5690   -1.6077 H   0  0  0  0  0  0  0  0  0  0  0  0
   -3.3448   -1.5528    0.3504 H   0  0  0  0  0  0  0  0  0  0  0  0
   -3.9654   -1.3189    2.0232 H   0  0  0  0  0  0  0  0  0  0  0  0
   -5.3166   -1.3737   -2.1283 H   0  0  0  0  0  0  0  0  0  0  0  0
   -6.3633   -2.7333   -2.5744 H   0  0  0  0  0  0  0  0  0  0  0  0
   -2.4703    2.5177    1.3310 H   0  0  0  0  0  0  0  0  0  0  0  0
   -2.2656    0.8131    1.6792 H   0  0  0  0  0  0  0  0  0  0  0  0
   -1.8541    0.4414   -0.8608 H   0  0  0  0  0  0  0  0  0  0  0  0
   -2.0259    2.1766   -1.0531 H   0  0  0  0  0  0  0  0  0  0  0  0
    0.0717    2.8086   -1.7436 H   0  0  0  0  0  0  0  0  0  0  0  0
    0.4035    1.0887   -1.9868 H   0  0  0  0  0  0  0  0  0  0  0  0
   -0.2503    0.1579    1.5195 H   0  0  0  0  0  0  0  0  0  0  0  0
    0.2099   -0.4657   -0.0662 H   0  0  0  0  0  0  0  0  0  0  0  0
    2.4867    2.3167   -1.8963 H   0  0  0  0  0  0  0  0  0  0  0  0
    2.0441    3.1072   -0.3684 H   0  0  0  0  0  0  0  0  0  0  0  0
    1.8317    1.3806    1.7687 H   0  0  0  0  0  0  0  0  0  0  0  0
    2.1412   -0.3157    1.3935 H   0  0  0  0  0  0  0  0  0  0  0  0
    3.7964   -1.2681    0.0436 H   0  0  0  0  0  0  0  0  0  0  0  0
    4.3859    2.9946   -0.3661 H   0  0  0  0  0  0  0  0  0  0  0  0
    6.8102    2.6577   -0.3313 H   0  0  0  0  0  0  0  0  0  0  0  0
    7.7615    0.3982   -0.0954 H   0  0  0  0  0  0  0  0  0  0  0  0
  1 29  1  0  0  0  0
  2 29  1  0  0  0  0
  3 29  1  0  0  0  0
  4 13  1  0  0  0  0
  4 15  1  0  0  0  0
  4 16  1  0  0  0  0
  5  6  1  0  0  0  0
  5 15  2  0  0  0  0
  6 16  2  0  0  0  0
  7 18  1  0  0  0  0
  7 19  1  0  0  0  0
  7 20  1  0  0  0  0
  8 21  1  0  0  0  0
  8 22  1  0  0  0  0
  8 23  1  0  0  0  0
  9 10  1  0  0  0  0
  9 11  1  0  0  0  0
  9 13  1  0  0  0  0
  9 30  1  0  0  0  0
 10 12  1  0  0  0  0
 10 15  1  0  0  0  0
 10 31  1  0  0  0  0
 11 14  1  0  0  0  0
 11 32  1  0  0  0  0
 11 33  1  0  0  0  0
 12 14  1  0  0  0  0
 12 34  1  0  0  0  0
 12 35  1  0  0  0  0
 13 36  1  0  0  0  0
 13 37  1  0  0  0  0
 14 38  1  0  0  0  0
 14 39  1  0  0  0  0
 16 17  1  0  0  0  0
 17 18  1  0  0  0  0
 17 40  1  0  0  0  0
 17 41  1  0  0  0  0
 18 42  1  0  0  0  0
 18 43  1  0  0  0  0
 19 21  1  0  0  0  0
 19 44  1  0  0  0  0
 19 45  1  0  0  0  0
 20 22  1  0  0  0  0
 20 46  1  0  0  0  0
 20 47  1  0  0  0  0
 21 48  1  0  0  0  0
 21 49  1  0  0  0  0
 22 50  1  0  0  0  0
 22 51  1  0  0  0  0
 23 24  1  0  0  0  0
 23 25  2  0  0  0  0
 24 26  2  0  0  0  0
 24 52  1  0  0  0  0
 25 27  1  0  0  0  0
 25 53  1  0  0  0  0
 26 28  1  0  0  0  0
 26 29  1  0  0  0  0
 27 28  2  0  0  0  0
 27 54  1  0  0  0  0
 28 55  1  0  0  0  0
M  END
> <DATABASE_ID>
DB09195

> <DATABASE_NAME>
drugbank

> <ORIGINAL_SOURCE>
PUBCHEM

> <ORIGINAL_SOURCE_URL>
https://pubchem.ncbi.nlm.nih.gov/rest/pug/compound/inchikey/BNRMWKUVWLKDQJ-YJBOKZPZSA-N/SDF?record_type=3d

> <SMILES>
[H][C@@]12CCC[C@]1([H])C1=NN=C(CCN3CCN(CC3)C3=CC=CC(=C3)C(F)(F)F)N1C2

> <INCHI_IDENTIFIER>
InChI=1S/C21H26F3N5/c22-21(23,24)16-4-2-5-17(13-16)28-11-9-27(10-12-28)8-7-19-25-26-20-18-6-1-3-15(18)14-29(19)20/h2,4-5,13,15,18H,1,3,6-12,14H2/t15-,18-/m0/s1

> <INCHI_KEY>
BNRMWKUVWLKDQJ-YJBOKZPZSA-N

> <FORMULA>
C21H26F3N5

> <MOLECULAR_WEIGHT>
405.469

> <EXACT_MASS>
405.214030346

> <JCHEM_ACCEPTOR_COUNT>
4

> <JCHEM_ATOM_COUNT>
55

> <JCHEM_AVERAGE_POLARIZABILITY>
42.083319005107896

> <JCHEM_BIOAVAILABILITY>
1

> <JCHEM_DONOR_COUNT>
0

> <JCHEM_FORMAL_CHARGE>
0

> <JCHEM_GHOSE_FILTER>
1

> <JCHEM_IUPAC>
(1S,8R)-5-(2-{4-[3-(trifluoromethyl)phenyl]piperazin-1-yl}ethyl)-3,4,6-triazatricyclo[6.3.0.0²,⁶]undeca-2,4-diene

> <ALOGPS_LOGP>
3.64

> <JCHEM_LOGP>
3.224533985

> <ALOGPS_LOGS>
-3.63

> <JCHEM_MDDR_LIKE_RULE>
0

> <JCHEM_NUMBER_OF_RINGS>
5

> <JCHEM_PHYSIOLOGICAL_CHARGE>
1

> <JCHEM_PKA_STRONGEST_BASIC>
7.570691540003641

> <JCHEM_POLAR_SURFACE_AREA>
37.190000000000005

> <JCHEM_REFRACTIVITY>
108.39800000000002

> <JCHEM_ROTATABLE_BOND_COUNT>
5

> <JCHEM_RULE_OF_FIVE>
1

> <ALOGPS_SOLUBILITY>
9.50e-02 g/l

> <JCHEM_TRADITIONAL_IUPAC>
lorpiprazole

> <JCHEM_VEBER_RULE>
1

> <DRUGBANK_ID>
DB09195

> <DRUG_GROUPS>
approved

> <GENERIC_NAME>
Lorpiprazole

$$$$
