REMARK  Name = 9015
REMARK  2 active torsions:
REMARK  status: ('A' for Active; 'I' for Inactive)
REMARK    1  A    between atoms: C_1  and  O_7
REMARK    2  A    between atoms: C_4  and  O_9
REMARK                            x       y       z     vdW  Elec       q    Type
REMARK                         _______ _______ _______ _____ _____    ______ ____
ROOT
ATOM      1  C   UNL     1       0.983  -0.296   0.000  0.00  0.00    +0.139 C 
ATOM      2  C   UNL     1       0.480   1.005   0.000  0.00  0.00    +0.040 C 
ATOM      3  C   UNL     1       0.107  -1.382   0.000  0.00  0.00    +0.040 C 
ATOM      4  C   UNL     1      -1.774   0.134   0.000  0.00  0.00    +0.134 C 
ATOM      5  C   UNL     1      -0.899   1.220   0.000  0.00  0.00    +0.040 C 
ATOM      6  C   UNL     1      -1.271  -1.167   0.000  0.00  0.00    +0.040 C 
ENDROOT
BRANCH   1   7
ATOM      7  O   UNL     1       2.327  -0.506   0.000  0.00  0.00    -0.471 OA
ATOM      8  C   UNL     1       3.165   0.649   0.000  0.00  0.00    +0.252 C 
ENDBRANCH   1   7
BRANCH   4   9
ATOM      9  O   UNL     1      -3.119   0.343   0.001  0.00  0.00    -0.506 OA
ATOM     10  H   UNL     1      -3.457   1.217   0.001  0.00  0.00    +0.292 HD
ENDBRANCH   4   9
TORSDOF 2
