REMARK  Name = 2309
REMARK  8 active torsions:
REMARK  status: ('A' for Active; 'I' for Inactive)
REMARK    1  A    between atoms: O_1  and  C_3
REMARK    2  A    between atoms: O_1  and  C_14
REMARK    3  A    between atoms: C_9  and  C_12
REMARK    4  A    between atoms: C_14  and  C_15
REMARK    5  A    between atoms: C_15  and  O_16
REMARK    6  A    between atoms: C_15  and  C_18
REMARK    7  A    between atoms: C_18  and  N_19
REMARK    8  A    between atoms: N_19  and  C_22
REMARK                            x       y       z     vdW  Elec       q    Type
REMARK                         _______ _______ _______ _____ _____    ______ ____
ROOT
ATOM      1  O   UNL     1       0.578  -1.945  -0.784  0.00  0.00    -0.470 OA
ENDROOT
BRANCH   1   3
ATOM      2  O   UNL     1      -0.986   0.516  -0.616  0.00  0.00    -0.448 OA
ATOM      3  C   UNL     1      -0.656  -1.879  -0.208  0.00  0.00    +0.173 C 
ATOM      4  C   UNL     1      -1.387  -0.695  -0.138  0.00  0.00    +0.179 C 
ATOM      5  C   UNL     1      -2.648  -0.590   0.442  0.00  0.00    +0.041 C 
ATOM      6  C   UNL     1      -1.255  -3.014   0.348  0.00  0.00    +0.040 C 
ATOM      7  C   UNL     1      -3.025   0.771   0.301  0.00  0.00    +0.044 C 
ATOM      8  C   UNL     1      -3.231  -1.744   0.995  0.00  0.00    +0.003 C 
ATOM      9  C   UNL     1      -1.985   1.397  -0.346  0.00  0.00    +0.180 C 
ATOM     10  C   UNL     1      -2.519  -2.950   0.939  0.00  0.00    +0.003 C 
BRANCH   9  12
ATOM     11  O   UNL     1      -0.787   3.192  -1.343  0.00  0.00    -0.288 OA
ATOM     12  C   UNL     1      -1.806   2.749  -0.751  0.00  0.00    +0.208 C 
ATOM     13  C   UNL     1      -2.902   3.787  -0.471  0.00  0.00    +0.081 C 
ENDBRANCH   9  12
ENDBRANCH   1   3
BRANCH   1  14
ATOM     14  C   UNL     1       1.658  -2.367   0.046  0.00  0.00    +0.232 C 
BRANCH  14  15
ATOM     15  C   UNL     1       2.947  -1.719  -0.454  0.00  0.00    +0.133 C 
BRANCH  15  16
ATOM     16  O   UNL     1       3.194  -2.163  -1.792  0.00  0.00    -0.383 OA
ATOM     17  H   UNL     1       4.011  -1.758  -2.121  0.00  0.00    +0.210 HD
ENDBRANCH  15  16
BRANCH  15  18
ATOM     18  C   UNL     1       2.893  -0.190  -0.461  0.00  0.00    -0.048 C 
BRANCH  18  19
ATOM     19  N   UNL     1       2.706   0.357   0.876  0.00  0.00    +0.387 N 
ATOM     20  H   UNL     1       3.461   0.030   1.479  0.00  0.00    -0.084 HD
ATOM     21  H   UNL     1       1.804   0.044   1.233  0.00  0.00    -0.084 HD
BRANCH  19  22
ATOM     22  C   UNL     1       2.715   1.813   0.850  0.00  0.00    -0.062 C 
ATOM     23  C   UNL     1       4.050   2.325   0.315  0.00  0.00    -0.023 C 
ATOM     24  C   UNL     1       2.446   2.349   2.252  0.00  0.00    -0.023 C 
ENDBRANCH  19  22
ENDBRANCH  18  19
ENDBRANCH  15  18
ENDBRANCH  14  15
ENDBRANCH   1  14
TORSDOF 8
