6425761
  -OEChem-10051722043D

 56 58  0     1  0  0  0  0  0999 V2000
   -3.7876   -2.9872    0.0792 O   0  0  0  0  0  0  0  0  0  0  0  0
    1.1612   -0.1136   -0.5232 N   0  0  0  0  0  0  0  0  0  0  0  0
   -2.9941   -0.7558   -0.0221 N   0  0  0  0  0  0  0  0  0  0  0  0
   -1.5916   -1.0463   -0.1874 C   0  0  0  0  0  0  0  0  0  0  0  0
   -1.0737   -0.4928   -1.5146 C   0  0  0  0  0  0  0  0  0  0  0  0
   -0.7723   -0.4842    0.9747 C   0  0  0  0  0  0  0  0  0  0  0  0
    0.4345   -0.7059   -1.6548 C   0  0  0  0  0  0  0  0  0  0  0  0
    0.7258   -0.6989    0.7524 C   0  0  0  0  0  0  0  0  0  0  0  0
    2.6038   -0.2819   -0.6974 C   0  0  0  0  0  0  0  0  0  0  0  0
    3.4071    0.3320    0.4670 C   0  0  1  0  0  0  0  0  0  0  0  0
   -3.4151    0.6427    0.0233 C   0  0  0  0  0  0  0  0  0  0  0  0
   -3.9905   -1.7705    0.0993 C   0  0  0  0  0  0  0  0  0  0  0  0
    4.8970    0.0927    0.2730 C   0  0  0  0  0  0  0  0  0  0  0  0
    3.1193    1.8258    0.6657 C   0  0  0  0  0  0  0  0  0  0  0  0
   -5.4222   -1.2560    0.2188 C   0  0  0  0  0  0  0  0  0  0  0  0
   -3.4547    1.2507    1.2425 C   0  0  0  0  0  0  0  0  0  0  0  0
   -3.7399    1.2431   -1.1565 C   0  0  0  0  0  0  0  0  0  0  0  0
    5.4404   -1.1054    0.6902 C   0  0  0  0  0  0  0  0  0  0  0  0
    5.6611    1.0806   -0.3142 C   0  0  0  0  0  0  0  0  0  0  0  0
   -6.4414   -2.3762    0.3604 C   0  0  0  0  0  0  0  0  0  0  0  0
   -3.8570    2.5856    1.2861 C   0  0  0  0  0  0  0  0  0  0  0  0
   -4.1423    2.5780   -1.1129 C   0  0  0  0  0  0  0  0  0  0  0  0
    6.8063   -1.3251    0.5125 C   0  0  0  0  0  0  0  0  0  0  0  0
    7.0271    0.8610   -0.4919 C   0  0  0  0  0  0  0  0  0  0  0  0
   -4.2008    3.2492    0.1084 C   0  0  0  0  0  0  0  0  0  0  0  0
    7.5997   -0.3418   -0.0785 C   0  0  0  0  0  0  0  0  0  0  0  0
   -1.4633   -2.1363   -0.1990 H   0  0  0  0  0  0  0  0  0  0  0  0
   -1.2503    0.5850   -1.6014 H   0  0  0  0  0  0  0  0  0  0  0  0
   -1.5942   -0.9699   -2.3540 H   0  0  0  0  0  0  0  0  0  0  0  0
   -1.0790   -0.9559    1.9162 H   0  0  0  0  0  0  0  0  0  0  0  0
   -0.9255    0.5942    1.0939 H   0  0  0  0  0  0  0  0  0  0  0  0
    0.6467   -1.7800   -1.7377 H   0  0  0  0  0  0  0  0  0  0  0  0
    0.7601   -0.2373   -2.5917 H   0  0  0  0  0  0  0  0  0  0  0  0
    1.2039   -0.2255    1.6135 H   0  0  0  0  0  0  0  0  0  0  0  0
    0.9566   -1.7715    0.7930 H   0  0  0  0  0  0  0  0  0  0  0  0
    2.9136    0.2012   -1.6341 H   0  0  0  0  0  0  0  0  0  0  0  0
    2.8560   -1.3467   -0.7981 H   0  0  0  0  0  0  0  0  0  0  0  0
    3.1711   -0.1649    1.4153 H   0  0  0  0  0  0  0  0  0  0  0  0
    2.1030    1.9736    1.0484 H   0  0  0  0  0  0  0  0  0  0  0  0
    3.1806    2.3925   -0.2698 H   0  0  0  0  0  0  0  0  0  0  0  0
    3.7968    2.2795    1.3983 H   0  0  0  0  0  0  0  0  0  0  0  0
   -5.6772   -0.6798   -0.6758 H   0  0  0  0  0  0  0  0  0  0  0  0
   -5.5083   -0.6140    1.1006 H   0  0  0  0  0  0  0  0  0  0  0  0
   -3.2007    0.7343    2.1623 H   0  0  0  0  0  0  0  0  0  0  0  0
   -3.7081    0.7211   -2.1070 H   0  0  0  0  0  0  0  0  0  0  0  0
    4.8298   -1.8772    1.1492 H   0  0  0  0  0  0  0  0  0  0  0  0
    5.2559    2.0194   -0.6733 H   0  0  0  0  0  0  0  0  0  0  0  0
   -7.4511   -1.9632    0.4485 H   0  0  0  0  0  0  0  0  0  0  0  0
   -6.2407   -2.9806    1.2512 H   0  0  0  0  0  0  0  0  0  0  0  0
   -6.4196   -3.0409   -0.5097 H   0  0  0  0  0  0  0  0  0  0  0  0
   -3.9056    3.1072    2.2375 H   0  0  0  0  0  0  0  0  0  0  0  0
   -4.4131    3.0937   -2.0295 H   0  0  0  0  0  0  0  0  0  0  0  0
    7.2520   -2.2620    0.8335 H   0  0  0  0  0  0  0  0  0  0  0  0
    7.6444    1.6239   -0.9574 H   0  0  0  0  0  0  0  0  0  0  0  0
   -4.5155    4.2881    0.1425 H   0  0  0  0  0  0  0  0  0  0  0  0
    8.6630   -0.5134   -0.2183 H   0  0  0  0  0  0  0  0  0  0  0  0
  1 12  2  0  0  0  0
  2  7  1  0  0  0  0
  2  8  1  0  0  0  0
  2  9  1  0  0  0  0
  3  4  1  0  0  0  0
  3 11  1  0  0  0  0
  3 12  1  0  0  0  0
  4  5  1  0  0  0  0
  4  6  1  0  0  0  0
  4 27  1  0  0  0  0
  5  7  1  0  0  0  0
  5 28  1  0  0  0  0
  5 29  1  0  0  0  0
  6  8  1  0  0  0  0
  6 30  1  0  0  0  0
  6 31  1  0  0  0  0
  7 32  1  0  0  0  0
  7 33  1  0  0  0  0
  8 34  1  0  0  0  0
  8 35  1  0  0  0  0
  9 10  1  0  0  0  0
  9 36  1  0  0  0  0
  9 37  1  0  0  0  0
 10 13  1  0  0  0  0
 10 14  1  0  0  0  0
 10 38  1  0  0  0  0
 11 16  2  0  0  0  0
 11 17  1  0  0  0  0
 12 15  1  0  0  0  0
 13 18  2  0  0  0  0
 13 19  1  0  0  0  0
 14 39  1  0  0  0  0
 14 40  1  0  0  0  0
 14 41  1  0  0  0  0
 15 20  1  0  0  0  0
 15 42  1  0  0  0  0
 15 43  1  0  0  0  0
 16 21  1  0  0  0  0
 16 44  1  0  0  0  0
 17 22  2  0  0  0  0
 17 45  1  0  0  0  0
 18 23  1  0  0  0  0
 18 46  1  0  0  0  0
 19 24  2  0  0  0  0
 19 47  1  0  0  0  0
 20 48  1  0  0  0  0
 20 49  1  0  0  0  0
 20 50  1  0  0  0  0
 21 25  2  0  0  0  0
 21 51  1  0  0  0  0
 22 25  1  0  0  0  0
 22 52  1  0  0  0  0
 23 26  2  0  0  0  0
 23 53  1  0  0  0  0
 24 26  1  0  0  0  0
 24 54  1  0  0  0  0
 25 55  1  0  0  0  0
 26 56  1  0  0  0  0
M  END
> <DATABASE_ID>
DB09171

> <DATABASE_NAME>
drugbank

> <ORIGINAL_SOURCE>
PUBCHEM

> <ORIGINAL_SOURCE_URL>
https://pubchem.ncbi.nlm.nih.gov/rest/pug/compound/inchikey/UXIGUKSHASXDNI-UHFFFAOYSA-N/SDF?record_type=3d

> <SMILES>
CCC(=O)N(C1CCN(CC(C)C2=CC=CC=C2)CC1)C1=CC=CC=C1

> <INCHI_IDENTIFIER>
InChI=1S/C23H30N2O/c1-3-23(26)25(21-12-8-5-9-13-21)22-14-16-24(17-15-22)18-19(2)20-10-6-4-7-11-20/h4-13,19,22H,3,14-18H2,1-2H3

> <INCHI_KEY>
UXIGUKSHASXDNI-UHFFFAOYSA-N

> <FORMULA>
C23H30N2O

> <MOLECULAR_WEIGHT>
350.506

> <EXACT_MASS>
350.235813594

> <JCHEM_ACCEPTOR_COUNT>
2

> <JCHEM_ATOM_COUNT>
56

> <JCHEM_AVERAGE_POLARIZABILITY>
40.70474244897021

> <JCHEM_BIOAVAILABILITY>
1

> <JCHEM_DONOR_COUNT>
0

> <JCHEM_FORMAL_CHARGE>
0

> <JCHEM_GHOSE_FILTER>
1

> <JCHEM_IUPAC>
N-phenyl-N-[1-(2-phenylpropyl)piperidin-4-yl]propanamide

> <ALOGPS_LOGP>
4.51

> <JCHEM_LOGP>
4.180471374666666

> <ALOGPS_LOGS>
-4.42

> <JCHEM_MDDR_LIKE_RULE>
1

> <JCHEM_NUMBER_OF_RINGS>
3

> <JCHEM_PHYSIOLOGICAL_CHARGE>
1

> <JCHEM_PKA_STRONGEST_BASIC>
9.072595311091144

> <JCHEM_POLAR_SURFACE_AREA>
23.550000000000004

> <JCHEM_REFRACTIVITY>
107.95410000000004

> <JCHEM_ROTATABLE_BOND_COUNT>
6

> <JCHEM_RULE_OF_FIVE>
1

> <ALOGPS_SOLUBILITY>
1.34e-02 g/l

> <JCHEM_TRADITIONAL_IUPAC>
betamethylfentanyl

> <JCHEM_VEBER_RULE>
1

> <DRUGBANK_ID>
DB09171

> <DRUG_GROUPS>
illicit

> <GENERIC_NAME>
Î²-Methylfentanyl

> <SYNONYMS>
beta-Methylfentanyl; Betamethylfentanyl

$$$$
