REMARK  Name = 3314
REMARK  4 active torsions:
REMARK  status: ('A' for Active; 'I' for Inactive)
REMARK    1  A    between atoms: C_1  and  C_11
REMARK    2  A    between atoms: C_3  and  O_7
REMARK    3  A    between atoms: C_5  and  O_9
REMARK    4  A    between atoms: C_11  and  C_12
REMARK                            x       y       z     vdW  Elec       q    Type
REMARK                         _______ _______ _______ _____ _____    ______ ____
ROOT
ATOM      1  C   UNL     1      -0.992  -0.516   0.402  0.00  0.00    -0.015 C 
ATOM      2  C   UNL     1      -0.128   0.561   0.604  0.00  0.00    +0.036 C 
ATOM      3  C   UNL     1       1.233   0.424   0.332  0.00  0.00    +0.172 C 
ATOM      4  C   UNL     1      -0.494  -1.730  -0.071  0.00  0.00    -0.001 C 
ATOM      5  C   UNL     1       1.730  -0.790  -0.142  0.00  0.00    +0.168 C 
ATOM      6  C   UNL     1       0.867  -1.867  -0.344  0.00  0.00    +0.039 C 
ENDROOT
BRANCH   3   7
ATOM      7  O   UNL     1       2.067   1.482   0.533  0.00  0.00    -0.468 OA
ATOM      8  C   UNL     1       2.264   2.370  -0.565  0.00  0.00    +0.253 C 
ENDBRANCH   3   7
BRANCH   5   9
ATOM      9  O   UNL     1       3.058  -0.937  -0.410  0.00  0.00    -0.503 OA
ATOM     10  H   UNL     1       3.645  -0.219  -0.277  0.00  0.00    +0.292 HD
ENDBRANCH   5   9
BRANCH   1  11
ATOM     11  C   UNL     1      -2.447  -0.368   0.693  0.00  0.00    +0.052 C 
BRANCH  11  12
ATOM     12  C   UNL     1      -3.241   0.109  -0.496  0.00  0.00    -0.021 C 
ATOM     13  C   UNL     1      -3.916   1.263  -0.535  0.00  0.00    -0.005 C 
ENDBRANCH  11  12
ENDBRANCH   1  11
TORSDOF 4
