REMARK  Name = 9826451
REMARK  9 active torsions:
REMARK  status: ('A' for Active; 'I' for Inactive)
REMARK    1  A    between atoms: C_1  and  N_2
REMARK    2  A    between atoms: C_1  and  C_19
REMARK    3  A    between atoms: C_8  and  O_10
REMARK    4  A    between atoms: O_10  and  C_11
REMARK    5  A    between atoms: C_14  and  O_17
REMARK    6  A    between atoms: C_19  and  O_20
REMARK    7  A    between atoms: O_20  and  C_24
REMARK    8  A    between atoms: C_21  and  C_27
REMARK    9  A    between atoms: C_27  and  C_32
REMARK                            x       y       z     vdW  Elec       q    Type
REMARK                         _______ _______ _______ _____ _____    ______ ____
ROOT
ATOM      1  C   UNL     1      -0.142  -4.630   0.388  0.00  0.00    +0.139 C 
ENDROOT
BRANCH   1   2
ATOM      2  N   UNL     1      -0.800  -3.715  -0.514  0.00  0.00    -0.291 N 
ATOM      3  C   UNL     1      -0.501  -3.806  -1.944  0.00  0.00    +0.113 C 
ATOM      4  N   UNL     1      -1.957  -2.684   1.277  0.00  0.00    -0.233 NA
ATOM      5  N   UNL     1      -3.453  -0.849   0.832  0.00  0.00    -0.214 NA
ATOM      6  C   UNL     1      -1.698  -2.747  -0.046  0.00  0.00    +0.115 C 
ATOM      7  C   UNL     1      -2.270  -1.906  -0.979  0.00  0.00    +0.146 C 
ATOM      8  C   UNL     1      -3.149  -0.967  -0.477  0.00  0.00    +0.210 C 
ATOM      9  C   UNL     1      -2.830  -1.726   1.641  0.00  0.00    +0.254 C 
BRANCH   8  10
ATOM     10  O   UNL     1      -3.759  -0.095  -1.340  0.00  0.00    -0.440 OA
BRANCH  10  11
ATOM     11  C   UNL     1      -4.630   0.829  -0.798  0.00  0.00    +0.147 C 
ATOM     12  C   UNL     1      -4.158   2.074  -0.383  0.00  0.00    +0.041 C 
ATOM     13  C   UNL     1      -5.984   0.517  -0.666  0.00  0.00    +0.041 C 
ATOM     14  C   UNL     1      -6.391   2.695   0.296  0.00  0.00    +0.139 C 
ATOM     15  C   UNL     1      -5.038   3.007   0.164  0.00  0.00    +0.040 C 
ATOM     16  C   UNL     1      -6.864   1.450  -0.120  0.00  0.00    +0.040 C 
BRANCH  14  17
ATOM     17  O   UNL     1      -7.251   3.606   0.829  0.00  0.00    -0.471 OA
ATOM     18  C   UNL     1      -8.621   3.222   0.935  0.00  0.00    +0.252 C 
ENDBRANCH  14  17
ENDBRANCH  10  11
ENDBRANCH   8  10
ENDBRANCH   1   2
BRANCH   1  19
ATOM     19  C   UNL     1       1.155  -4.021   0.893  0.00  0.00    +0.227 C 
BRANCH  19  20
ATOM     20  O   UNL     1       2.029  -3.784  -0.209  0.00  0.00    -0.474 OA
BRANCH  20  24
ATOM     21  C   UNL     1       4.687  -0.615   0.134  0.00  0.00    -0.021 C 
ATOM     22  C   UNL     1       4.209  -0.991  -1.121  0.00  0.00    -0.001 C 
ATOM     23  C   UNL     1       4.272  -1.304   1.274  0.00  0.00    -0.001 C 
ATOM     24  C   UNL     1       2.901  -2.745  -0.097  0.00  0.00    +0.139 C 
ATOM     25  C   UNL     1       3.316  -2.056  -1.237  0.00  0.00    +0.037 C 
ATOM     26  C   UNL     1       3.380  -2.369   1.158  0.00  0.00    +0.037 C 
BRANCH  21  27
ATOM     27  C   UNL     1       5.652   0.536   0.258  0.00  0.00    +0.047 C 
BRANCH  27  32
ATOM     28  S   UNL     1       4.354   2.521  -1.143  0.00  0.00    -0.048 S 
ATOM     29  O   UNL     1       6.467   2.780   2.076  0.00  0.00    -0.274 OA
ATOM     30  O   UNL     1       5.158   4.938  -1.791  0.00  0.00    -0.263 OA
ATOM     31  N   UNL     1       5.916   4.025   0.206  0.00  0.00    -0.246 N 
ATOM     32  C   UNL     1       4.934   1.860   0.450  0.00  0.00    +0.137 C 
ATOM     33  C   UNL     1       5.858   2.913   1.020  0.00  0.00    +0.239 C 
ATOM     34  C   UNL     1       5.209   4.038  -0.967  0.00  0.00    +0.279 C 
ATOM     35  H   UNL     1       6.462   4.802   0.466  0.00  0.00    +0.158 HD
ENDBRANCH  27  32
ENDBRANCH  21  27
ENDBRANCH  20  24
ENDBRANCH  19  20
ENDBRANCH   1  19
TORSDOF 9
