REMARK  Name = 20811
REMARK  7 active torsions:
REMARK  status: ('A' for Active; 'I' for Inactive)
REMARK    1  A    between atoms: C_1  and  N_3
REMARK    2  A    between atoms: C_1  and  C_8
REMARK    3  A    between atoms: N_3  and  N_5
REMARK    4  A    between atoms: C_8  and  C_9
REMARK    5  A    between atoms: C_9  and  C_10
REMARK    6  A    between atoms: C_10  and  C_11
REMARK    7  A    between atoms: C_11  and  C_12
REMARK                            x       y       z     vdW  Elec       q    Type
REMARK                         _______ _______ _______ _____ _____    ______ ____
ROOT
ATOM      1  C   UNL     1       2.477   0.492   0.249  0.00  0.00    +0.068 C 
ATOM      2  C   UNL     1       2.646   0.995  -1.184  0.00  0.00    +0.018 C 
ENDROOT
BRANCH   1   3
ATOM      3  N   UNL     1       2.751  -0.945   0.301  0.00  0.00    -0.250 NA
ATOM      4  H   UNL     1       2.625  -1.287   1.253  0.00  0.00    +0.141 HD
BRANCH   3   5
ATOM      5  N   UNL     1       4.098  -1.153  -0.114  0.00  0.00    -0.270 NA
ATOM      6  H   UNL     1       4.218  -0.809  -1.067  0.00  0.00    +0.137 HD
ATOM      7  H   UNL     1       4.314  -2.149  -0.083  0.00  0.00    +0.137 HD
ENDBRANCH   3   5
ENDBRANCH   1   3
BRANCH   1   8
ATOM      8  C   UNL     1       1.062   0.799   0.767  0.00  0.00    +0.017 C 
BRANCH   8   9
ATOM      9  C   UNL     1      -0.040   0.122  -0.059  0.00  0.00    +0.001 C 
BRANCH   9  10
ATOM     10  C   UNL     1      -1.427   0.437   0.508  0.00  0.00    +0.000 C 
BRANCH  10  11
ATOM     11  C   UNL     1      -2.567  -0.235  -0.263  0.00  0.00    +0.000 C 
BRANCH  11  12
ATOM     12  C   UNL     1      -3.950   0.059   0.318  0.00  0.00    +0.000 C 
ATOM     13  C   UNL     1      -5.050  -0.571  -0.524  0.00  0.00    +0.000 C 
ENDBRANCH  11  12
ENDBRANCH  10  11
ENDBRANCH   9  10
ENDBRANCH   8   9
ENDBRANCH   1   8
TORSDOF 7
