2750
  -OEChem-10051722053D

 46 48  0     1  0  0  0  0  0999 V2000
    4.2126    1.5318    0.1752 S   0  0  0  0  0  0  0  0  0  0  0  0
   -2.2421   -0.5712    0.2774 O   0  0  0  0  0  0  0  0  0  0  0  0
    5.8829   -1.9466    0.2472 O   0  0  0  0  0  0  0  0  0  0  0  0
    6.6066    2.6097    0.0373 O   0  0  0  0  0  0  0  0  0  0  0  0
    6.4469    0.2940    0.1497 N   0  0  0  0  0  0  0  0  0  0  0  0
   -4.4239    0.3999    0.3089 C   0  0  0  0  0  0  0  0  0  0  0  0
   -5.2291    1.6468   -0.1225 C   0  0  0  0  0  0  0  0  0  0  0  0
   -5.0088   -0.8622   -0.3649 C   0  0  0  0  0  0  0  0  0  0  0  0
   -6.7375    1.4934    0.0724 C   0  0  0  0  0  0  0  0  0  0  0  0
   -6.5176   -1.0115   -0.1698 C   0  0  0  0  0  0  0  0  0  0  0  0
   -7.2693    0.2390   -0.6118 C   0  0  0  0  0  0  0  0  0  0  0  0
   -2.9594    0.5716   -0.1359 C   0  0  0  0  0  0  0  0  0  0  0  0
   -4.4382    0.2503    1.8425 C   0  0  0  0  0  0  0  0  0  0  0  0
   -0.9197   -0.6427    0.0149 C   0  0  0  0  0  0  0  0  0  0  0  0
   -0.1792   -1.7632    0.4116 C   0  0  0  0  0  0  0  0  0  0  0  0
   -0.2722    0.4023   -0.6558 C   0  0  0  0  0  0  0  0  0  0  0  0
    1.8241   -0.7920   -0.5267 C   0  0  0  0  0  0  0  0  0  0  0  0
    3.2847   -0.8716   -0.8161 C   0  0  0  0  0  0  0  0  0  0  0  0
    4.1325   -0.2805    0.3076 C   0  0  1  0  0  0  0  0  0  0  0  0
    1.1874   -1.8374    0.1419 C   0  0  0  0  0  0  0  0  0  0  0  0
    1.0943    0.3279   -0.9256 C   0  0  0  0  0  0  0  0  0  0  0  0
    5.5636   -0.7626    0.2319 C   0  0  0  0  0  0  0  0  0  0  0  0
    5.9614    1.5747    0.1106 C   0  0  0  0  0  0  0  0  0  0  0  0
   -4.8833    2.5312    0.4271 H   0  0  0  0  0  0  0  0  0  0  0  0
   -5.0411    1.8518   -1.1851 H   0  0  0  0  0  0  0  0  0  0  0  0
   -4.8060   -0.8269   -1.4439 H   0  0  0  0  0  0  0  0  0  0  0  0
   -4.5170   -1.7677    0.0116 H   0  0  0  0  0  0  0  0  0  0  0  0
   -7.2472    2.3739   -0.3361 H   0  0  0  0  0  0  0  0  0  0  0  0
   -6.9798    1.4631    1.1407 H   0  0  0  0  0  0  0  0  0  0  0  0
   -6.7410   -1.2239    0.8820 H   0  0  0  0  0  0  0  0  0  0  0  0
   -6.8753   -1.8737   -0.7446 H   0  0  0  0  0  0  0  0  0  0  0  0
   -8.3371    0.1243   -0.3939 H   0  0  0  0  0  0  0  0  0  0  0  0
   -7.1774    0.3522   -1.6992 H   0  0  0  0  0  0  0  0  0  0  0  0
   -2.5480    1.4759    0.3322 H   0  0  0  0  0  0  0  0  0  0  0  0
   -2.9206    0.6738   -1.2285 H   0  0  0  0  0  0  0  0  0  0  0  0
   -3.9621    1.1115    2.3252 H   0  0  0  0  0  0  0  0  0  0  0  0
   -5.4541    0.1778    2.2422 H   0  0  0  0  0  0  0  0  0  0  0  0
   -3.9061   -0.6500    2.1694 H   0  0  0  0  0  0  0  0  0  0  0  0
   -0.6682   -2.5815    0.9337 H   0  0  0  0  0  0  0  0  0  0  0  0
   -0.7829    1.2972   -0.9959 H   0  0  0  0  0  0  0  0  0  0  0  0
    3.5462   -1.9290   -0.9626 H   0  0  0  0  0  0  0  0  0  0  0  0
    3.5120   -0.4055   -1.7850 H   0  0  0  0  0  0  0  0  0  0  0  0
    3.7491   -0.5441    1.2999 H   0  0  0  0  0  0  0  0  0  0  0  0
    1.7447   -2.7145    0.4602 H   0  0  0  0  0  0  0  0  0  0  0  0
    1.5712    1.1447   -1.4601 H   0  0  0  0  0  0  0  0  0  0  0  0
    7.4462    0.1227    0.1063 H   0  0  0  0  0  0  0  0  0  0  0  0
  1 19  1  0  0  0  0
  1 23  1  0  0  0  0
  2 12  1  0  0  0  0
  2 14  1  0  0  0  0
  3 22  2  0  0  0  0
  4 23  2  0  0  0  0
  5 22  1  0  0  0  0
  5 23  1  0  0  0  0
  5 46  1  0  0  0  0
  6  7  1  0  0  0  0
  6  8  1  0  0  0  0
  6 12  1  0  0  0  0
  6 13  1  0  0  0  0
  7  9  1  0  0  0  0
  7 24  1  0  0  0  0
  7 25  1  0  0  0  0
  8 10  1  0  0  0  0
  8 26  1  0  0  0  0
  8 27  1  0  0  0  0
  9 11  1  0  0  0  0
  9 28  1  0  0  0  0
  9 29  1  0  0  0  0
 10 11  1  0  0  0  0
 10 30  1  0  0  0  0
 10 31  1  0  0  0  0
 11 32  1  0  0  0  0
 11 33  1  0  0  0  0
 12 34  1  0  0  0  0
 12 35  1  0  0  0  0
 13 36  1  0  0  0  0
 13 37  1  0  0  0  0
 13 38  1  0  0  0  0
 14 15  2  0  0  0  0
 14 16  1  0  0  0  0
 15 20  1  0  0  0  0
 15 39  1  0  0  0  0
 16 21  2  0  0  0  0
 16 40  1  0  0  0  0
 17 18  1  0  0  0  0
 17 20  2  0  0  0  0
 17 21  1  0  0  0  0
 18 19  1  0  0  0  0
 18 41  1  0  0  0  0
 18 42  1  0  0  0  0
 19 22  1  0  0  0  0
 19 43  1  0  0  0  0
 20 44  1  0  0  0  0
 21 45  1  0  0  0  0
M  END
> <DATABASE_ID>
DB09201

> <DATABASE_NAME>
drugbank

> <ORIGINAL_SOURCE>
PUBCHEM

> <ORIGINAL_SOURCE_URL>
https://pubchem.ncbi.nlm.nih.gov/rest/pug/compound/inchikey/YZFWTZACSRHJQD-UHFFFAOYSA-N/SDF?record_type=3d

> <SMILES>
CC1(COC2=CC=C(CC3SC(=O)NC3=O)C=C2)CCCCC1

> <INCHI_IDENTIFIER>
InChI=1S/C18H23NO3S/c1-18(9-3-2-4-10-18)12-22-14-7-5-13(6-8-14)11-15-16(20)19-17(21)23-15/h5-8,15H,2-4,9-12H2,1H3,(H,19,20,21)

> <INCHI_KEY>
YZFWTZACSRHJQD-UHFFFAOYSA-N

> <FORMULA>
C18H23NO3S

> <MOLECULAR_WEIGHT>
333.45

> <EXACT_MASS>
333.139864779

> <JCHEM_ACCEPTOR_COUNT>
3

> <JCHEM_ATOM_COUNT>
46

> <JCHEM_AVERAGE_POLARIZABILITY>
36.35825690641037

> <JCHEM_BIOAVAILABILITY>
1

> <JCHEM_DONOR_COUNT>
1

> <JCHEM_FORMAL_CHARGE>
0

> <JCHEM_GHOSE_FILTER>
1

> <JCHEM_IUPAC>
5-({4-[(1-methylcyclohexyl)methoxy]phenyl}methyl)-1,3-thiazolidine-2,4-dione

> <ALOGPS_LOGP>
3.93

> <JCHEM_LOGP>
4.281939212999999

> <ALOGPS_LOGS>
-4.80

> <JCHEM_MDDR_LIKE_RULE>
0

> <JCHEM_NUMBER_OF_RINGS>
3

> <JCHEM_PHYSIOLOGICAL_CHARGE>
-1

> <JCHEM_PKA>
16.671911674467246

> <JCHEM_PKA_STRONGEST_ACIDIC>
6.613586421327052

> <JCHEM_PKA_STRONGEST_BASIC>
-4.842983524126304

> <JCHEM_POLAR_SURFACE_AREA>
55.4

> <JCHEM_REFRACTIVITY>
91.25879999999998

> <JCHEM_ROTATABLE_BOND_COUNT>
5

> <JCHEM_RULE_OF_FIVE>
1

> <ALOGPS_SOLUBILITY>
5.34e-03 g/l

> <JCHEM_TRADITIONAL_IUPAC>
ciglitazone

> <JCHEM_VEBER_RULE>
0

> <DRUGBANK_ID>
DB09201

> <DRUG_GROUPS>
experimental

> <GENERIC_NAME>
Ciglitazone

> <SYNONYMS>
ciglitazona; Ciglitazone

$$$$
