REMARK  Name = 40589
REMARK  7 active torsions:
REMARK  status: ('A' for Active; 'I' for Inactive)
REMARK    1  A    between atoms: N_1  and  C_15
REMARK    2  A    between atoms: N_2  and  C_9
REMARK    3  A    between atoms: C_15  and  C_16
REMARK    4  A    between atoms: C_16  and  C_17
REMARK    5  A    between atoms: C_17  and  N_19
REMARK    6  A    between atoms: N_20  and  C_24
REMARK    7  A    between atoms: C_23  and  C_26
REMARK                            x       y       z     vdW  Elec       q    Type
REMARK                         _______ _______ _______ _____ _____    ______ ____
ROOT
ATOM      1  N   UNL     1       0.221   0.823  -0.753  0.00  0.00    +0.389 N 
ATOM      2  N   UNL     1       2.974   0.360  -0.146  0.00  0.00    -0.312 N 
ATOM      3  C   UNL     1       0.948  -0.279  -1.395  0.00  0.00    -0.055 C 
ATOM      4  C   UNL     1       1.130   1.951  -0.519  0.00  0.00    -0.055 C 
ATOM      5  C   UNL     1       2.103  -0.762  -0.515  0.00  0.00    +0.068 C 
ATOM      6  C   UNL     1       2.292   1.543   0.390  0.00  0.00    +0.068 C 
ATOM      7  H   UNL     1      -0.140   0.500   0.145  0.00  0.00    -0.080 HD
ENDROOT
BRANCH   2   9
ATOM      8 CL   UNL     1       7.553  -1.694  -1.279  0.00  0.00    -0.082 Cl
ATOM      9  C   UNL     1       4.283   0.073   0.255  0.00  0.00    +0.049 C 
ATOM     10  C   UNL     1       5.177  -0.594  -0.606  0.00  0.00    +0.026 C 
ATOM     11  C   UNL     1       4.747   0.442   1.534  0.00  0.00    +0.015 C 
ATOM     12  C   UNL     1       6.482  -0.879  -0.206  0.00  0.00    +0.059 C 
ATOM     13  C   UNL     1       6.052   0.156   1.934  0.00  0.00    +0.002 C 
ATOM     14  C   UNL     1       6.920  -0.504   1.065  0.00  0.00    +0.011 C 
ENDBRANCH   2   9
BRANCH   1  15
ATOM     15  C   UNL     1      -0.912   1.239  -1.577  0.00  0.00    -0.075 C 
BRANCH  15  16
ATOM     16  C   UNL     1      -1.731   2.347  -0.908  0.00  0.00    +0.004 C 
BRANCH  16  17
ATOM     17  C   UNL     1      -2.317   1.966   0.450  0.00  0.00    +0.130 C 
BRANCH  17  19
ATOM     18  O   UNL     1      -5.314   1.887  -0.007  0.00  0.00    -0.245 OA
ATOM     19  N   UNL     1      -3.229   0.859   0.365  0.00  0.00    -0.201 N 
ATOM     20  N   UNL     1      -5.009  -0.430   0.154  0.00  0.00    -0.267 N 
ATOM     21  N   UNL     1      -2.801  -0.436   0.495  0.00  0.00    -0.152 NA
ATOM     22  C   UNL     1      -4.616   0.895   0.150  0.00  0.00    +0.348 A 
ATOM     23  C   UNL     1      -3.884  -1.145   0.366  0.00  0.00    +0.144 A 
BRANCH  20  24
ATOM     24  C   UNL     1      -6.363  -0.918  -0.033  0.00  0.00    +0.112 C 
ATOM     25  C   UNL     1      -7.093  -1.033   1.294  0.00  0.00    +0.027 C 
ENDBRANCH  20  24
BRANCH  23  26
ATOM     26  C   UNL     1      -3.908  -2.635   0.434  0.00  0.00    +0.066 C 
ATOM     27  C   UNL     1      -3.705  -3.232  -0.944  0.00  0.00    +0.008 C 
ENDBRANCH  23  26
ENDBRANCH  17  19
ENDBRANCH  16  17
ENDBRANCH  15  16
ENDBRANCH   1  15
TORSDOF 7
