REMARK  Name = 27501
REMARK  6 active torsions:
REMARK  status: ('A' for Active; 'I' for Inactive)
REMARK    1  A    between atoms: N_2  and  C_14
REMARK    2  A    between atoms: C_5  and  C_8
REMARK    3  A    between atoms: C_14  and  C_15
REMARK    4  A    between atoms: C_15  and  N_16
REMARK    5  A    between atoms: N_16  and  C_18
REMARK    6  A    between atoms: N_16  and  C_20
REMARK                            x       y       z     vdW  Elec       q    Type
REMARK                         _______ _______ _______ _____ _____    ______ ____
ROOT
ATOM      1  O   UNL     1       1.219   3.309  -0.257  0.00  0.00    -0.314 OA
ATOM      2  N   UNL     1       0.173   1.478   0.405  0.00  0.00    -0.266 N 
ATOM      3  N   UNL     1       2.074   2.164  -0.491  0.00  0.00    -0.055 NA
ATOM      4  N   UNL     1      -0.892   3.650   0.626  0.00  0.00    -0.249 NA
ATOM      5  C   UNL     1       1.406   1.114  -0.066  0.00  0.00    +0.186 A 
ATOM      6  C   UNL     1       0.053   2.837   0.307  0.00  0.00    +0.322 A 
ATOM      7  H   UNL     1      -0.783   4.616   0.473  0.00  0.00    +0.191 HD
ENDROOT
BRANCH   5   8
ATOM      8  C   UNL     1       1.980  -0.238  -0.127  0.00  0.00    +0.037 C 
ATOM      9  C   UNL     1       2.723  -0.734   0.948  0.00  0.00    +0.003 C 
ATOM     10  C   UNL     1       1.786  -1.033  -1.259  0.00  0.00    +0.003 C 
ATOM     11  C   UNL     1       3.268  -2.016   0.891  0.00  0.00    +0.000 C 
ATOM     12  C   UNL     1       2.330  -2.315  -1.316  0.00  0.00    +0.000 C 
ATOM     13  C   UNL     1       3.071  -2.807  -0.241  0.00  0.00    +0.000 C 
ENDBRANCH   5   8
BRANCH   2  14
ATOM     14  C   UNL     1      -0.877   0.613   0.892  0.00  0.00    +0.089 C 
BRANCH  14  15
ATOM     15  C   UNL     1      -1.784   0.208  -0.262  0.00  0.00    -0.052 C 
BRANCH  15  16
ATOM     16  N   UNL     1      -2.838  -0.690   0.209  0.00  0.00    +0.388 N 
ATOM     17  H   UNL     1      -3.372  -0.210   0.933  0.00  0.00    -0.080 HD
BRANCH  16  18
ATOM     18  C   UNL     1      -2.256  -1.900   0.789  0.00  0.00    -0.077 C 
ATOM     19  C   UNL     1      -3.334  -2.819   1.339  0.00  0.00    -0.025 C 
ENDBRANCH  16  18
BRANCH  16  20
ATOM     20  C   UNL     1      -3.745  -1.033  -0.886  0.00  0.00    -0.077 C 
ATOM     21  C   UNL     1      -4.359   0.213  -1.501  0.00  0.00    -0.025 C 
ENDBRANCH  16  20
ENDBRANCH  15  16
ENDBRANCH  14  15
ENDBRANCH   2  14
TORSDOF 6
