REMARK  Name = 6843
REMARK  11 active torsions:
REMARK  status: ('A' for Active; 'I' for Inactive)
REMARK    1  A    between atoms: C_1  and  C_11
REMARK    2  A    between atoms: C_2  and  O_21
REMARK    3  A    between atoms: C_5  and  N_7
REMARK    4  A    between atoms: C_11  and  O_12
REMARK    5  A    between atoms: O_12  and  C_13
REMARK    6  A    between atoms: C_13  and  C_14
REMARK    7  A    between atoms: C_14  and  N_15
REMARK    8  A    between atoms: N_15  and  C_17
REMARK    9  A    between atoms: N_15  and  C_19
REMARK   10  A    between atoms: O_21  and  C_22
REMARK   11  A    between atoms: C_22  and  C_23
REMARK                            x       y       z     vdW  Elec       q    Type
REMARK                         _______ _______ _______ _____ _____    ______ ____
ROOT
ATOM      1  C   UNL     1       1.409   0.682  -0.401  0.00  0.00    +0.110 C 
ATOM      2  C   UNL     1       2.687   0.124  -0.390  0.00  0.00    +0.146 C 
ATOM      3  C   UNL     1       1.238   2.038  -0.121  0.00  0.00    +0.011 C 
ATOM      4  C   UNL     1       3.794   0.921  -0.099  0.00  0.00    +0.051 C 
ATOM      5  C   UNL     1       3.623   2.276   0.181  0.00  0.00    +0.045 C 
ATOM      6  C   UNL     1       2.345   2.835   0.170  0.00  0.00    +0.014 C 
ENDROOT
BRANCH   5   7
ATOM      7  N   UNL     1       4.743   3.083   0.475  0.00  0.00    -0.357 N 
ATOM      8  H   UNL     1       5.645   2.688   0.483  0.00  0.00    +0.142 HD
ATOM      9  H   UNL     1       4.622   4.039   0.672  0.00  0.00    +0.142 HD
ENDBRANCH   5   7
BRANCH   1  11
ATOM     10  O   UNL     1       0.252  -1.122  -1.445  0.00  0.00    -0.245 OA
ATOM     11  C   UNL     1       0.217  -0.148  -0.709  0.00  0.00    +0.344 C 
BRANCH  11  12
ATOM     12  O   UNL     1      -0.883   0.329  -0.063  0.00  0.00    -0.448 OA
BRANCH  12  13
ATOM     13  C   UNL     1      -2.092  -0.387  -0.279  0.00  0.00    +0.186 C 
BRANCH  13  14
ATOM     14  C   UNL     1      -3.204   0.283   0.514  0.00  0.00    -0.029 C 
BRANCH  14  15
ATOM     15  N   UNL     1      -4.474  -0.411   0.308  0.00  0.00    +0.389 N 
ATOM     16  H   UNL     1      -4.297  -1.416   0.304  0.00  0.00    -0.080 HD
BRANCH  15  17
ATOM     17  C   UNL     1      -5.404  -0.109   1.396  0.00  0.00    -0.077 C 
ATOM     18  C   UNL     1      -5.735   1.373   1.440  0.00  0.00    -0.025 C 
ENDBRANCH  15  17
BRANCH  15  19
ATOM     19  C   UNL     1      -5.057  -0.038  -0.980  0.00  0.00    -0.077 C 
ATOM     20  C   UNL     1      -6.348  -0.796  -1.239  0.00  0.00    -0.025 C 
ENDBRANCH  15  19
ENDBRANCH  14  15
ENDBRANCH  13  14
ENDBRANCH  12  13
ENDBRANCH  11  12
ENDBRANCH   1  11
BRANCH   2  21
ATOM     21  O   UNL     1       2.874  -1.199  -0.661  0.00  0.00    -0.475 OA
BRANCH  21  22
ATOM     22  C   UNL     1       3.477  -1.990   0.361  0.00  0.00    +0.205 C 
BRANCH  22  23
ATOM     23  C   UNL     1       2.973  -3.420   0.236  0.00  0.00    +0.047 C 
ATOM     24  C   UNL     1       3.563  -4.322   1.306  0.00  0.00    +0.004 C 
ENDBRANCH  22  23
ENDBRANCH  21  22
ENDBRANCH   2  21
TORSDOF 11
