REMARK  Name = 9913
REMARK  8 active torsions:
REMARK  status: ('A' for Active; 'I' for Inactive)
REMARK    1  A    between atoms: N_3  and  C_14
REMARK    2  A    between atoms: C_14  and  C_15
REMARK    3  A    between atoms: C_15  and  O_16
REMARK    4  A    between atoms: C_15  and  C_18
REMARK    5  A    between atoms: C_18  and  N_19
REMARK    6  A    between atoms: N_19  and  C_22
REMARK    7  A    between atoms: C_22  and  C_23
REMARK    8  A    between atoms: C_23  and  O_24
REMARK                            x       y       z     vdW  Elec       q    Type
REMARK                         _______ _______ _______ _____ _____    ______ ____
ROOT
ATOM      1  O   UNL     1       0.253   1.441  -0.379  0.00  0.00    -0.272 OA
ATOM      2  O   UNL     1      -4.356   1.934   0.346  0.00  0.00    -0.252 OA
ATOM      3  N   UNL     1      -0.300  -1.497  -0.481  0.00  0.00    -0.238 NA
ATOM      4  N   UNL     1      -3.511  -0.218   0.084  0.00  0.00    -0.228 N 
ATOM      5  N   UNL     1      -2.052   1.713  -0.015  0.00  0.00    -0.211 N 
ATOM      6  N   UNL     1      -2.340  -2.360  -0.228  0.00  0.00    -0.240 NA
ATOM      7  C   UNL     1      -1.141  -0.439  -0.288  0.00  0.00    +0.192 C 
ATOM      8  C   UNL     1      -2.382  -0.995  -0.136  0.00  0.00    +0.136 C 
ATOM      9  C   UNL     1      -1.068  -2.632  -0.436  0.00  0.00    +0.203 C 
ATOM     10  C   UNL     1      -0.869   0.961  -0.241  0.00  0.00    +0.254 C 
ATOM     11  C   UNL     1      -3.386   1.192   0.153  0.00  0.00    +0.318 C 
ATOM     12  C   UNL     1      -4.816  -0.848   0.242  0.00  0.00    +0.123 C 
ATOM     13  C   UNL     1      -1.903   3.163   0.055  0.00  0.00    +0.124 C 
ENDROOT
BRANCH   3  14
ATOM     14  C   UNL     1       1.127  -1.459  -0.693  0.00  0.00    +0.102 C 
BRANCH  14  15
ATOM     15  C   UNL     1       1.914  -1.530   0.622  0.00  0.00    +0.106 C 
BRANCH  15  16
ATOM     16  O   UNL     1       1.597  -2.767   1.265  0.00  0.00    -0.385 OA
ATOM     17  H   UNL     1       0.640  -2.817   1.415  0.00  0.00    +0.210 HD
ENDBRANCH  15  16
BRANCH  15  18
ATOM     18  C   UNL     1       3.430  -1.486   0.402  0.00  0.00    -0.046 C 
BRANCH  18  19
ATOM     19  N   UNL     1       3.848  -0.280  -0.299  0.00  0.00    +0.389 N 
ATOM     20  C   UNL     1       5.294  -0.290  -0.530  0.00  0.00    -0.100 C 
ATOM     21  H   UNL     1       3.376  -0.258  -1.203  0.00  0.00    -0.080 HD
BRANCH  19  22
ATOM     22  C   UNL     1       3.464   0.916   0.455  0.00  0.00    -0.045 C 
BRANCH  22  23
ATOM     23  C   UNL     1       3.800   2.175  -0.328  0.00  0.00    +0.115 C 
BRANCH  23  24
ATOM     24  O   UNL     1       3.396   3.307   0.432  0.00  0.00    -0.384 OA
ATOM     25  H   UNL     1       3.606   4.117  -0.058  0.00  0.00    +0.210 HD
ENDBRANCH  23  24
ENDBRANCH  22  23
ENDBRANCH  19  22
ENDBRANCH  18  19
ENDBRANCH  15  18
ENDBRANCH  14  15
ENDBRANCH   3  14
TORSDOF 8
