REMARK  Name = 62380
REMARK  6 active torsions:
REMARK  status: ('A' for Active; 'I' for Inactive)
REMARK    1  A    between atoms: N_1  and  C_19
REMARK    2  A    between atoms: C_2  and  N_9
REMARK    3  A    between atoms: N_9  and  C_11
REMARK    4  A    between atoms: C_10  and  C_17
REMARK    5  A    between atoms: C_19  and  C_20
REMARK    6  A    between atoms: C_20  and  C_22
REMARK                            x       y       z     vdW  Elec       q    Type
REMARK                         _______ _______ _______ _____ _____    ______ ____
ROOT
ATOM      1  N   UNL     1       1.583  -0.111  -0.499  0.00  0.00    +0.387 N 
ATOM      2  C   UNL     1      -1.180  -1.022  -0.181  0.00  0.00    +0.076 C 
ATOM      3  C   UNL     1      -0.654  -0.455  -1.500  0.00  0.00    -0.003 C 
ATOM      4  C   UNL     1      -0.357  -0.484   0.990  0.00  0.00    -0.003 C 
ATOM      5  C   UNL     1       0.853  -0.680  -1.640  0.00  0.00    -0.076 C 
ATOM      6  C   UNL     1       1.139  -0.710   0.768  0.00  0.00    -0.076 C 
ATOM      7  H   UNL     1       1.379   0.888  -0.462  0.00  0.00    -0.080 HD
ENDROOT
BRANCH   2   9
ATOM      8  O   UNL     1      -3.395  -2.945   0.053  0.00  0.00    -0.275 OA
ATOM      9  N   UNL     1      -2.580  -0.720  -0.015  0.00  0.00    -0.260 N 
ATOM     10  C   UNL     1      -3.586  -1.726   0.090  0.00  0.00    +0.229 C 
BRANCH   9  11
ATOM     11  C   UNL     1      -2.987   0.682   0.049  0.00  0.00    +0.054 C 
ATOM     12  C   UNL     1      -3.024   1.273   1.277  0.00  0.00    +0.015 C 
ATOM     13  C   UNL     1      -3.302   1.302  -1.123  0.00  0.00    +0.015 C 
ATOM     14  C   UNL     1      -3.412   2.611   1.338  0.00  0.00    +0.001 C 
ATOM     15  C   UNL     1      -3.691   2.641  -1.061  0.00  0.00    +0.001 C 
ATOM     16  C   UNL     1      -3.746   3.295   0.169  0.00  0.00    +0.000 C 
ENDBRANCH   9  11
BRANCH  10  17
ATOM     17  C   UNL     1      -5.013  -1.200   0.214  0.00  0.00    +0.086 C 
ATOM     18  C   UNL     1      -6.043  -2.312   0.338  0.00  0.00    +0.010 C 
ENDBRANCH  10  17
ENDBRANCH   2   9
BRANCH   1  19
ATOM     19  C   UNL     1       3.024  -0.291  -0.672  0.00  0.00    -0.072 C 
BRANCH  19  20
ATOM     20  C   UNL     1       3.802   0.412   0.441  0.00  0.00    +0.010 C 
BRANCH  20  22
ATOM     21  S   UNL     1       6.190  -0.461   1.513  0.00  0.00    -0.091 S 
ATOM     22  C   UNL     1       5.290   0.253   0.261  0.00  0.00    +0.005 C 
ATOM     23  C   UNL     1       6.039   0.622  -0.812  0.00  0.00    +0.003 C 
ATOM     24  C   UNL     1       7.415   0.308  -0.611  0.00  0.00    +0.007 C 
ATOM     25  C   UNL     1       7.636  -0.284   0.613  0.00  0.00    +0.035 C 
ENDBRANCH  20  22
ENDBRANCH  19  20
ENDBRANCH   1  19
TORSDOF 6
