REMARK  Name = 5531
REMARK  3 active torsions:
REMARK  status: ('A' for Active; 'I' for Inactive)
REMARK    1  A    between atoms: C_5  and  N_11
REMARK    2  A    between atoms: N_11  and  C_12
REMARK    3  A    between atoms: N_11  and  C_14
REMARK                            x       y       z     vdW  Elec       q    Type
REMARK                         _______ _______ _______ _____ _____    ______ ____
ROOT
ATOM      1  N   UNL     1      -0.455   0.742  -0.048  0.00  0.00    -0.106 N 
ATOM      2  N   UNL     1      -2.407  -0.659   0.028  0.00  0.00    -0.340 NA
ATOM      3  N   UNL     1      -0.165   2.067  -0.127  0.00  0.00    -0.139 NA
ATOM      4  N   UNL     1      -2.421   1.761  -0.120  0.00  0.00    -0.145 NA
ATOM      5  C   UNL     1       0.423  -0.348   0.023  0.00  0.00    +0.138 C 
ATOM      6  C   UNL     1      -0.102  -1.582   0.095  0.00  0.00    +0.061 C 
ATOM      7  C   UNL     1      -1.843   0.579  -0.045  0.00  0.00    +0.174 C 
ATOM      8  C   UNL     1      -1.593  -1.671   0.093  0.00  0.00    +0.125 C 
ATOM      9  C   UNL     1      -2.195  -3.051   0.176  0.00  0.00    +0.068 C 
ATOM     10  C   UNL     1      -1.372   2.621  -0.168  0.00  0.00    +0.230 C 
ENDROOT
BRANCH   5  11
ATOM     11  N   UNL     1       1.762  -0.084   0.014  0.00  0.00    -0.294 N 
BRANCH  11  12
ATOM     12  C   UNL     1       2.622  -0.481   1.121  0.00  0.00    +0.092 C 
ATOM     13  C   UNL     1       2.540   0.517   2.264  0.00  0.00    +0.023 C 
ENDBRANCH  11  12
BRANCH  11  14
ATOM     14  C   UNL     1       2.438   0.376  -1.193  0.00  0.00    +0.092 C 
ATOM     15  C   UNL     1       2.768  -0.786  -2.114  0.00  0.00    +0.023 C 
ENDBRANCH  11  14
ENDBRANCH   5  11
TORSDOF 3
