REMARK  Name = 66348
REMARK  0 active torsions:
REMARK  status: ('A' for Active; 'I' for Inactive)
REMARK                            x       y       z     vdW  Elec       q    Type
REMARK                         _______ _______ _______ _____ _____    ______ ____
ROOT
ATOM      1  S   UNL     1       0.024   2.316  -0.508  0.00  0.00    +0.000 S 
ATOM      2  S   UNL     1      -1.621   1.655   0.508  0.00  0.00    +0.000 S 
ATOM      3  S   UNL     1       1.655   1.621   0.508  0.00  0.00    +0.000 S 
ATOM      4  S   UNL     1      -2.316   0.024  -0.508  0.00  0.00    +0.000 S 
ATOM      5  S   UNL     1       2.316  -0.024  -0.508  0.00  0.00    +0.000 S 
ATOM      6  S   UNL     1      -1.655  -1.621   0.509  0.00  0.00    +0.000 S 
ATOM      7  S   UNL     1       1.621  -1.655   0.508  0.00  0.00    +0.000 S 
ATOM      8  S   UNL     1      -0.024  -2.316  -0.508  0.00  0.00    +0.000 S 
ENDROOT
TORSDOF 0
