REMARK  Name = 39187
REMARK  4 active torsions:
REMARK  status: ('A' for Active; 'I' for Inactive)
REMARK    1  A    between atoms: N_2  and  C_15
REMARK    2  A    between atoms: C_3  and  C_17
REMARK    3  A    between atoms: C_17  and  C_18
REMARK    4  A    between atoms: C_18  and  N_19
REMARK                            x       y       z     vdW  Elec       q    Type
REMARK                         _______ _______ _______ _____ _____    ______ ____
ROOT
ATOM      1  S   UNL     1       1.806   2.545  -0.082  0.00  0.00    -0.136 S 
ATOM      2  N   UNL     1      -0.686  -0.558   0.874  0.00  0.00    -0.330 N 
ATOM      3  C   UNL     1       1.241   1.086   0.923  0.00  0.00    +0.070 C 
ATOM      4  C   UNL     1      -0.119   0.625   0.466  0.00  0.00    +0.042 A 
ATOM      5  C   UNL     1      -1.033   1.259  -0.361  0.00  0.00    -0.007 A 
ATOM      6  C   UNL     1      -0.809   2.582  -1.012  0.00  0.00    +0.039 C 
ATOM      7  C   UNL     1      -2.178   0.412  -0.470  0.00  0.00    +0.013 A 
ATOM      8  C   UNL     1      -1.932  -0.716   0.314  0.00  0.00    +0.059 A 
ATOM      9  C   UNL     1       0.222   3.434  -0.273  0.00  0.00    +0.063 C 
ATOM     10  C   UNL     1       1.196   1.510   2.398  0.00  0.00    +0.017 C 
ATOM     11  C   UNL     1      -3.404   0.497  -1.162  0.00  0.00    +0.001 C 
ATOM     12  C   UNL     1      -2.851  -1.764   0.443  0.00  0.00    +0.017 C 
ATOM     13  C   UNL     1      -4.333  -0.543  -1.043  0.00  0.00    +0.000 C 
ATOM     14  C   UNL     1      -4.058  -1.655  -0.252  0.00  0.00    +0.001 C 
ENDROOT
BRANCH   2  15
ATOM     15  C   UNL     1      -0.130  -1.511   1.813  0.00  0.00    +0.106 C 
ATOM     16  C   UNL     1       0.661  -2.607   1.119  0.00  0.00    +0.026 C 
ENDBRANCH   2  15
BRANCH   3  17
ATOM     17  C   UNL     1       2.298  -0.010   0.723  0.00  0.00    -0.007 C 
BRANCH  17  18
ATOM     18  C   UNL     1       2.433  -0.365  -0.750  0.00  0.00    -0.076 C 
BRANCH  18  19
ATOM     19  N   UNL     1       3.429  -1.417  -0.912  0.00  0.00    +0.384 N 
ATOM     20  C   UNL     1       4.739  -0.964  -0.444  0.00  0.00    -0.101 C 
ATOM     21  C   UNL     1       3.508  -1.840  -2.312  0.00  0.00    -0.101 C 
ATOM     22  H   UNL     1       3.141  -2.217  -0.348  0.00  0.00    -0.080 HD
ENDBRANCH  18  19
ENDBRANCH  17  18
ENDBRANCH   3  17
TORSDOF 4
