REMARK  Name = 60728
REMARK  8 active torsions:
REMARK  status: ('A' for Active; 'I' for Inactive)
REMARK    1  A    between atoms: N_1  and  C_26
REMARK    2  A    between atoms: C_2  and  C_8
REMARK    3  A    between atoms: C_2  and  N_15
REMARK    4  A    between atoms: N_15  and  C_18
REMARK    5  A    between atoms: C_16  and  C_24
REMARK    6  A    between atoms: C_26  and  C_27
REMARK    7  A    between atoms: C_27  and  N_29
REMARK    8  A    between atoms: N_31  and  C_34
REMARK                            x       y       z     vdW  Elec       q    Type
REMARK                         _______ _______ _______ _____ _____    ______ ____
ROOT
ATOM      1  N   UNL     1      -1.267  -0.619   0.144  0.00  0.00    +0.388 N 
ATOM      2  C   UNL     1       1.550   0.364  -0.038  0.00  0.00    +0.079 C 
ATOM      3  C   UNL     1       1.030  -0.614   1.051  0.00  0.00    -0.000 C 
ATOM      4  C   UNL     1       0.617   0.159  -1.264  0.00  0.00    -0.000 C 
ATOM      5  C   UNL     1      -0.460  -0.419   1.353  0.00  0.00    -0.075 C 
ATOM      6  C   UNL     1      -0.872   0.307  -0.923  0.00  0.00    -0.075 C 
ATOM      7  H   UNL     1      -1.097  -1.568  -0.189  0.00  0.00    -0.080 HD
ENDROOT
BRANCH   2   8
ATOM      8  C   UNL     1       1.645   1.816   0.470  0.00  0.00    -0.006 C 
ATOM      9  C   UNL     1       1.474   2.878  -0.417  0.00  0.00    -0.003 C 
ATOM     10  C   UNL     1       1.904   2.067   1.818  0.00  0.00    -0.003 C 
ATOM     11  C   UNL     1       1.560   4.192   0.043  0.00  0.00    -0.000 C 
ATOM     12  C   UNL     1       1.990   3.381   2.278  0.00  0.00    -0.000 C 
ATOM     13  C   UNL     1       1.818   4.443   1.391  0.00  0.00    -0.000 C 
ENDBRANCH   2   8
BRANCH   2  15
ATOM     14  O   UNL     1       3.282   1.588  -2.089  0.00  0.00    -0.275 OA
ATOM     15  N   UNL     1       2.896  -0.053  -0.426  0.00  0.00    -0.256 N 
ATOM     16  C   UNL     1       3.654   0.610  -1.435  0.00  0.00    +0.230 C 
BRANCH  15  18
ATOM     17  F   UNL     1       2.590  -2.682  -1.372  0.00  0.00    -0.203 F 
ATOM     18  C   UNL     1       3.492  -1.201   0.252  0.00  0.00    +0.082 C 
ATOM     19  C   UNL     1       3.311  -2.486  -0.258  0.00  0.00    +0.154 C 
ATOM     20  C   UNL     1       4.245  -1.010   1.411  0.00  0.00    +0.017 C 
ATOM     21  C   UNL     1       3.882  -3.581   0.390  0.00  0.00    +0.031 C 
ATOM     22  C   UNL     1       4.816  -2.105   2.059  0.00  0.00    +0.001 C 
ATOM     23  C   UNL     1       4.635  -3.390   1.549  0.00  0.00    +0.002 C 
ENDBRANCH  15  18
BRANCH  16  24
ATOM     24  C   UNL     1       5.019  -0.006  -1.728  0.00  0.00    +0.086 C 
ATOM     25  C   UNL     1       5.789   0.749  -2.801  0.00  0.00    +0.010 C 
ENDBRANCH  16  24
ENDBRANCH   2  15
BRANCH   1  26
ATOM     26  C   UNL     1      -2.691  -0.479   0.447  0.00  0.00    -0.050 C 
BRANCH  26  27
ATOM     27  C   UNL     1      -3.528  -1.183  -0.611  0.00  0.00    +0.111 C 
BRANCH  27  29
ATOM     28  O   UNL     1      -5.494   0.908  -1.437  0.00  0.00    -0.243 OA
ATOM     29  N   UNL     1      -4.931  -1.082  -0.317  0.00  0.00    -0.184 N 
ATOM     30  N   UNL     1      -5.646  -1.975   0.432  0.00  0.00    -0.042 NA
ATOM     31  N   UNL     1      -6.990  -0.426  -0.208  0.00  0.00    -0.182 N 
ATOM     32  N   UNL     1      -6.854  -1.590   0.496  0.00  0.00    -0.042 NA
ATOM     33  C   UNL     1      -5.767  -0.064  -0.750  0.00  0.00    +0.365 A 
BRANCH  31  34
ATOM     34  C   UNL     1      -8.254   0.251  -0.316  0.00  0.00    +0.134 C 
ATOM     35  C   UNL     1      -8.445   1.251   0.806  0.00  0.00    +0.029 C 
ENDBRANCH  31  34
ENDBRANCH  27  29
ENDBRANCH  26  27
ENDBRANCH   1  26
TORSDOF 8
