REMARK  Name = 5282138
REMARK  12 active torsions:
REMARK  status: ('A' for Active; 'I' for Inactive)
REMARK    1  A    between atoms: C_2  and  C_10
REMARK    2  A    between atoms: C_3  and  C_20
REMARK    3  A    between atoms: C_4  and  C_27
REMARK    4  A    between atoms: C_13  and  N_18
REMARK    5  A    between atoms: C_20  and  O_21
REMARK    6  A    between atoms: O_21  and  C_22
REMARK    7  A    between atoms: C_22  and  C_23
REMARK    8  A    between atoms: C_23  and  O_24
REMARK    9  A    between atoms: C_27  and  O_28
REMARK   10  A    between atoms: O_28  and  C_29
REMARK   11  A    between atoms: C_29  and  C_30
REMARK   12  A    between atoms: C_31  and  C_32
REMARK                            x       y       z     vdW  Elec       q    Type
REMARK                         _______ _______ _______ _____ _____    ______ ____
ROOT
ATOM      1  N   UNL     1       3.831   2.536  -0.525  0.00  0.00    -0.334 N 
ATOM      2  C   UNL     1       1.756   1.009   0.655  0.00  0.00    +0.011 C 
ATOM      3  C   UNL     1       3.221   0.559   0.626  0.00  0.00    +0.071 C 
ATOM      4  C   UNL     1       1.559   2.435   0.130  0.00  0.00    +0.085 C 
ATOM      5  C   UNL     1       4.175   1.317   0.038  0.00  0.00    +0.098 C 
ATOM      6  C   UNL     1       2.574   3.114  -0.451  0.00  0.00    +0.028 C 
ATOM      7  C   UNL     1       5.630   0.951  -0.079  0.00  0.00    +0.026 C 
ATOM      8  C   UNL     1       2.474   4.493  -1.044  0.00  0.00    +0.047 C 
ATOM      9  H   UNL     1       4.531   3.027  -1.013  0.00  0.00    +0.147 HD
ENDROOT
BRANCH   2  10
ATOM     10  C   UNL     1       0.911   0.051  -0.134  0.00  0.00    +0.002 C 
ATOM     11  C   UNL     1      -0.093  -0.667   0.505  0.00  0.00    +0.024 C 
ATOM     12  C   UNL     1       1.139  -0.106  -1.496  0.00  0.00    +0.000 C 
ATOM     13  C   UNL     1      -0.879  -1.556  -0.228  0.00  0.00    +0.143 C 
ATOM     14  C   UNL     1       0.354  -0.994  -2.229  0.00  0.00    +0.002 C 
ATOM     15  C   UNL     1      -0.655  -1.720  -1.595  0.00  0.00    +0.024 C 
BRANCH  13  18
ATOM     16  O   UNL     1      -2.603  -3.087  -0.263  0.00  0.00    -0.126 OA
ATOM     17  O   UNL     1      -2.091  -2.133   1.647  0.00  0.00    -0.126 OA
ATOM     18  N   UNL     1      -1.907  -2.294   0.416  0.00  0.00    +0.058 N 
ENDBRANCH  13  18
ENDBRANCH   2  10
BRANCH   3  20
ATOM     19  O   UNL     1       3.810  -0.755   2.509  0.00  0.00    -0.245 OA
ATOM     20  C   UNL     1       3.539  -0.697   1.323  0.00  0.00    +0.339 C 
BRANCH  20  21
ATOM     21  O   UNL     1       3.470  -1.713   0.429  0.00  0.00    -0.443 OA
BRANCH  21  22
ATOM     22  C   UNL     1       3.755  -3.010   0.961  0.00  0.00    +0.241 C 
BRANCH  22  23
ATOM     23  C   UNL     1       3.639  -4.037  -0.150  0.00  0.00    +0.190 C 
BRANCH  23  24
ATOM     24  O   UNL     1       2.311  -4.022  -0.659  0.00  0.00    -0.347 OA
ATOM     25  C   UNL     1       2.150  -4.952  -1.722  0.00  0.00    +0.174 C 
ENDBRANCH  23  24
ENDBRANCH  22  23
ENDBRANCH  21  22
ENDBRANCH  20  21
ENDBRANCH   3  20
BRANCH   4  27
ATOM     26  O   UNL     1      -0.078   3.647   1.342  0.00  0.00    -0.245 OA
ATOM     27  C   UNL     1       0.231   3.035   0.336  0.00  0.00    +0.342 C 
BRANCH  27  28
ATOM     28  O   UNL     1      -0.528   2.781  -0.757  0.00  0.00    -0.440 OA
BRANCH  28  29
ATOM     29  C   UNL     1      -1.859   3.305  -0.708  0.00  0.00    +0.235 C 
BRANCH  29  30
ATOM     30  C   UNL     1      -2.757   2.278  -0.098  0.00  0.00    +0.021 C 
ATOM     31  C   UNL     1      -3.799   1.733  -0.745  0.00  0.00    -0.001 C 
BRANCH  31  32
ATOM     32  C   UNL     1      -4.701   0.709  -0.191  0.00  0.00    -0.000 C 
ATOM     33  C   UNL     1      -4.777   0.541   1.183  0.00  0.00    -0.000 C 
ATOM     34  C   UNL     1      -5.458  -0.068  -1.054  0.00  0.00    -0.000 C 
ATOM     35  C   UNL     1      -5.631  -0.429   1.707  0.00  0.00    -0.000 C 
ATOM     36  C   UNL     1      -6.313  -1.038  -0.529  0.00  0.00    -0.000 C 
ATOM     37  C   UNL     1      -6.399  -1.218   0.851  0.00  0.00    -0.000 C 
ENDBRANCH  31  32
ENDBRANCH  29  30
ENDBRANCH  28  29
ENDBRANCH  27  28
ENDBRANCH   4  27
TORSDOF 12
