REMARK  Name = 10391
REMARK  4 active torsions:
REMARK  status: ('A' for Active; 'I' for Inactive)
REMARK    1  A    between atoms: N_2  and  C_5
REMARK    2  A    between atoms: C_3  and  C_12
REMARK    3  A    between atoms: C_5  and  C_6
REMARK    4  A    between atoms: C_12  and  C_14
REMARK                            x       y       z     vdW  Elec       q    Type
REMARK                         _______ _______ _______ _____ _____    ______ ____
ROOT
ATOM      1  O   UNL     1       1.585   0.180  -1.508  0.00  0.00    -0.275 OA
ATOM      2  N   UNL     1       0.737  -1.256   0.106  0.00  0.00    -0.300 N 
ATOM      3  C   UNL     1       1.687  -0.398  -0.430  0.00  0.00    +0.224 C 
ATOM      4  H   UNL     1       0.913  -1.672   0.981  0.00  0.00    +0.150 HD
ENDROOT
BRANCH   2   5
ATOM      5  C   UNL     1      -0.500  -1.560  -0.573  0.00  0.00    +0.116 C 
BRANCH   5   6
ATOM      6  C   UNL     1      -1.595  -0.602  -0.203  0.00  0.00    -0.003 C 
ATOM      7  C   UNL     1      -2.420  -0.886   0.879  0.00  0.00    -0.003 C 
ATOM      8  C   UNL     1      -1.773   0.559  -0.945  0.00  0.00    -0.003 C 
ATOM      9  C   UNL     1      -3.438   0.004   1.224  0.00  0.00    -0.000 C 
ATOM     10  C   UNL     1      -2.791   1.449  -0.601  0.00  0.00    -0.000 C 
ATOM     11  C   UNL     1      -3.623   1.171   0.483  0.00  0.00    -0.000 C 
ENDBRANCH   5   6
ENDBRANCH   2   5
BRANCH   3  12
ATOM     12  C   UNL     1       2.880  -0.233   0.498  0.00  0.00    +0.103 C 
BRANCH  12  14
ATOM     13 CL   UNL     1       5.299   0.873   1.112  0.00  0.00    -0.113 Cl
ATOM     14  C   UNL     1       3.954   0.699  -0.043  0.00  0.00    +0.104 C 
ENDBRANCH  12  14
ENDBRANCH   3  12
TORSDOF 4
