REMARK  Name = 60657
REMARK  12 active torsions:
REMARK  status: ('A' for Active; 'I' for Inactive)
REMARK    1  A    between atoms: C_1  and  C_19
REMARK    2  A    between atoms: C_4  and  O_7
REMARK    3  A    between atoms: O_7  and  C_8
REMARK    4  A    between atoms: C_8  and  C_9
REMARK    5  A    between atoms: C_9  and  O_10
REMARK    6  A    between atoms: C_9  and  C_12
REMARK    7  A    between atoms: C_12  and  N_13
REMARK    8  A    between atoms: N_13  and  C_16
REMARK    9  A    between atoms: C_19  and  C_20
REMARK   10  A    between atoms: C_20  and  O_21
REMARK   11  A    between atoms: O_21  and  C_22
REMARK   12  A    between atoms: C_22  and  C_23
REMARK                            x       y       z     vdW  Elec       q    Type
REMARK                         _______ _______ _______ _____ _____    ______ ____
ROOT
ATOM      1  C   UNL     1       1.721  -2.303   0.063  0.00  0.00    -0.019 C 
ATOM      2  C   UNL     1       0.852  -2.657  -0.969  0.00  0.00    -0.001 C 
ATOM      3  C   UNL     1       1.221  -1.714   1.224  0.00  0.00    -0.001 C 
ATOM      4  C   UNL     1      -1.008  -1.833   0.320  0.00  0.00    +0.139 C 
ATOM      5  C   UNL     1      -0.517  -2.422  -0.840  0.00  0.00    +0.037 C 
ATOM      6  C   UNL     1      -0.148  -1.478   1.353  0.00  0.00    +0.037 C 
ENDROOT
BRANCH   4   7
ATOM      7  O   UNL     1      -2.352  -1.601   0.447  0.00  0.00    -0.473 OA
BRANCH   7   8
ATOM      8  C   UNL     1      -3.074  -1.347  -0.754  0.00  0.00    +0.232 C 
BRANCH   8   9
ATOM      9  C   UNL     1      -4.260  -0.440  -0.434  0.00  0.00    +0.133 C 
BRANCH   9  10
ATOM     10  O   UNL     1      -5.120  -1.118   0.486  0.00  0.00    -0.383 OA
ATOM     11  H   UNL     1      -5.879  -0.552   0.697  0.00  0.00    +0.210 HD
ENDBRANCH   9  10
BRANCH   9  12
ATOM     12  C   UNL     1      -3.850   0.895   0.191  0.00  0.00    -0.048 C 
BRANCH  12  13
ATOM     13  N   UNL     1      -3.018   1.687  -0.706  0.00  0.00    +0.387 N 
ATOM     14  H   UNL     1      -3.523   1.842  -1.578  0.00  0.00    -0.084 HD
ATOM     15  H   UNL     1      -2.152   1.178  -0.880  0.00  0.00    -0.084 HD
BRANCH  13  16
ATOM     16  C   UNL     1      -2.689   2.975  -0.110  0.00  0.00    -0.062 C 
ATOM     17  C   UNL     1      -1.994   2.752   1.230  0.00  0.00    -0.023 C 
ATOM     18  C   UNL     1      -1.809   3.786  -1.056  0.00  0.00    -0.023 C 
ENDBRANCH  13  16
ENDBRANCH  12  13
ENDBRANCH   9  12
ENDBRANCH   8   9
ENDBRANCH   7   8
ENDBRANCH   4   7
BRANCH   1  19
ATOM     19  C   UNL     1       3.184  -2.556  -0.075  0.00  0.00    +0.058 C 
BRANCH  19  20
ATOM     20  C   UNL     1       3.937  -1.382  -0.708  0.00  0.00    +0.147 C 
BRANCH  20  21
ATOM     21  O   UNL     1       3.746  -0.214   0.080  0.00  0.00    -0.353 OA
BRANCH  21  22
ATOM     22  C   UNL     1       4.428   0.904  -0.471  0.00  0.00    +0.142 C 
BRANCH  22  23
ATOM     23  C   UNL     1       4.199   2.100   0.388  0.00  0.00    +0.030 C 
ATOM     24  C   UNL     1       3.754   3.379  -0.252  0.00  0.00    +0.003 C 
ATOM     25  C   UNL     1       2.799   2.588   0.594  0.00  0.00    +0.003 C 
ENDBRANCH  22  23
ENDBRANCH  21  22
ENDBRANCH  20  21
ENDBRANCH  19  20
ENDBRANCH   1  19
TORSDOF 12
