REMARK  Name = 10235
REMARK  0 active torsions:
REMARK  status: ('A' for Active; 'I' for Inactive)
REMARK                            x       y       z     vdW  Elec       q    Type
REMARK                         _______ _______ _______ _____ _____    ______ ____
ROOT
ATOM      1  O   UNL     1      -2.285  -2.087   0.279  0.00  0.00    -0.270 OA
ATOM      2  N   UNL     1      -0.608  -0.514  -0.163  0.00  0.00    -0.259 N 
ATOM      3  N   UNL     1       2.033   0.188   1.502  0.00  0.00    +0.384 N 
ATOM      4  C   UNL     1       1.834  -1.148  -0.611  0.00  0.00    -0.001 C 
ATOM      5  C   UNL     1       1.172   1.211  -0.610  0.00  0.00    +0.015 C 
ATOM      6  C   UNL     1       1.857   0.129  -1.441  0.00  0.00    +0.003 C 
ATOM      7  C   UNL     1       0.374  -1.579  -0.408  0.00  0.00    +0.096 C 
ATOM      8  C   UNL     1       2.575  -0.924   0.721  0.00  0.00    -0.080 C 
ATOM      9  C   UNL     1       1.949   1.417   0.708  0.00  0.00    -0.076 C 
ATOM     10  C   UNL     1      -0.270   0.835  -0.322  0.00  0.00    +0.029 C 
ATOM     11  C   UNL     1      -1.212   1.786  -0.200  0.00  0.00    +0.011 C 
ATOM     12  C   UNL     1      -1.921  -0.919   0.141  0.00  0.00    +0.253 C 
ATOM     13  C   UNL     1      -2.569   1.439   0.114  0.00  0.00    +0.006 C 
ATOM     14  C   UNL     1      -2.930   0.166   0.291  0.00  0.00    +0.058 C 
ATOM     15  H   UNL     1       2.640   0.354   2.305  0.00  0.00    -0.085 HD
ATOM     16  H   UNL     1       1.091  -0.063   1.801  0.00  0.00    -0.085 HD
ENDROOT
TORSDOF 0
