REMARK  Name = 5205
REMARK  0 active torsions:
REMARK  status: ('A' for Active; 'I' for Inactive)
REMARK                            x       y       z     vdW  Elec       q    Type
REMARK                         _______ _______ _______ _____ _____    ______ ____
ROOT
ATOM      1  N   UNL     1       3.299  -1.044   0.511  0.00  0.00    +0.388 N 
ATOM      2  C   UNL     1       0.515  -1.127  -0.097  0.00  0.00    -0.031 C 
ATOM      3  C   UNL     1       1.140   0.077  -0.114  0.00  0.00    -0.048 C 
ATOM      4  C   UNL     1       1.333  -2.408  -0.017  0.00  0.00    +0.003 C 
ATOM      5  C   UNL     1       2.659   0.163  -0.035  0.00  0.00    -0.050 C 
ATOM      6  C   UNL     1       2.839  -2.219  -0.226  0.00  0.00    -0.072 C 
ATOM      7  C   UNL     1      -0.967  -1.308  -0.122  0.00  0.00    -0.008 C 
ATOM      8  C   UNL     1       0.444   1.394  -0.170  0.00  0.00    -0.010 C 
ATOM      9  C   UNL     1      -1.820  -0.525   0.687  0.00  0.00    -0.018 C 
ATOM     10  C   UNL     1      -0.678   1.671   0.642  0.00  0.00    -0.018 C 
ATOM     11  C   UNL     1      -1.270   0.602   1.528  0.00  0.00    +0.053 C 
ATOM     12  C   UNL     1       4.755  -0.927   0.452  0.00  0.00    -0.100 C 
ATOM     13  C   UNL     1      -1.550  -2.294  -0.938  0.00  0.00    -0.001 C 
ATOM     14  C   UNL     1       0.931   2.412  -1.009  0.00  0.00    -0.001 C 
ATOM     15  C   UNL     1      -3.207  -0.753   0.676  0.00  0.00    -0.004 C 
ATOM     16  C   UNL     1      -1.280   2.939   0.595  0.00  0.00    -0.004 C 
ATOM     17  C   UNL     1      -2.930  -2.510  -0.942  0.00  0.00    -0.000 C 
ATOM     18  C   UNL     1       0.323   3.668  -1.046  0.00  0.00    -0.000 C 
ATOM     19  C   UNL     1      -3.757  -1.744  -0.131  0.00  0.00    -0.000 C 
ATOM     20  C   UNL     1      -0.780   3.933  -0.243  0.00  0.00    -0.000 C 
ATOM     21  H   UNL     1       3.035  -1.146   1.491  0.00  0.00    -0.079 HD
ENDROOT
TORSDOF 0
