9823820
  -OEChem-08231918343D

 49 52  0     0  0  0  0  0  0999 V2000
   -2.0471    0.9213   -2.4341 Cl  0  0  0  0  0  0  0  0  0  0  0  0
   -5.7296    0.0770    1.3676 O   0  0  0  0  0  0  0  0  0  0  0  0
    0.7053   -0.6121    1.5420 O   0  0  0  0  0  0  0  0  0  0  0  0
    6.4907    0.5341   -0.9293 O   0  0  0  0  0  0  0  0  0  0  0  0
    4.6138    3.2397   -0.0123 O   0  0  0  0  0  0  0  0  0  0  0  0
   -6.6258    0.8009   -0.6345 N   0  0  0  0  0  0  0  0  0  0  0  0
   -4.3370    0.5259   -0.4745 N   0  0  0  0  0  0  0  0  0  0  0  0
    3.2238   -2.9144   -0.8142 N   0  0  0  0  0  0  0  0  0  0  0  0
    5.6047    2.3750    1.8664 N   0  0  0  0  0  0  0  0  0  0  0  0
   -7.9936    0.7972   -0.2017 C   0  0  0  0  0  0  0  0  0  0  0  0
   -8.8057   -0.4569   -0.2419 C   0  0  0  0  0  0  0  0  0  0  0  0
   -9.1070    0.6663   -1.1903 C   0  0  0  0  0  0  0  0  0  0  0  0
   -5.5670    0.4311    0.2021 C   0  0  0  0  0  0  0  0  0  0  0  0
   -3.0559    0.2462    0.0103 C   0  0  0  0  0  0  0  0  0  0  0  0
   -1.9258    0.3900   -0.7947 C   0  0  0  0  0  0  0  0  0  0  0  0
   -2.9219   -0.1866    1.3295 C   0  0  0  0  0  0  0  0  0  0  0  0
    2.7926   -0.8500    0.3520 C   0  0  0  0  0  0  0  0  0  0  0  0
   -0.5479   -0.3271    1.0307 C   0  0  0  0  0  0  0  0  0  0  0  0
    1.5509   -1.3506    0.7662 C   0  0  0  0  0  0  0  0  0  0  0  0
    3.6085   -1.6770   -0.4482 C   0  0  0  0  0  0  0  0  0  0  0  0
   -0.6618    0.1012   -0.2804 C   0  0  0  0  0  0  0  0  0  0  0  0
   -1.6580   -0.4756    1.8438 C   0  0  0  0  0  0  0  0  0  0  0  0
    3.2258    0.4363    0.7153 C   0  0  0  0  0  0  0  0  0  0  0  0
    4.4642    0.9087    0.2901 C   0  0  0  0  0  0  0  0  0  0  0  0
    5.2730    0.0996   -0.4981 C   0  0  0  0  0  0  0  0  0  0  0  0
    4.8419   -1.1793   -0.8593 C   0  0  0  0  0  0  0  0  0  0  0  0
    1.1518   -2.6251    0.3906 C   0  0  0  0  0  0  0  0  0  0  0  0
    2.0179   -3.3599   -0.3933 C   0  0  0  0  0  0  0  0  0  0  0  0
    4.8907    2.2454    0.6798 C   0  0  0  0  0  0  0  0  0  0  0  0
    6.5285    1.2186   -2.1796 C   0  0  0  0  0  0  0  0  0  0  0  0
   -8.1667    1.4730    0.6299 H   0  0  0  0  0  0  0  0  0  0  0  0
   -8.3560   -1.3534   -0.6510 H   0  0  0  0  0  0  0  0  0  0  0  0
   -9.5019   -0.6342    0.5685 H   0  0  0  0  0  0  0  0  0  0  0  0
  -10.0071    1.2437   -1.0183 H   0  0  0  0  0  0  0  0  0  0  0  0
   -8.8602    0.5216   -2.2350 H   0  0  0  0  0  0  0  0  0  0  0  0
   -6.4253    1.0937   -1.5862 H   0  0  0  0  0  0  0  0  0  0  0  0
   -4.3794    0.8371   -1.4419 H   0  0  0  0  0  0  0  0  0  0  0  0
   -3.7385   -0.3260    2.0220 H   0  0  0  0  0  0  0  0  0  0  0  0
    0.2141    0.2351   -0.9095 H   0  0  0  0  0  0  0  0  0  0  0  0
   -1.5537   -0.8127    2.8709 H   0  0  0  0  0  0  0  0  0  0  0  0
    2.5989    1.0774    1.3323 H   0  0  0  0  0  0  0  0  0  0  0  0
    5.4893   -1.8004   -1.4768 H   0  0  0  0  0  0  0  0  0  0  0  0
    0.2035   -3.0495    0.7017 H   0  0  0  0  0  0  0  0  0  0  0  0
    1.7609   -4.3637   -0.7154 H   0  0  0  0  0  0  0  0  0  0  0  0
    7.5512    1.5666   -2.3481 H   0  0  0  0  0  0  0  0  0  0  0  0
    6.2532    0.5386   -2.9920 H   0  0  0  0  0  0  0  0  0  0  0  0
    5.8611    2.0853   -2.1770 H   0  0  0  0  0  0  0  0  0  0  0  0
    5.9209    3.2836    2.1885 H   0  0  0  0  0  0  0  0  0  0  0  0
    5.8334    1.5753    2.4482 H   0  0  0  0  0  0  0  0  0  0  0  0
  1 15  1  0  0  0  0
  2 13  2  0  0  0  0
  3 18  1  0  0  0  0
  3 19  1  0  0  0  0
  4 25  1  0  0  0  0
  4 30  1  0  0  0  0
  5 29  2  0  0  0  0
  6 10  1  0  0  0  0
  6 13  1  0  0  0  0
  6 36  1  0  0  0  0
  7 13  1  0  0  0  0
  7 14  1  0  0  0  0
  7 37  1  0  0  0  0
  8 20  2  0  0  0  0
  8 28  1  0  0  0  0
  9 29  1  0  0  0  0
  9 48  1  0  0  0  0
  9 49  1  0  0  0  0
 10 11  1  0  0  0  0
 10 12  1  0  0  0  0
 10 31  1  0  0  0  0
 11 12  1  0  0  0  0
 11 32  1  0  0  0  0
 11 33  1  0  0  0  0
 12 34  1  0  0  0  0
 12 35  1  0  0  0  0
 14 15  2  0  0  0  0
 14 16  1  0  0  0  0
 15 21  1  0  0  0  0
 16 22  2  0  0  0  0
 16 38  1  0  0  0  0
 17 19  2  0  0  0  0
 17 20  1  0  0  0  0
 17 23  1  0  0  0  0
 18 21  2  0  0  0  0
 18 22  1  0  0  0  0
 19 27  1  0  0  0  0
 20 26  1  0  0  0  0
 21 39  1  0  0  0  0
 22 40  1  0  0  0  0
 23 24  2  0  0  0  0
 23 41  1  0  0  0  0
 24 25  1  0  0  0  0
 24 29  1  0  0  0  0
 25 26  2  0  0  0  0
 26 42  1  0  0  0  0
 27 28  2  0  0  0  0
 27 43  1  0  0  0  0
 28 44  1  0  0  0  0
 30 45  1  0  0  0  0
 30 46  1  0  0  0  0
 30 47  1  0  0  0  0
M  END
> <DATABASE_ID>
DB09078

> <DATABASE_NAME>
drugbank

> <ORIGINAL_SOURCE>
PUBCHEM

> <ORIGINAL_SOURCE_URL>
https://pubchem.ncbi.nlm.nih.gov/rest/pug/compound/inchikey/WOSKHXYHFSIKNG-UHFFFAOYSA-N/SDF?record_type=3d

> <SMILES>
COC1=C(C=C2C(OC3=CC=C(NC(=O)NC4CC4)C(Cl)=C3)=CC=NC2=C1)C(N)=O

> <INCHI_IDENTIFIER>
InChI=1S/C21H19ClN4O4/c1-29-19-10-17-13(9-14(19)20(23)27)18(6-7-24-17)30-12-4-5-16(15(22)8-12)26-21(28)25-11-2-3-11/h4-11H,2-3H2,1H3,(H2,23,27)(H2,25,26,28)

> <INCHI_KEY>
WOSKHXYHFSIKNG-UHFFFAOYSA-N

> <FORMULA>
C21H19ClN4O4

> <MOLECULAR_WEIGHT>
426.86

> <EXACT_MASS>
426.1094828

> <JCHEM_ACCEPTOR_COUNT>
4

> <JCHEM_ATOM_COUNT>
49

> <JCHEM_AVERAGE_POLARIZABILITY>
42.28654041441733

> <JCHEM_BIOAVAILABILITY>
1

> <JCHEM_DONOR_COUNT>
3

> <JCHEM_FORMAL_CHARGE>
0

> <JCHEM_GHOSE_FILTER>
1

> <JCHEM_IUPAC>
4-{3-chloro-4-[(cyclopropylcarbamoyl)amino]phenoxy}-7-methoxyquinoline-6-carboxamide

> <ALOGPS_LOGP>
3.03

> <JCHEM_LOGP>
2.5216067953333337

> <ALOGPS_LOGS>
-4.84

> <JCHEM_MDDR_LIKE_RULE>
1

> <JCHEM_NUMBER_OF_RINGS>
4

> <JCHEM_PHYSIOLOGICAL_CHARGE>
0

> <JCHEM_PKA>
13.421803046437034

> <JCHEM_PKA_STRONGEST_ACIDIC>
12.369414766369108

> <JCHEM_PKA_STRONGEST_BASIC>
5.404318590638682

> <JCHEM_POLAR_SURFACE_AREA>
115.57000000000002

> <JCHEM_REFRACTIVITY>
112.2141

> <JCHEM_ROTATABLE_BOND_COUNT>
6

> <JCHEM_RULE_OF_FIVE>
1

> <ALOGPS_SOLUBILITY>
6.22e-03 g/l

> <JCHEM_TRADITIONAL_IUPAC>
lenvatinib

> <JCHEM_VEBER_RULE>
0

> <DRUGBANK_ID>
DB09078

> <DRUG_GROUPS>
approved; investigational

> <GENERIC_NAME>
Lenvatinib

> <SYNONYMS>
4-{3-chloro-4-[(cyclopropylcarbamoyl)amino]phenoxy}-7-methoxyquinoline-6-carboxamide; Lenvatinib

> <PRODUCTS>
Lenvima

> <SALTS>
Lenvatinib mesylate

$$$$
