REMARK  Name = 72106
REMARK  7 active torsions:
REMARK  status: ('A' for Active; 'I' for Inactive)
REMARK    1  A    between atoms: C_2  and  C_8
REMARK    2  A    between atoms: C_8  and  O_9
REMARK    3  A    between atoms: O_9  and  C_10
REMARK    4  A    between atoms: C_10  and  C_11
REMARK    5  A    between atoms: C_11  and  N_13
REMARK    6  A    between atoms: N_19  and  C_21
REMARK    7  A    between atoms: C_23  and  C_30
REMARK                            x       y       z     vdW  Elec       q    Type
REMARK                         _______ _______ _______ _____ _____    ______ ____
ROOT
ATOM      1  N   UNL     1       2.021  -2.138  -0.966  0.00  0.00    -0.229 NA
ATOM      2  C   UNL     1      -0.131  -1.521  -0.119  0.00  0.00    +0.107 C 
ATOM      3  C   UNL     1       1.106  -1.206  -0.619  0.00  0.00    +0.138 C 
ATOM      4  C   UNL     1      -0.488  -2.840   0.049  0.00  0.00    +0.011 C 
ATOM      5  C   UNL     1       0.427  -3.829  -0.296  0.00  0.00    +0.021 C 
ATOM      6  C   UNL     1       1.657  -3.429  -0.794  0.00  0.00    +0.100 C 
ATOM      7  N   UNL     1       1.458   0.157  -0.786  0.00  0.00    -0.298 N 
ATOM      8  H   UNL     1       0.691   0.745  -0.976  0.00  0.00    +0.154 HD
ENDROOT
BRANCH   7   9
ATOM      9  C   UNL     1       2.688   0.831  -0.733  0.00  0.00    +0.049 C 
ATOM     10  C   UNL     1       3.716   0.357   0.088  0.00  0.00    +0.018 C 
ATOM     11  C   UNL     1       4.939   1.026   0.140  0.00  0.00    +0.073 C 
ATOM     12  C   UNL     1       2.895   1.980  -1.502  0.00  0.00    +0.015 C 
ATOM     13  C   UNL     1       5.140   2.172  -0.630  0.00  0.00    +0.004 C 
ATOM     14  C   UNL     1       4.118   2.649  -1.451  0.00  0.00    +0.001 C 
BRANCH  11  18
ATOM     15  F   UNL     1       7.170   1.270   0.968  0.00  0.00    -0.166 F 
ATOM     16  F   UNL     1       5.693   0.470   2.340  0.00  0.00    -0.166 F 
ATOM     17  F   UNL     1       6.417  -0.752   0.694  0.00  0.00    -0.166 F 
ATOM     18  C   UNL     1       6.031   0.517   1.018  0.00  0.00    +0.419 C 
ENDBRANCH  11  18
ENDBRANCH   7   9
BRANCH   2  20
ATOM     19  O   UNL     1      -0.794   0.635   0.652  0.00  0.00    -0.245 OA
ATOM     20  C   UNL     1      -1.115  -0.473   0.252  0.00  0.00    +0.344 C 
BRANCH  20  21
ATOM     21  O   UNL     1      -2.388  -0.925   0.083  0.00  0.00    -0.448 OA
BRANCH  21  22
ATOM     22  C   UNL     1      -3.424  -0.007   0.406  0.00  0.00    +0.186 C 
BRANCH  22  23
ATOM     23  C   UNL     1      -4.766  -0.677   0.157  0.00  0.00    -0.029 C 
BRANCH  23  25
ATOM     24  O   UNL     1      -8.234   1.667  -0.148  0.00  0.00    -0.358 OA
ATOM     25  N   UNL     1      -5.865   0.226   0.494  0.00  0.00    +0.393 N 
ATOM     26  C   UNL     1      -7.160  -0.452   0.350  0.00  0.00    -0.044 C 
ATOM     27  C   UNL     1      -5.829   1.428  -0.350  0.00  0.00    -0.044 C 
ATOM     28  C   UNL     1      -8.291   0.514   0.694  0.00  0.00    +0.119 C 
ATOM     29  C   UNL     1      -6.990   2.350   0.011  0.00  0.00    +0.119 C 
ATOM     30  H   UNL     1      -5.751   0.508   1.467  0.00  0.00    -0.079 HD
ENDBRANCH  23  25
ENDBRANCH  22  23
ENDBRANCH  21  22
ENDBRANCH  20  21
ENDBRANCH   2  20
TORSDOF 7
