REMARK  Name = 11949646
REMARK  10 active torsions:
REMARK  status: ('A' for Active; 'I' for Inactive)
REMARK    1  A    between atoms: C_2  and  C_12
REMARK    2  A    between atoms: C_5  and  C_23
REMARK    3  A    between atoms: C_9  and  O_14
REMARK    4  A    between atoms: C_10  and  O_16
REMARK    5  A    between atoms: C_11  and  O_18
REMARK    6  A    between atoms: C_13  and  C_20
REMARK    7  A    between atoms: C_20  and  O_21
REMARK    8  A    between atoms: C_23  and  C_24
REMARK    9  A    between atoms: C_25  and  O_30
REMARK   10  A    between atoms: O_30  and  C_32
REMARK                            x       y       z     vdW  Elec       q    Type
REMARK                         _______ _______ _______ _____ _____    ______ ____
ROOT
ATOM      1 CL   UNL     1      -0.742   4.351   0.815  0.00  0.00    -0.083 Cl
ATOM      2  C   UNL     1       2.351   1.064   0.829  0.00  0.00    +0.007 C 
ATOM      3  C   UNL     1       1.465   1.167  -0.243  0.00  0.00    -0.005 C 
ATOM      4  C   UNL     1       2.279   1.970   1.885  0.00  0.00    -0.001 C 
ATOM      5  C   UNL     1       0.505   2.179  -0.257  0.00  0.00    -0.007 C 
ATOM      6  C   UNL     1       1.319   2.982   1.871  0.00  0.00    +0.011 C 
ATOM      7  C   UNL     1       0.432   3.087   0.800  0.00  0.00    +0.054 C 
ENDROOT
BRANCH   2  12
ATOM      8  O   UNL     1       4.266   0.177  -0.271  0.00  0.00    -0.347 OA
ATOM      9  C   UNL     1       3.829  -2.517   0.637  0.00  0.00    +0.169 C 
ATOM     10  C   UNL     1       2.758  -1.433   0.782  0.00  0.00    +0.171 C 
ATOM     11  C   UNL     1       4.820  -2.174  -0.475  0.00  0.00    +0.169 C 
ATOM     12  C   UNL     1       3.394  -0.036   0.845  0.00  0.00    +0.167 C 
ATOM     13  C   UNL     1       5.352  -0.750  -0.308  0.00  0.00    +0.174 C 
BRANCH   9  14
ATOM     14  O   UNL     1       3.206  -3.759   0.305  0.00  0.00    -0.379 OA
ATOM     15  H   UNL     1       2.571  -3.997   0.998  0.00  0.00    +0.211 HD
ENDBRANCH   9  14
BRANCH  10  16
ATOM     16  O   UNL     1       2.030  -1.657   1.989  0.00  0.00    -0.379 OA
ATOM     17  H   UNL     1       1.623  -2.537   1.962  0.00  0.00    +0.211 HD
ENDBRANCH  10  16
BRANCH  11  18
ATOM     18  O   UNL     1       5.911  -3.091  -0.433  0.00  0.00    -0.379 OA
ATOM     19  H   UNL     1       5.577  -3.996  -0.538  0.00  0.00    +0.211 HD
ENDBRANCH  11  18
BRANCH  13  20
ATOM     20  C   UNL     1       6.259  -0.346  -1.466  0.00  0.00    +0.169 C 
BRANCH  20  21
ATOM     21  O   UNL     1       6.703   0.982  -1.250  0.00  0.00    -0.379 OA
ATOM     22  H   UNL     1       7.281   1.252  -1.980  0.00  0.00    +0.211 HD
ENDBRANCH  20  21
ENDBRANCH  13  20
ENDBRANCH   2  12
BRANCH   5  23
ATOM     23  C   UNL     1      -0.427   2.257  -1.423  0.00  0.00    +0.053 C 
BRANCH  23  24
ATOM     24  C   UNL     1      -1.698   1.454  -1.245  0.00  0.00    -0.018 C 
ATOM     25  C   UNL     1      -4.021  -0.014  -0.917  0.00  0.00    +0.138 C 
ATOM     26  C   UNL     1      -2.803   2.058  -0.671  0.00  0.00    -0.001 C 
ATOM     27  C   UNL     1      -1.726   0.134  -1.659  0.00  0.00    -0.001 C 
ATOM     28  C   UNL     1      -3.974   1.318  -0.506  0.00  0.00    +0.037 C 
ATOM     29  C   UNL     1      -2.897  -0.606  -1.494  0.00  0.00    +0.037 C 
BRANCH  25  30
ATOM     30  O   UNL     1      -5.164  -0.735  -0.757  0.00  0.00    -0.476 OA
BRANCH  30  32
ATOM     31  O   UNL     1      -7.079  -2.776   0.413  0.00  0.00    -0.350 OA
ATOM     32  C   UNL     1      -5.649  -0.893   0.572  0.00  0.00    +0.198 C 
ATOM     33  C   UNL     1      -7.079  -0.420   0.658  0.00  0.00    +0.078 C 
ATOM     34  C   UNL     1      -5.779  -2.371   0.877  0.00  0.00    +0.185 C 
ATOM     35  C   UNL     1      -7.840  -1.604   0.096  0.00  0.00    +0.146 C 
ENDBRANCH  30  32
ENDBRANCH  25  30
ENDBRANCH  23  24
ENDBRANCH   5  23
TORSDOF 10
