REMARK  Name = 1004
REMARK  3 active torsions:
REMARK  status: ('A' for Active; 'I' for Inactive)
REMARK    1  A    between atoms: P_1  and  O_3
REMARK    2  A    between atoms: P_1  and  O_5
REMARK    3  A    between atoms: P_1  and  O_7
REMARK                            x       y       z     vdW  Elec       q    Type
REMARK                         _______ _______ _______ _____ _____    ______ ____
ROOT
ATOM      1  P   UNL     1       0.094   0.000  -0.007  0.00  0.00    +0.470 P 
ATOM      2  O   UNL     1       1.593  -0.071  -0.052  0.00  0.00    -0.228 OA
ENDROOT
BRANCH   1   3
ATOM      3  O   UNL     1      -0.646  -0.865  -1.153  0.00  0.00    -0.303 OA
ATOM      4  H   UNL     1      -1.607  -0.770  -1.060  0.00  0.00    +0.222 HD
ENDBRANCH   1   3
BRANCH   1   5
ATOM      5  O   UNL     1      -0.541  -0.557   1.371  0.00  0.00    -0.303 OA
ATOM      6  H   UNL     1      -1.507  -0.483   1.335  0.00  0.00    +0.222 HD
ENDBRANCH   1   5
BRANCH   1   7
ATOM      7  O   UNL     1      -0.500   1.494  -0.159  0.00  0.00    -0.303 OA
ATOM      8  H   UNL     1      -1.469   1.462  -0.121  0.00  0.00    +0.222 HD
ENDBRANCH   1   7
TORSDOF 3
