REMARK  Name = 2750
REMARK  5 active torsions:
REMARK  status: ('A' for Active; 'I' for Inactive)
REMARK    1  A    between atoms: C_1  and  O_7
REMARK    2  A    between atoms: C_4  and  C_16
REMARK    3  A    between atoms: O_7  and  C_8
REMARK    4  A    between atoms: C_8  and  C_9
REMARK    5  A    between atoms: C_16  and  C_21
REMARK                            x       y       z     vdW  Elec       q    Type
REMARK                         _______ _______ _______ _____ _____    ______ ____
ROOT
ATOM      1  C   UNL     1      -0.920  -0.643   0.015  0.00  0.00    +0.139 C 
ATOM      2  C   UNL     1      -0.179  -1.763   0.412  0.00  0.00    +0.037 C 
ATOM      3  C   UNL     1      -0.272   0.402  -0.656  0.00  0.00    +0.037 C 
ATOM      4  C   UNL     1       1.824  -0.792  -0.527  0.00  0.00    -0.021 C 
ATOM      5  C   UNL     1       1.187  -1.837   0.142  0.00  0.00    -0.001 C 
ATOM      6  C   UNL     1       1.094   0.328  -0.926  0.00  0.00    -0.001 C 
ENDROOT
BRANCH   1   7
ATOM      7  O   UNL     1      -2.242  -0.571   0.277  0.00  0.00    -0.475 OA
BRANCH   7   8
ATOM      8  C   UNL     1      -2.959   0.572  -0.136  0.00  0.00    +0.205 C 
BRANCH   8   9
ATOM      9  C   UNL     1      -4.424   0.400   0.309  0.00  0.00    +0.040 C 
ATOM     10  C   UNL     1      -5.229   1.647  -0.122  0.00  0.00    +0.004 C 
ATOM     11  C   UNL     1      -5.009  -0.862  -0.365  0.00  0.00    +0.004 C 
ATOM     12  C   UNL     1      -6.737   1.493   0.072  0.00  0.00    +0.000 C 
ATOM     13  C   UNL     1      -6.518  -1.012  -0.170  0.00  0.00    +0.000 C 
ATOM     14  C   UNL     1      -7.269   0.239  -0.612  0.00  0.00    +0.000 C 
ATOM     15  C   UNL     1      -4.438   0.250   1.843  0.00  0.00    +0.004 C 
ENDBRANCH   8   9
ENDBRANCH   7   8
ENDBRANCH   1   7
BRANCH   4  16
ATOM     16  C   UNL     1       3.285  -0.872  -0.816  0.00  0.00    +0.047 C 
BRANCH  16  21
ATOM     17  S   UNL     1       4.213   1.532   0.175  0.00  0.00    -0.048 S 
ATOM     18  O   UNL     1       5.883  -1.947   0.247  0.00  0.00    -0.274 OA
ATOM     19  O   UNL     1       6.607   2.610   0.037  0.00  0.00    -0.263 OA
ATOM     20  N   UNL     1       6.447   0.294   0.150  0.00  0.00    -0.246 N 
ATOM     21  C   UNL     1       4.133  -0.281   0.308  0.00  0.00    +0.137 C 
ATOM     22  C   UNL     1       5.564  -0.763   0.232  0.00  0.00    +0.239 C 
ATOM     23  C   UNL     1       5.961   1.575   0.111  0.00  0.00    +0.279 C 
ATOM     24  H   UNL     1       7.417   0.129   0.119  0.00  0.00    +0.158 HD
ENDBRANCH  16  21
ENDBRANCH   4  16
TORSDOF 5
