REMARK  Name = 5462501
REMARK  10 active torsions:
REMARK  status: ('A' for Active; 'I' for Inactive)
REMARK    1  A    between atoms: N_1  and  CA_4
REMARK    2  A    between atoms: N_1  and  CA_17
REMARK    3  A    between atoms: CA_4  and  C_12
REMARK    4  A    between atoms: CA_8  and  C_14
REMARK    5  A    between atoms: C_14  and  O_15
REMARK    6  A    between atoms: CA_17  and  C_19
REMARK    7  A    between atoms: CA_17  and  C_22
REMARK    8  A    between atoms: C_19  and  O_20
REMARK    9  A    between atoms: C_22  and  C_23
REMARK   10  A    between atoms: C_23  and  C_24
REMARK                            x       y       z     vdW  Elec       q    Type
REMARK                         _______ _______ _______ _____ _____    ______ ____
ROOT
ATOM      1  N   UNL     1      -0.106   1.266  -1.310  0.00  0.00    +0.399 N 
ATOM      2  H1  UNL     1       0.205   2.099  -1.810  0.00  0.00    -0.083 HD
ATOM      3  H2  UNL     1       0.017   0.434  -1.888  0.00  0.00    -0.083 HD
ENDROOT
BRANCH   1   4
ATOM      4  CA  UNL     1      -1.518   1.402  -0.992  0.00  0.00    +0.018 C 
ATOM      5  CB  UNL     1      -2.278   2.026  -2.146  0.00  0.00    -0.014 C 
BRANCH   4  12
ATOM      6  O   UNL     1      -1.560  -0.958  -1.304  0.00  0.00    -0.277 OA
ATOM      7  N   UNL     1      -3.076  -0.063   0.199  0.00  0.00    -0.273 N 
ATOM      8  CA  UNL     1      -3.587  -1.334   0.696  0.00  0.00    +0.174 C 
ATOM      9  CB  UNL     1      -4.344  -0.975   1.970  0.00  0.00    +0.033 C 
ATOM     10  CG  UNL     1      -4.819   0.452   1.710  0.00  0.00    +0.024 C 
ATOM     11  CD  UNL     1      -3.676   1.061   0.912  0.00  0.00    +0.094 C 
ATOM     12  C   UNL     1      -2.041   0.015  -0.720  0.00  0.00    +0.206 C 
BRANCH   8  14
ATOM     13  OXT UNL     1      -5.158  -1.213  -1.138  0.00  0.00    -0.248 OA
ATOM     14  C   UNL     1      -4.501  -1.885  -0.357  0.00  0.00    +0.332 C 
BRANCH  14  15
ATOM     15  O   UNL     1      -4.503  -3.240  -0.327  0.00  0.00    -0.479 OA
ATOM     16  H   UNL     1      -3.975  -3.696   0.298  0.00  0.00    +0.295 HD
ENDBRANCH  14  15
ENDBRANCH   8  14
ENDBRANCH   4  12
ENDBRANCH   1   4
BRANCH   1  17
ATOM     17  CA  UNL     1       0.691   1.111  -0.100  0.00  0.00    +0.041 C 
BRANCH  17  19
ATOM     18  OXT UNL     1       1.006   3.524  -0.186  0.00  0.00    -0.253 OA
ATOM     19  C   UNL     1       0.894   2.501   0.478  0.00  0.00    +0.293 C 
BRANCH  19  20
ATOM     20  O   UNL     1       0.912   2.502   1.835  0.00  0.00    -0.482 OA
ATOM     21  H   UNL     1       0.823   1.697   2.306  0.00  0.00    +0.295 HD
ENDBRANCH  19  20
ENDBRANCH  17  19
BRANCH  17  22
ATOM     22  C   UNL     1       2.034   0.460  -0.459  0.00  0.00    -0.006 C 
BRANCH  22  23
ATOM     23  C   UNL     1       2.966   0.220   0.740  0.00  0.00    +0.025 C 
BRANCH  23  24
ATOM     24  C   UNL     1       4.254  -0.489   0.399  0.00  0.00    -0.022 C 
ATOM     25  C   UNL     1       4.315  -1.882   0.442  0.00  0.00    -0.004 C 
ATOM     26  C   UNL     1       5.382   0.248   0.040  0.00  0.00    -0.004 C 
ATOM     27  C   UNL     1       5.505  -2.538   0.127  0.00  0.00    -0.000 C 
ATOM     28  C   UNL     1       6.572  -0.408  -0.276  0.00  0.00    -0.000 C 
ATOM     29  C   UNL     1       6.634  -1.801  -0.232  0.00  0.00    -0.000 C 
ENDBRANCH  23  24
ENDBRANCH  22  23
ENDBRANCH  17  22
ENDBRANCH   1  17
TORSDOF 10
