REMARK  Name = 23652731
REMARK  12 active torsions:
REMARK  status: ('A' for Active; 'I' for Inactive)
REMARK    1  A    between atoms: C_1  and  N_3
REMARK    2  A    between atoms: C_1  and  C_13
REMARK    3  A    between atoms: C_1  and  C_20
REMARK    4  A    between atoms: C_4  and  C_6
REMARK    5  A    between atoms: C_6  and  C_7
REMARK    6  A    between atoms: C_7  and  C_8
REMARK    7  A    between atoms: C_8  and  C_9
REMARK    8  A    between atoms: C_9  and  C_10
REMARK    9  A    between atoms: C_10  and  C_11
REMARK   10  A    between atoms: C_13  and  N_14
REMARK   11  A    between atoms: C_20  and  C_23
REMARK   12  A    between atoms: C_20  and  O_31
REMARK                            x       y       z     vdW  Elec       q    Type
REMARK                         _______ _______ _______ _____ _____    ______ ____
ROOT
ATOM      1  C   UNL     1       2.385   0.563  -0.347  0.00  0.00    +0.082 C 
ENDROOT
BRANCH   1   3
ATOM      2  O   UNL     1       0.529   2.100   1.245  0.00  0.00    -0.275 OA
ATOM      3  N   UNL     1       1.564   1.666  -0.790  0.00  0.00    -0.305 N 
ATOM      4  C   UNL     1       0.697   2.346   0.054  0.00  0.00    +0.222 C 
ATOM      5  H   UNL     1       1.621   1.947  -1.731  0.00  0.00    +0.149 HD
BRANCH   4   6
ATOM      6  C   UNL     1      -0.038   3.455  -0.678  0.00  0.00    +0.085 C 
BRANCH   6   7
ATOM      7  C   UNL     1      -1.423   3.722  -0.094  0.00  0.00    +0.010 C 
BRANCH   7   8
ATOM      8  C   UNL     1      -2.295   2.466  -0.133  0.00  0.00    +0.001 C 
BRANCH   8   9
ATOM      9  C   UNL     1      -3.672   2.725   0.484  0.00  0.00    +0.000 C 
BRANCH   9  10
ATOM     10  C   UNL     1      -4.528   1.457   0.479  0.00  0.00    +0.000 C 
BRANCH  10  11
ATOM     11  C   UNL     1      -5.909   1.655   1.107  0.00  0.00    +0.000 C 
ATOM     12  C   UNL     1      -6.737   0.381   1.169  0.00  0.00    +0.000 C 
ENDBRANCH  10  11
ENDBRANCH   9  10
ENDBRANCH   8   9
ENDBRANCH   7   8
ENDBRANCH   6   7
ENDBRANCH   4   6
ENDBRANCH   1   3
BRANCH   1  13
ATOM     13  C   UNL     1       3.868   0.947  -0.463  0.00  0.00    -0.055 C 
BRANCH  13  14
ATOM     14  N   UNL     1       4.739  -0.041   0.156  0.00  0.00    +0.388 N 
ATOM     15  C   UNL     1       4.439  -0.238   1.574  0.00  0.00    -0.077 C 
ATOM     16  C   UNL     1       6.147   0.354   0.118  0.00  0.00    -0.077 C 
ATOM     17  C   UNL     1       5.670  -0.975   2.083  0.00  0.00    -0.025 C 
ATOM     18  C   UNL     1       6.793  -0.583   1.128  0.00  0.00    -0.025 C 
ATOM     19  H   UNL     1       4.574  -0.890  -0.384  0.00  0.00    -0.080 HD
ENDBRANCH  13  14
ENDBRANCH   1  13
BRANCH   1  20
ATOM     20  C   UNL     1       2.002  -0.756  -1.063  0.00  0.00    +0.148 C 
BRANCH  20  23
ATOM     21  O   UNL     1      -1.602  -3.172   1.138  0.00  0.00    -0.468 OA
ATOM     22  O   UNL     1      -3.484  -2.103  -0.765  0.00  0.00    -0.468 OA
ATOM     23  C   UNL     1       0.555  -1.139  -0.979  0.00  0.00    +0.009 C 
ATOM     24  C   UNL     1       0.115  -1.977   0.045  0.00  0.00    +0.038 C 
ATOM     25  C   UNL     1      -0.350  -0.652  -1.923  0.00  0.00    +0.001 C 
ATOM     26  C   UNL     1      -1.233  -2.330   0.122  0.00  0.00    +0.172 C 
ATOM     27  C   UNL     1      -1.700  -0.993  -1.839  0.00  0.00    +0.040 C 
ATOM     28  C   UNL     1      -2.144  -1.820  -0.807  0.00  0.00    +0.172 C 
ATOM     29  C   UNL     1      -2.899  -3.733   0.922  0.00  0.00    +0.253 C 
ATOM     30  C   UNL     1      -3.874  -2.653   0.496  0.00  0.00    +0.253 C 
ENDBRANCH  20  23
BRANCH  20  31
ATOM     31  O   UNL     1       2.386  -0.668  -2.440  0.00  0.00    -0.378 OA
ATOM     32  H   UNL     1       3.322  -0.421  -2.499  0.00  0.00    +0.211 HD
ENDBRANCH  20  31
ENDBRANCH   1  20
TORSDOF 12
