REMARK  Name = 47528
REMARK  5 active torsions:
REMARK  status: ('A' for Active; 'I' for Inactive)
REMARK    1  A    between atoms: N_2  and  C_11
REMARK    2  A    between atoms: C_3  and  C_6
REMARK    3  A    between atoms: C_11  and  C_12
REMARK    4  A    between atoms: C_12  and  O_13
REMARK    5  A    between atoms: O_13  and  N_16
REMARK                            x       y       z     vdW  Elec       q    Type
REMARK                         _______ _______ _______ _____ _____    ______ ____
ROOT
ATOM      1  O   UNL     1      -0.661   2.083  -0.776  0.00  0.00    -0.270 OA
ATOM      2  N   UNL     1       0.263   0.789   0.912  0.00  0.00    -0.297 N 
ATOM      3  C   UNL     1      -0.742   1.105  -0.012  0.00  0.00    +0.247 C 
ATOM      4  H   UNL     1       0.135   0.001   1.487  0.00  0.00    +0.150 HD
ENDROOT
BRANCH   3   6
ATOM      5  N   UNL     1      -4.274  -0.013  -0.490  0.00  0.00    -0.242 NA
ATOM      6  C   UNL     1      -1.915   0.248  -0.030  0.00  0.00    +0.072 C 
ATOM      7  C   UNL     1      -1.839  -1.080   0.373  0.00  0.00    +0.008 C 
ATOM      8  C   UNL     1      -3.145   0.730  -0.449  0.00  0.00    +0.103 C 
ATOM      9  C   UNL     1      -2.979  -1.876   0.345  0.00  0.00    +0.021 C 
ATOM     10  C   UNL     1      -4.162  -1.300  -0.091  0.00  0.00    +0.099 C 
ENDBRANCH   3   6
BRANCH   2  11
ATOM     11  C   UNL     1       1.477   1.558   1.067  0.00  0.00    +0.141 C 
BRANCH  11  12
ATOM     12  C   UNL     1       2.581   1.046   0.159  0.00  0.00    +0.264 C 
BRANCH  12  13
ATOM     13  O   UNL     1       2.887  -0.299   0.501  0.00  0.00    -0.334 OA
BRANCH  13  16
ATOM     14  O   UNL     1       4.353  -0.087  -1.144  0.00  0.00    -0.090 OA
ATOM     15  O   UNL     1       4.241  -2.035  -0.066  0.00  0.00    -0.090 OA
ATOM     16  N   UNL     1       3.916  -0.869  -0.299  0.00  0.00    +0.218 N 
ENDBRANCH  13  16
ENDBRANCH  12  13
ENDBRANCH  11  12
ENDBRANCH   2  11
TORSDOF 5
