REMARK  Name = 4500
REMARK  7 active torsions:
REMARK  status: ('A' for Active; 'I' for Inactive)
REMARK    1  A    between atoms: C_1  and  C_2
REMARK    2  A    between atoms: C_1  and  O_8
REMARK    3  A    between atoms: C_1  and  C_17
REMARK    4  A    between atoms: O_8  and  C_9
REMARK    5  A    between atoms: C_10  and  O_15
REMARK    6  A    between atoms: C_17  and  C_18
REMARK    7  A    between atoms: C_18  and  N_19
REMARK                            x       y       z     vdW  Elec       q    Type
REMARK                         _______ _______ _______ _____ _____    ______ ____
ROOT
ATOM      1  C   UNL     1      -0.320  -0.830   0.173  0.00  0.00    +0.186 C 
ENDROOT
BRANCH   1   2
ATOM      2  C   UNL     1      -1.792  -0.535   0.001  0.00  0.00    +0.017 C 
ATOM      3  C   UNL     1      -2.303  -0.356  -1.274  0.00  0.00    -0.001 C 
ATOM      4  C   UNL     1      -2.601  -0.448   1.122  0.00  0.00    -0.001 C 
ATOM      5  C   UNL     1      -3.661  -0.082  -1.433  0.00  0.00    -0.000 C 
ATOM      6  C   UNL     1      -3.960  -0.174   0.963  0.00  0.00    -0.000 C 
ATOM      7  C   UNL     1      -4.490   0.009  -0.314  0.00  0.00    -0.000 C 
ENDBRANCH   1   2
BRANCH   1   8
ATOM      8  O   UNL     1       0.387  -0.182  -0.886  0.00  0.00    -0.472 OA
BRANCH   8   9
ATOM      9  C   UNL     1       1.282   0.765  -0.566  0.00  0.00    +0.173 C 
ATOM     10  C   UNL     1       0.901   1.922   0.136  0.00  0.00    +0.172 C 
ATOM     11  C   UNL     1       2.630   0.615  -0.932  0.00  0.00    +0.040 C 
ATOM     12  C   UNL     1       1.841   2.900   0.462  0.00  0.00    +0.040 C 
ATOM     13  C   UNL     1       3.570   1.593  -0.605  0.00  0.00    +0.003 C 
ATOM     14  C   UNL     1       3.176   2.735   0.092  0.00  0.00    +0.003 C 
BRANCH  10  15
ATOM     15  O   UNL     1      -0.400   2.095   0.502  0.00  0.00    -0.468 OA
ATOM     16  C   UNL     1      -0.739   3.272   1.206  0.00  0.00    +0.253 C 
ENDBRANCH  10  15
ENDBRANCH   8   9
ENDBRANCH   1   8
BRANCH   1  17
ATOM     17  C   UNL     1       0.020  -2.330   0.159  0.00  0.00    +0.025 C 
BRANCH  17  18
ATOM     18  C   UNL     1       1.509  -2.607   0.370  0.00  0.00    -0.078 C 
BRANCH  18  19
ATOM     19  N   UNL     1       1.765  -4.042   0.331  0.00  0.00    +0.382 N 
ATOM     20  C   UNL     1       3.184  -4.321   0.491  0.00  0.00    -0.106 C 
ATOM     21  H   UNL     1       1.450  -4.414  -0.565  0.00  0.00    -0.085 HD
ATOM     22  H   UNL     1       1.257  -4.485   1.098  0.00  0.00    -0.085 HD
ENDBRANCH  18  19
ENDBRANCH  17  18
ENDBRANCH   1  17
TORSDOF 7
