REMARK  Name = 1548942
REMARK  10 active torsions:
REMARK  status: ('A' for Active; 'I' for Inactive)
REMARK    1  A    between atoms: N_2  and  C_14
REMARK    2  A    between atoms: C_3  and  C_5
REMARK    3  A    between atoms: C_5  and  C_6
REMARK    4  A    between atoms: C_6  and  C_7
REMARK    5  A    between atoms: C_7  and  C_8
REMARK    6  A    between atoms: C_8  and  C_9
REMARK    7  A    between atoms: C_10  and  C_11
REMARK    8  A    between atoms: C_14  and  C_15
REMARK    9  A    between atoms: C_18  and  O_21
REMARK   10  A    between atoms: C_20  and  O_23
REMARK                            x       y       z     vdW  Elec       q    Type
REMARK                         _______ _______ _______ _____ _____    ______ ____
ROOT
ATOM      1  O   UNL     1      -0.991   2.093  -1.577  0.00  0.00    -0.275 OA
ATOM      2  N   UNL     1       0.913   2.603  -0.343  0.00  0.00    -0.300 N 
ATOM      3  C   UNL     1      -0.449   2.591  -0.593  0.00  0.00    +0.223 C 
ATOM      4  H   UNL     1       1.234   3.032   0.483  0.00  0.00    +0.150 HD
ENDROOT
BRANCH   3   5
ATOM      5  C   UNL     1      -1.254   3.278   0.493  0.00  0.00    +0.085 C 
BRANCH   5   6
ATOM      6  C   UNL     1      -2.654   2.686   0.648  0.00  0.00    +0.010 C 
BRANCH   6   7
ATOM      7  C   UNL     1      -2.619   1.215   1.083  0.00  0.00    +0.005 C 
BRANCH   7   8
ATOM      8  C   UNL     1      -4.011   0.616   1.311  0.00  0.00    +0.026 C 
BRANCH   8   9
ATOM      9  C   UNL     1      -3.974  -0.829   1.718  0.00  0.00    -0.031 C 
ATOM     10  C   UNL     1      -3.973  -1.849   0.845  0.00  0.00    -0.031 C 
BRANCH  10  11
ATOM     11  C   UNL     1      -4.008  -1.669  -0.651  0.00  0.00    +0.022 C 
ATOM     12  C   UNL     1      -5.265  -2.318  -1.231  0.00  0.00    +0.005 C 
ATOM     13  C   UNL     1      -2.753  -2.269  -1.284  0.00  0.00    +0.005 C 
ENDBRANCH  10  11
ENDBRANCH   8   9
ENDBRANCH   7   8
ENDBRANCH   6   7
ENDBRANCH   5   6
ENDBRANCH   3   5
BRANCH   2  14
ATOM     14  C   UNL     1       1.885   2.015  -1.236  0.00  0.00    +0.116 C 
BRANCH  14  15
ATOM     15  C   UNL     1       2.676   0.928  -0.568  0.00  0.00    +0.001 C 
ATOM     16  C   UNL     1       2.226  -0.392  -0.612  0.00  0.00    +0.037 C 
ATOM     17  C   UNL     1       3.863   1.238   0.097  0.00  0.00    +0.001 C 
ATOM     18  C   UNL     1       2.962  -1.401   0.008  0.00  0.00    +0.172 C 
ATOM     19  C   UNL     1       4.598   0.228   0.718  0.00  0.00    +0.040 C 
ATOM     20  C   UNL     1       4.148  -1.091   0.673  0.00  0.00    +0.168 C 
BRANCH  18  21
ATOM     21  O   UNL     1       2.512  -2.686  -0.042  0.00  0.00    -0.468 OA
ATOM     22  C   UNL     1       1.291  -2.918  -0.742  0.00  0.00    +0.253 C 
ENDBRANCH  18  21
BRANCH  20  23
ATOM     23  O   UNL     1       4.876  -2.068   1.283  0.00  0.00    -0.503 OA
ATOM     24  H   UNL     1       4.581  -2.957   1.258  0.00  0.00    +0.292 HD
ENDBRANCH  20  23
ENDBRANCH  14  15
ENDBRANCH   2  14
TORSDOF 10
