REMARK  Name = 11625818
REMARK  4 active torsions:
REMARK  status: ('A' for Active; 'I' for Inactive)
REMARK    1  A    between atoms: N_3  and  C_13
REMARK    2  A    between atoms: C_5  and  C_19
REMARK    3  A    between atoms: C_19  and  N_20
REMARK    4  A    between atoms: C_19  and  C_33
REMARK                            x       y       z     vdW  Elec       q    Type
REMARK                         _______ _______ _______ _____ _____    ______ ____
ROOT
ATOM      1  F   UNL     1       5.517  -0.350  -1.168  0.00  0.00    -0.204 F 
ATOM      2  O   UNL     1       3.653   1.328  -0.996  0.00  0.00    -0.269 OA
ATOM      3  N   UNL     1       1.577   0.787  -0.023  0.00  0.00    -0.211 N 
ATOM      4  N   UNL     1       1.206  -1.441   0.727  0.00  0.00    -0.393 NA
ATOM      5  C   UNL     1       0.808  -0.215   0.574  0.00  0.00    +0.187 C 
ATOM      6  C   UNL     1       2.899   0.529  -0.445  0.00  0.00    +0.262 C 
ATOM      7  C   UNL     1       3.370  -0.858  -0.248  0.00  0.00    +0.107 C 
ATOM      8  C   UNL     1       2.494  -1.790   0.307  0.00  0.00    +0.121 C 
ATOM      9  C   UNL     1       4.662  -1.234  -0.635  0.00  0.00    +0.146 C 
ATOM     10  C   UNL     1       2.925  -3.111   0.473  0.00  0.00    +0.085 C 
ATOM     11  C   UNL     1       5.080  -2.553  -0.464  0.00  0.00    +0.026 C 
ATOM     12  C   UNL     1       4.212  -3.491   0.089  0.00  0.00    -0.016 C 
ENDROOT
BRANCH   3  13
ATOM     13  C   UNL     1       1.054   2.101  -0.278  0.00  0.00    +0.060 C 
ATOM     14  C   UNL     1       0.391   2.356  -1.472  0.00  0.00    +0.015 C 
ATOM     15  C   UNL     1       1.218   3.100   0.672  0.00  0.00    +0.015 C 
ATOM     16  C   UNL     1      -0.117   3.631  -1.719  0.00  0.00    +0.001 C 
ATOM     17  C   UNL     1       0.710   4.376   0.425  0.00  0.00    +0.001 C 
ATOM     18  C   UNL     1       0.043   4.641  -0.770  0.00  0.00    +0.000 C 
ENDBRANCH   3  13
BRANCH   5  19
ATOM     19  C   UNL     1      -0.556   0.111   1.147  0.00  0.00    +0.138 C 
BRANCH  19  20
ATOM     20  N   UNL     1      -1.507  -0.714   0.449  0.00  0.00    -0.315 N 
ATOM     21  N   UNL     1      -3.374   0.733   0.859  0.00  0.00    -0.232 NA
ATOM     22  N   UNL     1      -3.603  -2.417  -1.025  0.00  0.00    -0.270 NA
ATOM     23  N   UNL     1      -5.755  -1.865  -1.200  0.00  0.00    -0.307 N 
ATOM     24  N   UNL     1      -5.615   0.219   0.043  0.00  0.00    -0.232 NA
ATOM     25  C   UNL     1      -2.853  -0.402   0.319  0.00  0.00    +0.124 C 
ATOM     26  C   UNL     1      -3.736  -1.229  -0.365  0.00  0.00    +0.164 C 
ATOM     27  C   UNL     1      -5.081  -0.907  -0.488  0.00  0.00    +0.125 C 
ATOM     28  C   UNL     1      -4.839  -2.758  -1.508  0.00  0.00    +0.163 C 
ATOM     29  C   UNL     1      -4.697   0.969   0.690  0.00  0.00    +0.252 C 
ATOM     30  H   UNL     1      -1.183  -1.548   0.039  0.00  0.00    +0.148 HD
ATOM     31  H   UNL     1      -2.772  -2.934  -1.134  0.00  0.00    +0.126 HD
ATOM     32  H   UNL     1      -6.713  -1.881  -1.431  0.00  0.00    +0.149 HD
ENDBRANCH  19  20
BRANCH  19  33
ATOM     33  C   UNL     1      -0.567  -0.180   2.641  0.00  0.00    +0.028 C 
ATOM     34  C   UNL     1       0.482   0.632   3.388  0.00  0.00    +0.002 C 
ENDBRANCH  19  33
ENDBRANCH   5  19
TORSDOF 4
