REMARK  Name = 51701
REMARK  7 active torsions:
REMARK  status: ('A' for Active; 'I' for Inactive)
REMARK    1  A    between atoms: C_2  and  C_13
REMARK    2  A    between atoms: C_3  and  C_20
REMARK    3  A    between atoms: C_4  and  C_25
REMARK    4  A    between atoms: C_20  and  O_21
REMARK    5  A    between atoms: O_21  and  C_22
REMARK    6  A    between atoms: C_25  and  O_26
REMARK    7  A    between atoms: O_26  and  C_27
REMARK                            x       y       z     vdW  Elec       q    Type
REMARK                         _______ _______ _______ _____ _____    ______ ____
ROOT
ATOM      1  N   UNL     1      -0.004  -2.350   1.881  0.00  0.00    -0.334 N 
ATOM      2  C   UNL     1       0.000  -0.634  -0.370  0.00  0.00    +0.013 C 
ATOM      3  C   UNL     1      -1.280  -1.074   0.350  0.00  0.00    +0.071 C 
ATOM      4  C   UNL     1       1.276  -1.077   0.352  0.00  0.00    +0.085 C 
ATOM      5  C   UNL     1      -1.233  -1.909   1.413  0.00  0.00    +0.098 C 
ATOM      6  C   UNL     1       1.225  -1.921   1.407  0.00  0.00    +0.028 C 
ATOM      7  C   UNL     1      -2.424  -2.436   2.166  0.00  0.00    +0.026 C 
ATOM      8  C   UNL     1       2.416  -2.459   2.153  0.00  0.00    +0.047 C 
ATOM      9  H   UNL     1      -0.006  -3.018   2.605  0.00  0.00    +0.147 HD
ENDROOT
BRANCH   2  13
ATOM     10  O   UNL     1       0.005   2.822   2.417  0.00  0.00    -0.242 OA
ATOM     11  N   UNL     1       0.003   1.566   1.833  0.00  0.00    -0.048 NA
ATOM     12  N   UNL     1       0.007   3.831   1.469  0.00  0.00    -0.048 NA
ATOM     13  C   UNL     1       0.002   0.858  -0.545  0.00  0.00    +0.023 C 
ATOM     14  C   UNL     1       0.004   1.777   0.511  0.00  0.00    +0.143 A 
ATOM     15  C   UNL     1       0.004   1.420  -1.827  0.00  0.00    +0.002 C 
ATOM     16  C   UNL     1       0.006   3.216   0.279  0.00  0.00    +0.143 A 
ATOM     17  C   UNL     1       0.006   2.822  -2.052  0.00  0.00    +0.002 C 
ATOM     18  C   UNL     1       0.008   3.771  -1.014  0.00  0.00    +0.024 C 
ENDBRANCH   2  13
BRANCH   3  20
ATOM     19  O   UNL     1      -2.990   0.566   0.262  0.00  0.00    -0.245 OA
ATOM     20  C   UNL     1      -2.542  -0.494  -0.137  0.00  0.00    +0.339 C 
BRANCH  20  21
ATOM     21  O   UNL     1      -3.069  -1.331  -1.063  0.00  0.00    -0.446 OA
BRANCH  21  22
ATOM     22  C   UNL     1      -4.308  -0.900  -1.635  0.00  0.00    +0.209 C 
ATOM     23  C   UNL     1      -4.769  -1.930  -2.645  0.00  0.00    +0.051 C 
ENDBRANCH  21  22
ENDBRANCH  20  21
ENDBRANCH   3  20
BRANCH   4  25
ATOM     24  O   UNL     1       2.996   0.551   0.276  0.00  0.00    -0.245 OA
ATOM     25  C   UNL     1       2.541  -0.502  -0.132  0.00  0.00    +0.342 C 
BRANCH  25  26
ATOM     26  O   UNL     1       3.061  -1.336  -1.065  0.00  0.00    -0.445 OA
BRANCH  26  27
ATOM     27  C   UNL     1       4.304  -0.910  -1.634  0.00  0.00    +0.209 C 
ATOM     28  C   UNL     1       4.756  -1.935  -2.652  0.00  0.00    +0.051 C 
ENDBRANCH  26  27
ENDBRANCH  25  26
ENDBRANCH   4  25
TORSDOF 7
