REMARK  Name = 11501341
REMARK  12 active torsions:
REMARK  status: ('A' for Active; 'I' for Inactive)
REMARK    1  A    between atoms: C_1  and  C_7
REMARK    2  A    between atoms: C_2  and  O_18
REMARK    3  A    between atoms: C_8  and  C_9
REMARK    4  A    between atoms: C_10  and  N_15
REMARK    5  A    between atoms: O_18  and  C_19
REMARK    6  A    between atoms: C_19  and  C_20
REMARK    7  A    between atoms: C_20  and  O_21
REMARK    8  A    between atoms: O_21  and  C_22
REMARK    9  A    between atoms: C_22  and  C_23
REMARK   10  A    between atoms: C_23  and  O_24
REMARK   11  A    between atoms: O_24  and  C_25
REMARK   12  A    between atoms: C_25  and  C_27
REMARK                            x       y       z     vdW  Elec       q    Type
REMARK                         _______ _______ _______ _____ _____    ______ ____
ROOT
ATOM      1  C   UNL     1       0.767   1.115  -0.168  0.00  0.00    +0.000 C 
ATOM      2  C   UNL     1      -1.921   1.582  -0.646  0.00  0.00    +0.139 C 
ATOM      3  C   UNL     1      -0.003   0.116  -0.740  0.00  0.00    +0.003 C 
ATOM      4  C   UNL     1       0.222   2.343   0.170  0.00  0.00    +0.003 C 
ATOM      5  C   UNL     1      -1.357   0.351  -0.981  0.00  0.00    +0.037 C 
ATOM      6  C   UNL     1      -1.132   2.578  -0.071  0.00  0.00    +0.037 C 
ENDROOT
BRANCH   1   7
ATOM      7  C   UNL     1       2.197   0.868   0.087  0.00  0.00    +0.000 C 
ATOM      8  C   UNL     1       2.943  -0.090  -0.513  0.00  0.00    +0.000 C 
BRANCH   8   9
ATOM      9  C   UNL     1       4.359  -0.323  -0.276  0.00  0.00    +0.000 C 
ATOM     10  C   UNL     1       7.075  -0.768   0.179  0.00  0.00    +0.045 C 
ATOM     11  C   UNL     1       5.117  -1.025  -1.213  0.00  0.00    +0.001 C 
ATOM     12  C   UNL     1       4.959   0.157   0.888  0.00  0.00    +0.001 C 
ATOM     13  C   UNL     1       6.475  -1.248  -0.986  0.00  0.00    +0.014 C 
ATOM     14  C   UNL     1       6.317  -0.066   1.116  0.00  0.00    +0.014 C 
BRANCH  10  15
ATOM     15  N   UNL     1       8.448  -0.994   0.409  0.00  0.00    -0.331 N 
ATOM     16  C   UNL     1       9.268  -0.093   1.159  0.00  0.00    +0.109 C 
ATOM     17  H   UNL     1       8.860  -1.806   0.037  0.00  0.00    +0.147 HD
ENDBRANCH  10  15
ENDBRANCH   8   9
ENDBRANCH   1   7
BRANCH   2  18
ATOM     18  O   UNL     1      -3.242   1.811  -0.881  0.00  0.00    -0.473 OA
BRANCH  18  19
ATOM     19  C   UNL     1      -3.912   2.712  -0.001  0.00  0.00    +0.237 C 
BRANCH  19  20
ATOM     20  C   UNL     1      -5.376   2.325   0.084  0.00  0.00    +0.189 C 
BRANCH  20  21
ATOM     21  O   UNL     1      -5.476   0.990   0.563  0.00  0.00    -0.347 OA
BRANCH  21  22
ATOM     22  C   UNL     1      -6.831   0.573   0.663  0.00  0.00    +0.174 C 
BRANCH  22  23
ATOM     23  C   UNL     1      -6.872  -0.861   1.155  0.00  0.00    +0.174 C 
BRANCH  23  24
ATOM     24  O   UNL     1      -6.195  -1.692   0.220  0.00  0.00    -0.348 OA
BRANCH  24  25
ATOM     25  C   UNL     1      -6.202  -3.052   0.631  0.00  0.00    +0.180 C 
BRANCH  25  27
ATOM     26  F   UNL     1      -4.170  -3.435  -0.454  0.00  0.00    -0.232 F 
ATOM     27  C   UNL     1      -5.457  -3.875  -0.395  0.00  0.00    +0.225 C 
ENDBRANCH  25  27
ENDBRANCH  24  25
ENDBRANCH  23  24
ENDBRANCH  22  23
ENDBRANCH  21  22
ENDBRANCH  20  21
ENDBRANCH  19  20
ENDBRANCH  18  19
ENDBRANCH   2  18
TORSDOF 12
