REMARK  Name = 28689
REMARK  4 active torsions:
REMARK  status: ('A' for Active; 'I' for Inactive)
REMARK    1  A    between atoms: C_4  and  C_13
REMARK    2  A    between atoms: C_4  and  C_21
REMARK    3  A    between atoms: C_18  and  O_19
REMARK    4  A    between atoms: C_26  and  O_27
REMARK                            x       y       z     vdW  Elec       q    Type
REMARK                         _______ _______ _______ _____ _____    ______ ____
ROOT
ATOM      1  O   UNL     1       0.521   0.922  -0.871  0.00  0.00    -0.464 OA
ATOM      2  O   UNL     1      -0.554   0.746   2.588  0.00  0.00    -0.270 OA
ATOM      3  N   UNL     1       1.481   1.326   1.737  0.00  0.00    -0.278 N 
ATOM      4  C   UNL     1      -0.171   0.276   0.214  0.00  0.00    +0.238 C 
ATOM      5  C   UNL     1       0.206   0.820   1.621  0.00  0.00    +0.271 C 
ATOM      6  C   UNL     1       1.816   1.286  -0.644  0.00  0.00    +0.153 C 
ATOM      7  C   UNL     1       2.316   1.500   0.634  0.00  0.00    +0.085 C 
ATOM      8  C   UNL     1       2.626   1.509  -1.757  0.00  0.00    +0.038 C 
ATOM      9  C   UNL     1       3.631   1.929   0.814  0.00  0.00    +0.018 C 
ATOM     10  C   UNL     1       3.946   1.927  -1.582  0.00  0.00    +0.003 C 
ATOM     11  C   UNL     1       4.448   2.136  -0.298  0.00  0.00    +0.001 C 
ATOM     12  H   UNL     1       1.815   1.575   2.629  0.00  0.00    +0.155 HD
ENDROOT
BRANCH   4  13
ATOM     13  C   UNL     1      -1.674   0.572   0.006  0.00  0.00    +0.026 C 
ATOM     14  C   UNL     1      -2.621  -0.394   0.335  0.00  0.00    +0.003 C 
ATOM     15  C   UNL     1      -2.072   1.802  -0.509  0.00  0.00    +0.003 C 
ATOM     16  C   UNL     1      -3.977  -0.127   0.147  0.00  0.00    +0.036 C 
ATOM     17  C   UNL     1      -3.428   2.069  -0.697  0.00  0.00    +0.036 C 
ATOM     18  C   UNL     1      -4.381   1.104  -0.369  0.00  0.00    +0.134 C 
BRANCH  18  19
ATOM     19  O   UNL     1      -5.704   1.364  -0.552  0.00  0.00    -0.506 OA
ATOM     20  H   UNL     1      -6.344   0.716  -0.332  0.00  0.00    +0.292 HD
ENDBRANCH  18  19
ENDBRANCH   4  13
BRANCH   4  21
ATOM     21  C   UNL     1       0.147  -1.230   0.060  0.00  0.00    +0.026 C 
ATOM     22  C   UNL     1      -0.125  -1.875  -1.143  0.00  0.00    +0.003 C 
ATOM     23  C   UNL     1       0.703  -1.932   1.126  0.00  0.00    +0.003 C 
ATOM     24  C   UNL     1       0.162  -3.233  -1.281  0.00  0.00    +0.036 C 
ATOM     25  C   UNL     1       0.989  -3.291   0.988  0.00  0.00    +0.036 C 
ATOM     26  C   UNL     1       0.719  -3.941  -0.216  0.00  0.00    +0.134 C 
BRANCH  26  27
ATOM     27  O   UNL     1       0.998  -5.266  -0.352  0.00  0.00    -0.506 OA
ATOM     28  H   UNL     1       0.815  -5.703  -1.161  0.00  0.00    +0.292 HD
ENDBRANCH  26  27
ENDBRANCH   4  21
TORSDOF 4
