REMARK  Name = 9966051
REMARK  3 active torsions:
REMARK  status: ('A' for Active; 'I' for Inactive)
REMARK    1  A    between atoms: C_1  and  N_7
REMARK    2  A    between atoms: C_2  and  S_15
REMARK    3  A    between atoms: S_15  and  C_16
REMARK                            x       y       z     vdW  Elec       q    Type
REMARK                         _______ _______ _______ _____ _____    ______ ____
ROOT
ATOM      1  C   UNL     1      -1.766  -0.979   0.152  0.00  0.00    +0.054 C 
ATOM      2  C   UNL     1      -0.521  -1.145  -0.494  0.00  0.00    +0.043 C 
ATOM      3  C   UNL     1      -2.276  -2.069   0.886  0.00  0.00    +0.015 C 
ATOM      4  C   UNL     1       0.179  -2.348  -0.408  0.00  0.00    +0.008 C 
ATOM      5  C   UNL     1      -1.576  -3.272   0.972  0.00  0.00    +0.001 C 
ATOM      6  C   UNL     1      -0.348  -3.412   0.325  0.00  0.00    +0.001 C 
ENDROOT
BRANCH   1   7
ATOM      7  N   UNL     1      -2.497   0.213   0.088  0.00  0.00    -0.311 N 
ATOM      8  N   UNL     1      -4.198   2.504   0.005  0.00  0.00    +0.386 N 
ATOM      9  C   UNL     1      -3.466   0.371  -1.005  0.00  0.00    +0.067 C 
ATOM     10  C   UNL     1      -2.805   0.944   1.322  0.00  0.00    +0.067 C 
ATOM     11  C   UNL     1      -3.779   1.850  -1.233  0.00  0.00    -0.060 C 
ATOM     12  C   UNL     1      -3.142   2.402   1.010  0.00  0.00    -0.060 C 
ATOM     13  H   UNL     1      -5.042   2.051   0.356  0.00  0.00    -0.084 HD
ATOM     14  H   UNL     1      -4.385   3.488  -0.184  0.00  0.00    -0.084 HD
ENDBRANCH   1   7
BRANCH   2  15
ATOM     15  S   UNL     1       0.203   0.185  -1.448  0.00  0.00    -0.086 S 
BRANCH  15  16
ATOM     16  C   UNL     1       1.741   0.432  -0.575  0.00  0.00    +0.026 C 
ATOM     17  C   UNL     1       2.978   0.279  -1.206  0.00  0.00    -0.016 C 
ATOM     18  C   UNL     1       1.689   0.788   0.774  0.00  0.00    +0.006 C 
ATOM     19  C   UNL     1       4.158   0.481  -0.489  0.00  0.00    -0.008 C 
ATOM     20  C   UNL     1       4.104   0.836   0.858  0.00  0.00    -0.022 C 
ATOM     21  C   UNL     1       2.869   0.990   1.490  0.00  0.00    -0.004 C 
ATOM     22  C   UNL     1       3.088  -0.101  -2.648  0.00  0.00    +0.032 C 
ATOM     23  C   UNL     1       5.365   1.052   1.625  0.00  0.00    +0.031 C 
ENDBRANCH  15  16
ENDBRANCH   2  15
TORSDOF 3
