REMARK  Name = 162056
REMARK  6 active torsions:
REMARK  status: ('A' for Active; 'I' for Inactive)
REMARK    1  A    between atoms: N_1  and  C_21
REMARK    2  A    between atoms: C_2  and  N_11
REMARK    3  A    between atoms: N_11  and  C_13
REMARK    4  A    between atoms: C_12  and  C_19
REMARK    5  A    between atoms: C_21  and  C_22
REMARK    6  A    between atoms: C_22  and  C_23
REMARK                            x       y       z     vdW  Elec       q    Type
REMARK                         _______ _______ _______ _____ _____    ______ ____
ROOT
ATOM      1  N   UNL     1       1.294  -0.123  -0.436  0.00  0.00    +0.389 N 
ATOM      2  C   UNL     1      -1.498  -0.961  -0.142  0.00  0.00    +0.076 C 
ATOM      3  C   UNL     1      -0.954  -0.410  -1.475  0.00  0.00    -0.002 C 
ATOM      4  C   UNL     1       0.856  -0.713   0.840  0.00  0.00    -0.056 C 
ATOM      5  C   UNL     1      -0.647  -0.452   1.028  0.00  0.00    -0.001 C 
ATOM      6  C   UNL     1       0.564  -0.646  -1.595  0.00  0.00    -0.076 C 
ATOM      7  C   UNL     1      -1.660  -1.030  -2.686  0.00  0.00    -0.000 C 
ATOM      8  C   UNL     1       1.186  -2.202   1.027  0.00  0.00    -0.023 C 
ATOM      9  H   UNL     1       1.062   0.867  -0.359  0.00  0.00    -0.080 HD
ENDROOT
BRANCH   2  11
ATOM     10  O   UNL     1      -3.790  -2.776   0.183  0.00  0.00    -0.275 OA
ATOM     11  N   UNL     1      -2.881  -0.592   0.072  0.00  0.00    -0.260 N 
ATOM     12  C   UNL     1      -3.926  -1.550   0.219  0.00  0.00    +0.229 C 
BRANCH  11  13
ATOM     13  C   UNL     1      -3.221   0.826   0.141  0.00  0.00    +0.054 C 
ATOM     14  C   UNL     1      -3.187   1.426   1.365  0.00  0.00    +0.015 C 
ATOM     15  C   UNL     1      -3.548   1.456  -1.023  0.00  0.00    +0.015 C 
ATOM     16  C   UNL     1      -3.511   2.781   1.431  0.00  0.00    +0.001 C 
ATOM     17  C   UNL     1      -3.873   2.811  -0.957  0.00  0.00    +0.001 C 
ATOM     18  C   UNL     1      -3.854   3.474   0.270  0.00  0.00    +0.000 C 
ENDBRANCH  11  13
BRANCH  12  19
ATOM     19  C   UNL     1      -5.324  -0.961   0.390  0.00  0.00    +0.086 C 
ATOM     20  C   UNL     1      -6.396  -2.026   0.556  0.00  0.00    +0.010 C 
ENDBRANCH  12  19
ENDBRANCH   2  11
BRANCH   1  21
ATOM     21  C   UNL     1       2.738  -0.212  -0.641  0.00  0.00    -0.073 C 
BRANCH  21  22
ATOM     22  C   UNL     1       3.497   0.377   0.548  0.00  0.00    +0.004 C 
BRANCH  22  23
ATOM     23  C   UNL     1       4.989   0.311   0.339  0.00  0.00    -0.024 C 
ATOM     24  C   UNL     1       5.688  -0.807   0.768  0.00  0.00    -0.004 C 
ATOM     25  C   UNL     1       5.638   1.370  -0.279  0.00  0.00    -0.004 C 
ATOM     26  C   UNL     1       7.068  -0.868   0.575  0.00  0.00    -0.000 C 
ATOM     27  C   UNL     1       7.018   1.309  -0.472  0.00  0.00    -0.000 C 
ATOM     28  C   UNL     1       7.733   0.189  -0.045  0.00  0.00    -0.000 C 
ENDBRANCH  22  23
ENDBRANCH  21  22
ENDBRANCH   1  21
TORSDOF 6
