REMARK  Name = 4843
REMARK  2 active torsions:
REMARK  status: ('A' for Active; 'I' for Inactive)
REMARK    1  A    between atoms: N_2  and  C_7
REMARK    2  A    between atoms: C_7  and  C_10
REMARK                            x       y       z     vdW  Elec       q    Type
REMARK                         _______ _______ _______ _____ _____    ______ ____
ROOT
ATOM      1  O   UNL     1      -0.978  -2.005   0.376  0.00  0.00    -0.275 OA
ATOM      2  N   UNL     1      -0.318   0.254   0.425  0.00  0.00    -0.271 N 
ATOM      3  C   UNL     1      -0.852   1.515  -0.034  0.00  0.00    +0.094 C 
ATOM      4  C   UNL     1      -2.335   1.233  -0.165  0.00  0.00    +0.031 C 
ATOM      5  C   UNL     1      -2.397  -0.250  -0.510  0.00  0.00    +0.087 C 
ATOM      6  C   UNL     1      -1.169  -0.817   0.163  0.00  0.00    +0.226 C 
ENDROOT
BRANCH   2   7
ATOM      7  C   UNL     1       1.019   0.150   0.967  0.00  0.00    +0.179 C 
BRANCH   7  10
ATOM      8  O   UNL     1       1.757  -0.551  -1.231  0.00  0.00    -0.273 OA
ATOM      9  N   UNL     1       3.260   0.480   0.170  0.00  0.00    -0.327 N 
ATOM     10  C   UNL     1       2.014  -0.008  -0.160  0.00  0.00    +0.240 C 
ATOM     11  H   UNL     1       3.996   0.435  -0.483  0.00  0.00    +0.145 HD
ATOM     12  H   UNL     1       3.415   0.875   1.058  0.00  0.00    +0.145 HD
ENDBRANCH   7  10
ENDBRANCH   2   7
TORSDOF 2
