REMARK  Name = 68870
REMARK  9 active torsions:
REMARK  status: ('A' for Active; 'I' for Inactive)
REMARK    1  A    between atoms: C_6  and  N_20
REMARK    2  A    between atoms: N_20  and  C_23
REMARK    3  A    between atoms: C_23  and  C_24
REMARK    4  A    between atoms: C_24  and  C_25
REMARK    5  A    between atoms: C_25  and  C_26
REMARK    6  A    between atoms: C_26  and  C_27
REMARK    7  A    between atoms: C_27  and  C_28
REMARK    8  A    between atoms: C_28  and  C_30
REMARK    9  A    between atoms: C_30  and  O_31
REMARK                            x       y       z     vdW  Elec       q    Type
REMARK                         _______ _______ _______ _____ _____    ______ ____
ROOT
ATOM      1 CL   UNL     1      -6.520   3.228   0.176  0.00  0.00    -0.082 Cl
ATOM      2  S   UNL     1      -3.039  -0.320  -1.779  0.00  0.00    +0.076 S 
ATOM      3  O   UNL     1      -2.876   0.555  -2.928  0.00  0.00    -0.150 OA
ATOM      4  O   UNL     1      -4.079  -1.333  -1.768  0.00  0.00    -0.150 OA
ATOM      5  N   UNL     1      -1.527  -1.078  -1.469  0.00  0.00    -0.189 N 
ATOM      6  C   UNL     1      -1.286   0.284   1.032  0.00  0.00    -0.013 C 
ATOM      7  C   UNL     1      -2.602   0.973   0.718  0.00  0.00    -0.019 C 
ATOM      8  C   UNL     1      -1.388  -1.227   0.960  0.00  0.00    -0.023 C 
ATOM      9  C   UNL     1      -3.400   0.769  -0.419  0.00  0.00    +0.121 C 
ATOM     10  C   UNL     1      -1.489  -1.888  -0.272  0.00  0.00    +0.063 C 
ATOM     11  C   UNL     1      -3.058   1.914   1.670  0.00  0.00    -0.004 C 
ATOM     12  C   UNL     1      -1.426  -1.987   2.140  0.00  0.00    -0.005 C 
ATOM     13  C   UNL     1      -4.609   1.473  -0.578  0.00  0.00    +0.031 C 
ATOM     14  C   UNL     1      -1.670  -3.277  -0.317  0.00  0.00    +0.016 C 
ATOM     15  C   UNL     1      -0.826  -1.633  -2.659  0.00  0.00    +0.139 C 
ATOM     16  C   UNL     1      -4.256   2.610   1.507  0.00  0.00    +0.011 C 
ATOM     17  C   UNL     1      -1.572  -3.373   2.091  0.00  0.00    -0.000 C 
ATOM     18  C   UNL     1      -5.034   2.387   0.382  0.00  0.00    +0.059 C 
ATOM     19  C   UNL     1      -1.699  -4.017   0.864  0.00  0.00    +0.001 C 
ENDROOT
BRANCH   6  20
ATOM     20  N   UNL     1      -0.164   0.836   0.258  0.00  0.00    +0.390 N 
ATOM     21  H   UNL     1      -0.154   1.851   0.356  0.00  0.00    -0.083 HD
ATOM     22  H   UNL     1      -0.280   0.580  -0.723  0.00  0.00    -0.083 HD
BRANCH  20  23
ATOM     23  C   UNL     1       1.093   0.296   0.740  0.00  0.00    -0.081 C 
BRANCH  23  24
ATOM     24  C   UNL     1       2.262   0.896  -0.041  0.00  0.00    -0.023 C 
BRANCH  24  25
ATOM     25  C   UNL     1       3.600   0.353   0.469  0.00  0.00    -0.002 C 
BRANCH  25  26
ATOM     26  C   UNL     1       4.810   0.901  -0.294  0.00  0.00    +0.000 C 
BRANCH  26  27
ATOM     27  C   UNL     1       6.179   0.410   0.187  0.00  0.00    +0.012 C 
BRANCH  27  28
ATOM     28  C   UNL     1       7.343   0.939  -0.649  0.00  0.00    +0.109 C 
BRANCH  28  30
ATOM     29  O   UNL     1       8.845  -0.166   0.918  0.00  0.00    -0.250 OA
ATOM     30  C   UNL     1       8.680   0.510  -0.088  0.00  0.00    +0.314 C 
BRANCH  30  31
ATOM     31  O   UNL     1       9.708   0.965  -0.852  0.00  0.00    -0.480 OA
ATOM     32  H   UNL     1       9.532   1.480  -1.615  0.00  0.00    +0.295 HD
ENDBRANCH  30  31
ENDBRANCH  28  30
ENDBRANCH  27  28
ENDBRANCH  26  27
ENDBRANCH  25  26
ENDBRANCH  24  25
ENDBRANCH  23  24
ENDBRANCH  20  23
ENDBRANCH   6  20
TORSDOF 9
