REMARK  Name = 71897
REMARK  4 active torsions:
REMARK  status: ('A' for Active; 'I' for Inactive)
REMARK    1  A    between atoms: N_1  and  C_15
REMARK    2  A    between atoms: N_2  and  C_9
REMARK    3  A    between atoms: C_15  and  C_16
REMARK    4  A    between atoms: C_16  and  C_19
REMARK                            x       y       z     vdW  Elec       q    Type
REMARK                         _______ _______ _______ _____ _____    ______ ____
ROOT
ATOM      1  N   UNL     1      -0.703   0.039   0.699  0.00  0.00    +0.389 N 
ATOM      2  N   UNL     1       2.097   0.126   0.138  0.00  0.00    -0.312 N 
ATOM      3  C   UNL     1      -0.210   0.673  -0.530  0.00  0.00    -0.055 C 
ATOM      4  C   UNL     1       0.162  -1.092   1.058  0.00  0.00    -0.055 C 
ATOM      5  C   UNL     1       1.218   1.194  -0.346  0.00  0.00    +0.068 C 
ATOM      6  C   UNL     1       1.601  -0.630   1.296  0.00  0.00    +0.068 C 
ATOM      7  H   UNL     1      -0.680   0.724   1.454  0.00  0.00    -0.080 HD
ENDROOT
BRANCH   2   9
ATOM      8 CL   UNL     1       6.631  -2.212  -0.537  0.00  0.00    -0.082 Cl
ATOM      9  C   UNL     1       3.482   0.236  -0.030  0.00  0.00    +0.049 C 
ATOM     10  C   UNL     1       4.289  -0.909  -0.183  0.00  0.00    +0.026 C 
ATOM     11  C   UNL     1       4.111   1.497  -0.052  0.00  0.00    +0.015 C 
ATOM     12  C   UNL     1       5.669  -0.797  -0.352  0.00  0.00    +0.059 C 
ATOM     13  C   UNL     1       5.491   1.609  -0.221  0.00  0.00    +0.002 C 
ATOM     14  C   UNL     1       6.270   0.461  -0.371  0.00  0.00    +0.011 C 
ENDBRANCH   2   9
BRANCH   1  15
ATOM     15  C   UNL     1      -2.085  -0.406   0.528  0.00  0.00    -0.071 C 
BRANCH  15  16
ATOM     16  C   UNL     1      -3.014   0.778   0.245  0.00  0.00    +0.025 C 
BRANCH  16  19
ATOM     17  N   UNL     1      -5.216   0.310   1.161  0.00  0.00    -0.186 NA
ATOM     18  N   UNL     1      -6.387  -0.105   0.649  0.00  0.00    -0.240 N 
ATOM     19  C   UNL     1      -4.443   0.350   0.089  0.00  0.00    +0.075 C 
ATOM     20  C   UNL     1      -5.073  -0.024  -1.094  0.00  0.00    +0.028 C 
ATOM     21  C   UNL     1      -6.354  -0.320  -0.698  0.00  0.00    +0.044 C 
ATOM     22  C   UNL     1      -7.535  -0.778  -1.448  0.00  0.00    +0.049 C 
ATOM     23  H   UNL     1      -7.194  -0.242   1.195  0.00  0.00    +0.174 HD
ENDBRANCH  16  19
ENDBRANCH  15  16
ENDBRANCH   1  15
TORSDOF 4
