REMARK  Name = 598
REMARK  3 active torsions:
REMARK  status: ('A' for Active; 'I' for Inactive)
REMARK    1  A    between atoms: S_1  and  C_5
REMARK    2  A    between atoms: C_5  and  C_6
REMARK    3  A    between atoms: C_6  and  S_7
REMARK                            x       y       z     vdW  Elec       q    Type
REMARK                         _______ _______ _______ _____ _____    ______ ____
ROOT
ATOM      1  S   UNL     1      -1.053   0.102   0.018  0.00  0.00    +0.023 S 
ATOM      2  O   UNL     1      -1.886  -1.278  -0.230  0.00  0.00    -0.069 OA
ATOM      3  O   UNL     1      -1.223   0.965  -1.136  0.00  0.00    -0.069 OA
ATOM      4  O   UNL     1      -1.321   0.573   1.365  0.00  0.00    -0.069 OA
ENDROOT
BRANCH   1   5
ATOM      5  C   UNL     1       0.568  -0.599  -0.025  0.00  0.00    +0.169 C 
BRANCH   5   6
ATOM      6  C   UNL     1       1.629   0.486   0.007  0.00  0.00    +0.079 C 
BRANCH   6   7
ATOM      7  S   UNL     1       3.287  -0.249   0.001  0.00  0.00    -0.166 S 
ATOM      8  H   UNL     1       4.221   0.740   0.030  0.00  0.00    +0.102 HD
ENDBRANCH   6   7
ENDBRANCH   5   6
ENDBRANCH   1   5
TORSDOF 3
