4886
  -OEChem-10051722103D

 48 49  0     0  0  0  0  0  0999 V2000
   -7.7204    0.8426    0.1371 O   0  0  0  0  0  0  0  0  0  0  0  0
   -0.5406   -1.5780   -0.0626 O   0  0  0  0  0  0  0  0  0  0  0  0
    4.9238   -0.8010    0.0867 O   0  0  0  0  0  0  0  0  0  0  0  0
   -4.8889    0.5531    0.1372 N   0  0  0  0  0  0  0  0  0  0  0  0
   -5.7649   -0.4592   -0.4691 C   0  0  0  0  0  0  0  0  0  0  0  0
   -5.5263    1.8754    0.0704 C   0  0  0  0  0  0  0  0  0  0  0  0
   -3.5844    0.5719   -0.5214 C   0  0  0  0  0  0  0  0  0  0  0  0
   -7.1236   -0.4518    0.2256 C   0  0  0  0  0  0  0  0  0  0  0  0
   -6.8901    1.8276    0.7534 C   0  0  0  0  0  0  0  0  0  0  0  0
   -2.6976   -0.5407    0.0282 C   0  0  0  0  0  0  0  0  0  0  0  0
   -1.3218   -0.5325   -0.6243 C   0  0  0  0  0  0  0  0  0  0  0  0
    0.8160   -1.3850   -0.0253 C   0  0  0  0  0  0  0  0  0  0  0  0
    6.7059    0.7928    0.2862 C   0  0  0  0  0  0  0  0  0  0  0  0
    5.4197    0.4281   -0.4416 C   0  0  0  0  0  0  0  0  0  0  0  0
    7.2853    2.1108   -0.2196 C   0  0  0  0  0  0  0  0  0  0  0  0
    1.4363   -0.6045   -1.0009 C   0  0  0  0  0  0  0  0  0  0  0  0
    1.5761   -1.9692    0.9879 C   0  0  0  0  0  0  0  0  0  0  0  0
    3.5768   -0.9923    0.0502 C   0  0  0  0  0  0  0  0  0  0  0  0
    2.8167   -0.4082   -0.9631 C   0  0  0  0  0  0  0  0  0  0  0  0
    2.9564   -1.7728    1.0257 C   0  0  0  0  0  0  0  0  0  0  0  0
    8.5459    2.4930    0.5393 C   0  0  0  0  0  0  0  0  0  0  0  0
   -5.9061   -0.2505   -1.5378 H   0  0  0  0  0  0  0  0  0  0  0  0
   -5.3382   -1.4628   -0.3746 H   0  0  0  0  0  0  0  0  0  0  0  0
   -4.9071    2.6252    0.5760 H   0  0  0  0  0  0  0  0  0  0  0  0
   -5.6505    2.1841   -0.9758 H   0  0  0  0  0  0  0  0  0  0  0  0
   -3.6760    0.5047   -1.6131 H   0  0  0  0  0  0  0  0  0  0  0  0
   -3.0756    1.5222   -0.3110 H   0  0  0  0  0  0  0  0  0  0  0  0
   -7.7970   -1.1621   -0.2648 H   0  0  0  0  0  0  0  0  0  0  0  0
   -7.0412   -0.7460    1.2790 H   0  0  0  0  0  0  0  0  0  0  0  0
   -6.7990    1.6114    1.8248 H   0  0  0  0  0  0  0  0  0  0  0  0
   -7.3915    2.7954    0.6524 H   0  0  0  0  0  0  0  0  0  0  0  0
   -3.1471   -1.5282   -0.1286 H   0  0  0  0  0  0  0  0  0  0  0  0
   -2.5819   -0.4354    1.1150 H   0  0  0  0  0  0  0  0  0  0  0  0
   -1.4171   -0.6963   -1.7041 H   0  0  0  0  0  0  0  0  0  0  0  0
   -0.8702    0.4516   -0.4434 H   0  0  0  0  0  0  0  0  0  0  0  0
    7.4367   -0.0162    0.1632 H   0  0  0  0  0  0  0  0  0  0  0  0
    6.5066    0.8548    1.3636 H   0  0  0  0  0  0  0  0  0  0  0  0
    4.7044    1.2475   -0.2931 H   0  0  0  0  0  0  0  0  0  0  0  0
    5.6152    0.3033   -1.5129 H   0  0  0  0  0  0  0  0  0  0  0  0
    6.5449    2.9116   -0.1082 H   0  0  0  0  0  0  0  0  0  0  0  0
    7.5172    2.0298   -1.2879 H   0  0  0  0  0  0  0  0  0  0  0  0
    0.8857   -0.1604   -1.8249 H   0  0  0  0  0  0  0  0  0  0  0  0
    1.0980   -2.5780    1.7505 H   0  0  0  0  0  0  0  0  0  0  0  0
    3.2648    0.1781   -1.7600 H   0  0  0  0  0  0  0  0  0  0  0  0
    3.5434   -2.2302    1.8176 H   0  0  0  0  0  0  0  0  0  0  0  0
    9.3199    1.7274    0.4247 H   0  0  0  0  0  0  0  0  0  0  0  0
    8.9448    3.4389    0.1597 H   0  0  0  0  0  0  0  0  0  0  0  0
    8.3391    2.6158    1.6072 H   0  0  0  0  0  0  0  0  0  0  0  0
  1  8  1  0  0  0  0
  1  9  1  0  0  0  0
  2 11  1  0  0  0  0
  2 12  1  0  0  0  0
  3 14  1  0  0  0  0
  3 18  1  0  0  0  0
  4  5  1  0  0  0  0
  4  6  1  0  0  0  0
  4  7  1  0  0  0  0
  5  8  1  0  0  0  0
  5 22  1  0  0  0  0
  5 23  1  0  0  0  0
  6  9  1  0  0  0  0
  6 24  1  0  0  0  0
  6 25  1  0  0  0  0
  7 10  1  0  0  0  0
  7 26  1  0  0  0  0
  7 27  1  0  0  0  0
  8 28  1  0  0  0  0
  8 29  1  0  0  0  0
  9 30  1  0  0  0  0
  9 31  1  0  0  0  0
 10 11  1  0  0  0  0
 10 32  1  0  0  0  0
 10 33  1  0  0  0  0
 11 34  1  0  0  0  0
 11 35  1  0  0  0  0
 12 16  2  0  0  0  0
 12 17  1  0  0  0  0
 13 14  1  0  0  0  0
 13 15  1  0  0  0  0
 13 36  1  0  0  0  0
 13 37  1  0  0  0  0
 14 38  1  0  0  0  0
 14 39  1  0  0  0  0
 15 21  1  0  0  0  0
 15 40  1  0  0  0  0
 15 41  1  0  0  0  0
 16 19  1  0  0  0  0
 16 42  1  0  0  0  0
 17 20  2  0  0  0  0
 17 43  1  0  0  0  0
 18 19  2  0  0  0  0
 18 20  1  0  0  0  0
 19 44  1  0  0  0  0
 20 45  1  0  0  0  0
 21 46  1  0  0  0  0
 21 47  1  0  0  0  0
 21 48  1  0  0  0  0
M  END
> <DATABASE_ID>
DB09345

> <DATABASE_NAME>
drugbank

> <ORIGINAL_SOURCE>
PUBCHEM

> <ORIGINAL_SOURCE_URL>
https://pubchem.ncbi.nlm.nih.gov/rest/pug/compound/inchikey/DQKXQSGTHWVTAD-UHFFFAOYSA-N/SDF?record_type=3d

> <SMILES>
CCCCOC1=CC=C(OCCCN2CCOCC2)C=C1

> <INCHI_IDENTIFIER>
InChI=1S/C17H27NO3/c1-2-3-12-20-16-5-7-17(8-6-16)21-13-4-9-18-10-14-19-15-11-18/h5-8H,2-4,9-15H2,1H3

> <INCHI_KEY>
DQKXQSGTHWVTAD-UHFFFAOYSA-N

> <FORMULA>
C17H27NO3

> <MOLECULAR_WEIGHT>
293.407

> <EXACT_MASS>
293.199093733

> <JCHEM_ACCEPTOR_COUNT>
4

> <JCHEM_ATOM_COUNT>
48

> <JCHEM_AVERAGE_POLARIZABILITY>
35.11451009745457

> <JCHEM_BIOAVAILABILITY>
1

> <JCHEM_DONOR_COUNT>
0

> <JCHEM_FORMAL_CHARGE>
0

> <JCHEM_GHOSE_FILTER>
1

> <JCHEM_IUPAC>
4-[3-(4-butoxyphenoxy)propyl]morpholine

> <ALOGPS_LOGP>
3.03

> <JCHEM_LOGP>
2.8419061089999995

> <ALOGPS_LOGS>
-3.12

> <JCHEM_MDDR_LIKE_RULE>
0

> <JCHEM_NUMBER_OF_RINGS>
2

> <JCHEM_PHYSIOLOGICAL_CHARGE>
1

> <JCHEM_PKA_STRONGEST_BASIC>
7.062880506816286

> <JCHEM_POLAR_SURFACE_AREA>
30.93

> <JCHEM_REFRACTIVITY>
84.817

> <JCHEM_ROTATABLE_BOND_COUNT>
9

> <JCHEM_RULE_OF_FIVE>
1

> <ALOGPS_SOLUBILITY>
2.21e-01 g/l

> <JCHEM_TRADITIONAL_IUPAC>
pramoxine

> <JCHEM_VEBER_RULE>
1

> <DRUGBANK_ID>
DB09345

> <DRUG_GROUPS>
approved

> <GENERIC_NAME>
Pramocaine

> <SYNONYMS>
PramocaÃ­na; Pramocaine; Pramoxine

> <PRODUCTS>
ATOPALM Hemorrhoidal Pain Relieving; AVON HeXashield Triple Antibiotic with Pain Relief; Acella Hydrocortisone Acetate - Pramoxine Singles; Advanced Moisture Balm; Analpram Advanced; Analpram E; Analpram E Cream 2.5% Kit hydrocortisone acetate 2.5% pramoxine hydrochloride 1%; Analpram HC; Anesthetic Hemorrhoidal With Aloe; Anodan-plus; Anodan-plus Ointment; Anti Itch Maximum Relief; Anti-Itch; Antibiotic; Antibiotic Plus Pain Relief; Antibiotic Plus Pain Relief Maximum Strength; Antibiotic and Pain Relief; Antibiotic and Pain Relief Maximum Strength; Antibiotic and pain relief maximum strength; Antibiotic plus Pain Relief; Antibiotic, Pain and Scar; Anugesic-HC Ointment; Anugesic-HC Suppositories; Anusol Plus Ointment; Anusol Plus Suppositories; Anuzinc Plus Suppositories; Atopalm First Aid Triple Antibiotic Protection Moisturizing and Pain Relief; Atopalm First Aid Triple Antibiotic plus Pain Relief; Aveeno Active Naturals Skin Relief Medicated Anti Itch Treatment; Aveeno Anti Itch Concentrated; Aveeno Anti-Itch Concentrated; Aveeno Anti-itch Lotion; Aveeno Calamine and Pramoxine Hydrochloride Anti Itch; Bacitraycin Plus; Bactine Pain Relieving Cleansing Spray; Basic Care First Aid Antibiotic Plus Pain Relief; Best Choice Anti-Itch Clear; Best Choice Medicated Calamine; Best Choice Medicated anti itch; Bi-Mart Triple Antibiotic plus Pain Relief; Bikini Zone MEDICATED After Shave Fresh Scent; Bikini Zone Medicated After Shave Spray; Bikini Zone Medicated After-shave Roll-ON Relief; Bite and Itch; Blistex Cold and Allergy Lip Soother; Blistex Ivarest Poison Ivy Itch; CAREONE Antibiotic Plus Pain Relief; CVS Anti-Itch; CVS Calamine Plus; CVS Fragrance Free Anti-Itch; CVS Health Hemorrhoidal Cream; CVS Health Maximum Strength Feminine; CVS Health Triple Antibiotic with Pain Relief; CVS Hemorrhoidal; CVS Itch Relief; CVS Maximum Strength Feminine Anti-Itch Wipes; CVS Medicated Anti-Itch; CVS Medicated anti itch; CVS Pharmacy; CVS Pharmacy Maximum Strength Feminine Wipes; Calaclear; Caladryl; Caladryl Clear; Calamine; Calamine Clear; Calamine Plus; Calamine Plus Pramoxine HCl; Caldyphen Clear; Care One Maximum Strength First Aid Antibiotic; CareALL Triple Antibiotic plus Pain Relief; Careone Triple Antibiotic; CeraVe Developed with Dermatologists Itch Relief Moisturizing; CeraVe Itch Relief Moisturizing; CeraVe Itch Relief Moisturizing Cream; Childrens Double Antibiotic with Pain Relief; Clear Anti Itch; Clear Anti-Itch; Clear Anti-itch Lotion; Clear Itch Relief; Cocoskin; Cortaine -B Aqueous; Cortane-B; Cuadriderma; Curad Maximum Strength Triple Antibiotic; Curasore; DDM Calaclear; DDM Calagesic; DG Health Antibiotic; DG Health Medicated Anti-Itch Analgesic; DerMend Moisturizing Anti-Itch; Dermagesic; Dermarest Eczema Medicated Moist for Sensitive Skin; Dermoplast Poison Ivy Treatment; Double Antibiotic Plus Pain Relief Maximum Strength; Dr Bells Pomade; Dr. Sheffield Hemorrhoid; Ear Itch MD; Eczemin; Epifoam; Equaline Antibiotic Plus Pain Relief; Equaline Antibiotic Plus Pain Relief for Kids; Equaline First Aid Antibiotic; Equaline Hemorrhoidal; Equaline Triple Antibiotic; Equaline Triple Antibiotic Plus; Equate Antibiotic Plus Pain Relief; Equate First Aid Antibiotic Pain Relieving; Equate First Aid Antibiotic Plus Pain Relief; Equate Hemorrhoidal; Exchange Select First Aid Triple Anitbiotic Pain Relieving; Extra Strength Bacitraycin Plus; Family Care Maximum Strength Medicated Anti Itch; Family Care Triple Antibiotic Plus Pain Relief; Family Wellness; Family Wellness Antiseptic and Pain Relief; Family Wellness Plus Pain Relief; Family Wellness Triple Antibiotic Plus Pain Relief; First Aid Antibiotic; First Aid Antibiotic Bacitraycin Plus Maximum Strength; First Aid Antibiotic Plus Pain Relief Maximum Strength; First Aid Clear Anti-Itch medicated pads Rite Aid; First Aid Maximum Strength Bacitraycin Plus; First Aid Sensitive Anti-Itch; First Aid Triple Antibiotic Pain and Scar; First Aid Triple Antibiotic and Pain Relief Maximum Strength; First Degree Maximum Strength Burn; First On Topical Analgesic; Fissurene; Fleet; Freds Medicated anti itch; GNP Caldyphen; Glycerin, Phenylephrine Hydrochloride, Pramoxine, White Petrolatum; Gold Bond Anti Itch; Gold Bond Anti-itch Lotion; Gold Bond Intensive Healing Anti Itch Skin Protectant; Gold Bond Medicated Anti-itch Cream; Good Neighbor Pharmacy Antibiotic and Pain Relief; Good Neighbor Pharmacy Triple Antibiotic Plus Pain Relief; Good Sense Hemorrhoidal Maximum Strength Pain Relief; Good Sense Triple Antibiotic; Good Sense Triple Antibiotic and Pain Relief; GoodSense Antibiotic plus Pain Relief; H E Buddy Antibiotic Maximum Strength Plus Pain Relief; HC Pram; HEB Calaclear; HEB Calagesic; HEB Maximum Strength Pain Relief Hemorrhoidal; Harris Teeter Triple Antibiotic Plus Pain Relief; Harris Teetter Calagesic; Healthy Accents Triple Antibiotic; Hemorrhoid Ointment; Hemorrhoidal; Hemorrhoidal Anesthetic; Hemorrhoidal Cream; Hemorrhoidal Cream with Aloe; Hemorrhoidal Maximum Strength Pain Relief; Hemorrhoidal Ointment; Hemorrhoidal Ointment With Anesthetic for Extra Pain Relief; Hemorrhoidal Relief; Humco Calaclear; Humco Calagesic; Hydro Ear; Hydrocortisone Acetate Pramoxine HCl; Hydrocortisone Acetate Pramoxine Hcl; Hydrocortisone Acetate Pramoxine Hydrochloride; Hydrocortisone Acetate and Pramoxine Hydrochloride; Itch Relief Clear Skin Protectant CVS; Itch Relief Lotion; Itch Relief Medicated Pads CVS; Itch Relief Moisturizing Cream; Itch Relief Moisturizing Lotion; Itch X; Itch X Gel; Itch-X; Itch-X Gel; Ivy Wash; LEADER Caldyphen; LEADER Caldyphen Clear; Leader; Leader Calamine Plus; Leader Poison Ivy Wash; Leader Triple Antibiotic Plus; Leader Triple Antibiotic and Pain Relief; Live Better Triple Antibiotic plus Pain Relief; LiveBetter Antibiotic Plus Pain Relief; Luvena Feminine Wipes; MAXIMUM STRENGTH MEDICATED ANTI-ITCH Rite Aid; MEDICATED ANTI-ITCH Well at Walgreens; Meijer Antibiotic Plus Pain Relief; Meijer Triple Antibiotic Plus; Mineral Oil, Pramoxine Hydrochloride and Zinc Oxide; Multi Antibiotic with Pain Relief Maximum Strength; NATUREPLEX ANTIBIOTIC plus PAIN RELIEF; NEOSPORIN Plus BURN RELIEF; Natureplex Hemorrhoidal; Neosporin Pain Itch Scar; Neosporin Plus Pain Relief; Neosporin Plus Pain Relief First Aid Antibiotic Pain Relieving For Kids; Neosporin Plus Pain Relief First Aid Antibiotic/Pain Relieving; Neosporin Plus Pain Relief Neo To Go First Aid Antibiotic Pain Relieving; Neosporin Plus Pain Relief Neo To Go First Aid Antiseptic Pain Relieving; Neosporin Plus Pain Relief Neo To Go First Aid Antiseptic Pain Relieving For Kids; Neosporin Plus Pain Relief Neo to Go; Nikzon Hemorrhoidal; No More Bumps; Novacort; OLP Triple Antibiotic Plus; Oti Rx; Oticin; Oticin HC Ear Drops; Oto End 10; PREPARATION H Maximum Strength; Pain Relief; Penimixcina; Pentrexcilina Triple Antibiotic Plus Pain Relief; Poison Ivy Wash; Polysporin Itch Relief; Polysporin Lip Treatment; Polysporin Poly To Go; Pomada De La Campana Triple Antibiotic Pain Relief; Pramcort; PrameGel; Pramosone; Pramosone Cream; Pramosone E; Pramosone E Cream 2.5% hydrocortisone acetate 2.5% pramoxine hydrochloride 1%; Pramox HC Cream; Pramox HC Lotion; Pramoxine Hydrochloride; Pramoxine hydrochloride; Pramoxine-HC; Prax; Prax Wipe; Preferred Plus Hemorrhoid; Premier Value Antibiotic Plus Pain Relief; Premier Value Calaclear; Premier Value Calagesic; Premier Value Max Strength Antibiotic plus pain relief; Premier Value Triple Antibiotic Plus; Preparation H Totables Pain Relief; Private Label Poison Ivy Wash; Pro-relief; Procort; Proctodan-HC Ointment; Proctodan-HC Suppositories; Proctofoam; Proctofoam HC; Proctofoam NS; Publix Calamine Medicated; Publix Clear Anti-Itch; Publix antibiotic plus Pain Relief; Publix antibiotic plus pain relief; Quality Choice Anti-Itch Clear; Quality Choice Anti-itch Medicated; Quality Choice Maximum Strength Triple Antibiotic; Quality Choice Triple Antibiotic Plus Pain Reliever; Reeses Pinworm Itch Relief; Rexall Hemorrhoidal; Rexall Maximum Strength Hemorrhoidal; Rite Aid Soothing Medicated Anit-Itch; Rugby Caldyphen Clear; Safeway Antibiotic Plus Pain Relief; Sally Hansen Zero bump bikini; Sandoz Anuzinc HC Plus; Sandoz Anuzinc HC Plus Suppositories; Sandoz Anuzinc Plus; Sarna; Sarna P; Scalpicin Medicated Wipes; Select Brand Anti-Itch; Select Brand Hemorrhoid; Sheffield Triple Antibiotic Plus Pain Relief; Shopko Antibiotic Plus Pain Relief; Shopko Triple Antibiotic Plus; Shopko Triple Antibiotic plus Pain Relief; Shoprite Triple Antibiotic; Signature Care First Aid Antibiotic; Signature Care Hemorrhoidal; Signature Care Triple Antibiotic; Skin Relief Medicated Anti-itch Treatment; Smart Sense Antibiotic Maximum Strength; Smart Sense Triple Antibiotic; Smart Sense antibiotic plus pain relief; Smart Sense triple antibitotic plus pain relief; Soothing Care Itch Relief Spray; Sunmark Antibiotic Plus Pain Relief; Sunmark Caldiphen; Sunmark Caldyphen Clear; Sunmark Hemorrhoidal; Sunmark Triple Antibiotic Plus Pain Relief; TopCare Antibiotic Plus Pain Relief; TopCare Calaclear; TopCare Calagesic; TopCare Triple Antibiotic Plus Pain Relief; Topcare Hemorrhoidal; Triple Antibiotic; Triple Antibiotic Plus; Triple Antibiotic Plus Maximum Strength; Triple Antibiotic Plus Pain Relief; Triple Antibiotic Plus Pain Relief Maximum Strength; Triple Antibiotic and Pain Relief Maximum Strength; Triple Antibiotic plus Pain Relief Maximum Strength; Triple Antibiotic plus pain relief; Triple Antibiotic with Pain Relief; Triple Antibiotic with Pain Relief Maximum Strength; Tripleantibioticapainscaritch; Tripleantibioticointmentandpainrelief; Tronolane; Tronothane Pramoxine HCl Crm 1% USP; Tucks Fast Relief; Tucks Hemorrhoidal; Up and Up Antibiotic Plus Pain Relief; Up and Up First Aid Antibiotic Pain Relieving; Up and Up Hemorrhoidal; Up and Up multi action antibiotic; VAGISIL Anti-Itch Medicated Wipes Maximum Strength; Vagisil Medicated Wipes; Vida Mia Calaclear; W15883-CS; Walgreens Maximum Strength Hemorrhoidal; Walgreens Maximum Strength Triple Antibiotic With Pain Relief; Welly Bravery First Aid Kit; Welly Bravery Triple Antibiotic with Pain Relief; Western Family Antibiotic Plus Pain Relief; Western Family Triple Antibiotic plus Pain Relief; WinCo Maximum Strength Triple Antibiotic; ZyPram; hydrocortisone acetate pramoxine HCl; meijer Antibiotic Plus Pain Relief; meijer Triple Antibiotic plus Pain Relief; proctofoam HC

> <SALTS>
Pramoxine hydrochloride

$$$$
