REMARK  Name = 23725625
REMARK  4 active torsions:
REMARK  status: ('A' for Active; 'I' for Inactive)
REMARK    1  A    between atoms: C_2  and  C_17
REMARK    2  A    between atoms: C_4  and  C_21
REMARK    3  A    between atoms: C_12  and  C_18
REMARK    4  A    between atoms: C_21  and  C_25
REMARK                            x       y       z     vdW  Elec       q    Type
REMARK                         _______ _______ _______ _____ _____    ______ ____
ROOT
ATOM      1  F   UNL     1       1.851  -3.959  -1.664  0.00  0.00    -0.204 F 
ATOM      2  C   UNL     1       0.773  -2.715   0.048  0.00  0.00    +0.081 C 
ATOM      3  C   UNL     1      -0.388  -2.150   0.569  0.00  0.00    +0.003 C 
ATOM      4  C   UNL     1      -1.594  -2.285  -0.118  0.00  0.00    -0.016 C 
ATOM      5  C   UNL     1       0.737  -3.414  -1.155  0.00  0.00    +0.144 C 
ATOM      6  C   UNL     1      -1.635  -2.984  -1.325  0.00  0.00    -0.002 C 
ATOM      7  C   UNL     1      -0.470  -3.549  -1.843  0.00  0.00    +0.029 C 
ENDROOT
BRANCH   2  17
ATOM      8  O   UNL     1       5.741   2.445   1.335  0.00  0.00    -0.275 OA
ATOM      9  O   UNL     1       2.298  -3.446   1.600  0.00  0.00    -0.270 OA
ATOM     10  N   UNL     1       3.886   1.146   0.794  0.00  0.00    -0.276 N 
ATOM     11  N   UNL     1       2.842  -1.464   0.487  0.00  0.00    -0.273 N 
ATOM     12  C   UNL     1       4.735   2.248   0.659  0.00  0.00    +0.225 C 
ATOM     13  C   UNL     1       2.633   0.950   0.052  0.00  0.00    +0.115 C 
ATOM     14  C   UNL     1       4.176   0.122   1.802  0.00  0.00    +0.115 C 
ATOM     15  C   UNL     1       2.573  -0.454  -0.546  0.00  0.00    +0.115 C 
ATOM     16  C   UNL     1       4.107  -1.277   1.198  0.00  0.00    +0.115 C 
ATOM     17  C   UNL     1       2.041  -2.571   0.774  0.00  0.00    +0.251 C 
BRANCH  12  18
ATOM     18  C   UNL     1       4.387   3.256  -0.389  0.00  0.00    +0.077 C 
ATOM     19  C   UNL     1       4.846   3.013  -1.785  0.00  0.00    +0.010 C 
ATOM     20  C   UNL     1       5.481   4.091  -0.957  0.00  0.00    +0.010 C 
ENDBRANCH  12  18
ENDBRANCH   2  17
BRANCH   4  21
ATOM     21  C   UNL     1      -2.840  -1.679   0.435  0.00  0.00    +0.074 C 
BRANCH  21  25
ATOM     22  O   UNL     1      -3.437   3.458  -1.433  0.00  0.00    -0.266 OA
ATOM     23  N   UNL     1      -2.142   0.206  -0.854  0.00  0.00    -0.174 NA
ATOM     24  N   UNL     1      -2.298   1.471  -1.308  0.00  0.00    -0.242 N 
ATOM     25  C   UNL     1      -3.036  -0.280  -0.052  0.00  0.00    +0.083 A 
ATOM     26  C   UNL     1      -4.222   0.478   0.396  0.00  0.00    +0.020 A 
ATOM     27  C   UNL     1      -4.364   1.777  -0.084  0.00  0.00    +0.059 A 
ATOM     28  C   UNL     1      -5.182  -0.054   1.261  0.00  0.00    +0.001 C 
ATOM     29  C   UNL     1      -3.340   2.316  -0.994  0.00  0.00    +0.273 A 
ATOM     30  C   UNL     1      -5.461   2.556   0.296  0.00  0.00    +0.005 C 
ATOM     31  C   UNL     1      -6.279   0.723   1.641  0.00  0.00    +0.000 C 
ATOM     32  C   UNL     1      -6.418   2.024   1.159  0.00  0.00    +0.000 C 
ATOM     33  H   UNL     1      -1.606   1.818  -1.916  0.00  0.00    +0.192 HD
ENDBRANCH  21  25
ENDBRANCH   4  21
TORSDOF 4
