REMARK  Name = 34521
REMARK  3 active torsions:
REMARK  status: ('A' for Active; 'I' for Inactive)
REMARK    1  A    between atoms: N_3  and  C_7
REMARK    2  A    between atoms: C_4  and  C_14
REMARK    3  A    between atoms: C_14  and  O_15
REMARK                            x       y       z     vdW  Elec       q    Type
REMARK                         _______ _______ _______ _____ _____    ______ ____
ROOT
ATOM      1  O   UNL     1      -2.692  -0.703   0.520  0.00  0.00    -0.434 OA
ATOM      2  O   UNL     1      -1.243  -2.376   0.026  0.00  0.00    -0.226 OA
ATOM      3  N   UNL     1      -0.518  -0.140   0.300  0.00  0.00    -0.221 N 
ATOM      4  C   UNL     1      -2.649   0.731   0.533  0.00  0.00    +0.220 C 
ATOM      5  C   UNL     1      -1.184   1.061   0.728  0.00  0.00    +0.148 C 
ATOM      6  C   UNL     1      -1.433  -1.188   0.245  0.00  0.00    +0.409 C 
ENDROOT
BRANCH   3   7
ATOM      7  C   UNL     1       0.889  -0.207   0.084  0.00  0.00    +0.057 C 
ATOM      8  C   UNL     1       1.672   0.948   0.178  0.00  0.00    +0.011 C 
ATOM      9  C   UNL     1       1.496  -1.428  -0.223  0.00  0.00    +0.015 C 
ATOM     10  C   UNL     1       3.049   0.882  -0.033  0.00  0.00    -0.021 C 
ATOM     11  C   UNL     1       2.873  -1.494  -0.434  0.00  0.00    +0.001 C 
ATOM     12  C   UNL     1       3.650  -0.339  -0.340  0.00  0.00    -0.004 C 
ATOM     13  C   UNL     1       3.879   2.117   0.068  0.00  0.00    +0.031 C 
ENDBRANCH   3   7
BRANCH   4  14
ATOM     14  C   UNL     1      -3.211   1.252  -0.783  0.00  0.00    +0.183 C 
BRANCH  14  15
ATOM     15  O   UNL     1      -4.576   0.883  -0.871  0.00  0.00    -0.378 OA
ATOM     16  H   UNL     1      -4.946   1.209  -1.706  0.00  0.00    +0.211 HD
ENDBRANCH  14  15
ENDBRANCH   4  14
TORSDOF 3
