1004
  -OEChem-10061700083D

  8  7  0     0  0  0  0  0  0999 V2000
    0.0936   -0.0002   -0.0071 P   0  0  0  0  0  0  0  0  0  0  0  0
   -0.6464   -0.8650   -1.1531 O   0  0  0  0  0  0  0  0  0  0  0  0
   -0.5406   -0.5569    1.3712 O   0  0  0  0  0  0  0  0  0  0  0  0
   -0.4998    1.4936   -0.1590 O   0  0  0  0  0  0  0  0  0  0  0  0
    1.5932   -0.0714   -0.0520 O   0  0  0  0  0  0  0  0  0  0  0  0
   -1.6269   -0.8815   -1.1776 H   0  0  0  0  0  0  0  0  0  0  0  0
   -1.5153   -0.5509    1.4820 H   0  0  0  0  0  0  0  0  0  0  0  0
   -0.1382    2.0806   -0.8567 H   0  0  0  0  0  0  0  0  0  0  0  0
  1  2  1  0  0  0  0
  1  3  1  0  0  0  0
  1  4  1  0  0  0  0
  1  5  2  0  0  0  0
  2  6  1  0  0  0  0
  3  7  1  0  0  0  0
  4  8  1  0  0  0  0
M  END
> <DATABASE_ID>
DB09394

> <DATABASE_NAME>
drugbank

> <ORIGINAL_SOURCE>
PUBCHEM

> <ORIGINAL_SOURCE_URL>
https://pubchem.ncbi.nlm.nih.gov/rest/pug/compound/inchikey/NBIIXXVUZAFLBC-UHFFFAOYSA-N/SDF?record_type=3d

> <SMILES>
OP(O)(O)=O

> <INCHI_IDENTIFIER>
InChI=1S/H3O4P/c1-5(2,3)4/h(H3,1,2,3,4)

> <INCHI_KEY>
NBIIXXVUZAFLBC-UHFFFAOYSA-N

> <FORMULA>
H3O4P

> <MOLECULAR_WEIGHT>
97.9952

> <EXACT_MASS>
97.976895096

> <JCHEM_ACCEPTOR_COUNT>
4

> <JCHEM_AVERAGE_POLARIZABILITY>
5.807259281547982

> <JCHEM_BIOAVAILABILITY>
1

> <JCHEM_DONOR_COUNT>
3

> <JCHEM_FORMAL_CHARGE>
0

> <JCHEM_GHOSE_FILTER>
0

> <JCHEM_IUPAC>
phosphoric acid

> <JCHEM_LOGP>
-1.0201038226666665

> <JCHEM_MDDR_LIKE_RULE>
0

> <JCHEM_NUMBER_OF_RINGS>
0

> <JCHEM_PHYSIOLOGICAL_CHARGE>
-2

> <JCHEM_PKA>
6.951626889535468

> <JCHEM_PKA_STRONGEST_ACIDIC>
1.7961261340181292

> <JCHEM_POLAR_SURFACE_AREA>
77.76

> <JCHEM_REFRACTIVITY>
14.651900000000001

> <JCHEM_ROTATABLE_BOND_COUNT>
0

> <JCHEM_RULE_OF_FIVE>
1

> <JCHEM_TRADITIONAL_IUPAC>
phosphoric acid

> <JCHEM_VEBER_RULE>
0

> <DRUGBANK_ID>
DB09394

> <DRUG_GROUPS>
approved

> <GENERIC_NAME>
Phosphoric acid

> <PRODUCTS>
Aminosyn; Anti Nausea; Anti Nausea Liquid; Anti Nausea Liquid Cherry Flavor; Best Choice Anti Nausea Cherry Flavor; Butler Protect One Minute Apf Fluoride Gel; Childrens Emetrol Cherry; Childrens Emetrol Dye Free Grape; Denti-care Acidulated Phosphate Fluoride; Discount Drug Mart nausea control Cherry Flavor; Emetrol Cherry; Emetrol Lemon Mint; Equaline Anti Nausea; Equate Anti Nausea; Formula Em; FreAmine III; Good Neighbor Pharmacy Anti Nausea; Good Neighbor Pharmacy Nausea Relief; Good Sense Anti Nausea; Good Sense Nausea Relief; Health Mart anti nausea; Henry Schein Minute Topical Fluoride Gel; HepatAmine; Leader Anti Nausea; Leader Nausea Relief; Nausea Relief; Nupro Apf Topical Gel; Orthocheck; Pascal Puff; Premier Value Nausea Control Cherry Flavor; ProcalAmine; Select Brand Anti-Nausea; Signature Care Anti Nausea; Smart Sense nausea relief; Sunmark Anti Nausea; Ziroxide Coarse Grit 1.23% Fluoride; Ziroxide Coarse Paste 1.23% Fluoride; Ziroxide Medium Fine Grit 1.23% Fluoride; Ziroxide Medium Fine Paste 1.23% Fluoride

$$$$
