REMARK  Name = 2239
REMARK  9 active torsions:
REMARK  status: ('A' for Active; 'I' for Inactive)
REMARK    1  A    between atoms: C_3  and  S_16
REMARK    2  A    between atoms: C_4  and  C_7
REMARK    3  A    between atoms: C_9  and  C_13
REMARK    4  A    between atoms: S_16  and  C_17
REMARK    5  A    between atoms: C_17  and  C_18
REMARK    6  A    between atoms: C_18  and  O_19
REMARK    7  A    between atoms: C_18  and  C_21
REMARK    8  A    between atoms: C_21  and  N_22
REMARK    9  A    between atoms: N_22  and  C_25
REMARK                            x       y       z     vdW  Elec       q    Type
REMARK                         _______ _______ _______ _____ _____    ______ ____
ROOT
ATOM      1  S   UNL     1      -0.165  -3.610   0.645  0.00  0.00    -0.068 S 
ATOM      2  N   UNL     1      -0.566  -1.206  -0.217  0.00  0.00    -0.392 NA
ATOM      3  C   UNL     1       0.330  -2.149  -0.087  0.00  0.00    +0.183 C 
ATOM      4  C   UNL     1      -1.759  -1.667   0.305  0.00  0.00    +0.127 C 
ATOM      5  C   UNL     1      -1.738  -2.947   0.818  0.00  0.00    +0.124 C 
ENDROOT
BRANCH   4   7
ATOM      6  S   UNL     1      -3.033   0.760  -0.322  0.00  0.00    -0.080 S 
ATOM      7  C   UNL     1      -2.974  -0.832   0.308  0.00  0.00    +0.056 C 
ATOM      8  C   UNL     1      -4.192  -1.232   0.813  0.00  0.00    +0.009 C 
ATOM      9  C   UNL     1      -4.690   0.916   0.080  0.00  0.00    +0.083 C 
ATOM     10  C   UNL     1      -5.186  -0.220   0.681  0.00  0.00    +0.012 C 
BRANCH   9  13
ATOM     11  O   UNL     1      -4.830   3.134  -0.763  0.00  0.00    -0.270 OA
ATOM     12  N   UNL     1      -6.725   2.240   0.108  0.00  0.00    -0.325 N 
ATOM     13  C   UNL     1      -5.367   2.134  -0.228  0.00  0.00    +0.249 C 
ATOM     14  H   UNL     1      -7.218   3.067  -0.092  0.00  0.00    +0.145 HD
ATOM     15  H   UNL     1      -7.184   1.485   0.543  0.00  0.00    +0.145 HD
ENDBRANCH   9  13
ENDBRANCH   4   7
BRANCH   3  16
ATOM     16  S   UNL     1       1.985  -1.902  -0.652  0.00  0.00    -0.074 S 
BRANCH  16  17
ATOM     17  C   UNL     1       1.838  -0.206  -1.298  0.00  0.00    +0.092 C 
BRANCH  17  18
ATOM     18  C   UNL     1       3.138   0.355  -1.891  0.00  0.00    +0.101 C 
BRANCH  18  19
ATOM     19  O   UNL     1       3.523  -0.437  -3.016  0.00  0.00    -0.386 OA
ATOM     20  H   UNL     1       4.344  -0.084  -3.394  0.00  0.00    +0.210 HD
ENDBRANCH  18  19
BRANCH  18  21
ATOM     21  C   UNL     1       4.337   0.439  -0.940  0.00  0.00    -0.051 C 
BRANCH  21  22
ATOM     22  N   UNL     1       4.043   1.226   0.245  0.00  0.00    +0.388 N 
ATOM     23  H   UNL     1       3.785   2.172  -0.036  0.00  0.00    -0.084 HD
ATOM     24  H   UNL     1       3.273   0.787   0.749  0.00  0.00    -0.084 HD
BRANCH  22  25
ATOM     25  C   UNL     1       5.213   1.287   1.127  0.00  0.00    -0.046 C 
ATOM     26  C   UNL     1       6.381   1.940   0.379  0.00  0.00    -0.022 C 
ATOM     27  C   UNL     1       5.586  -0.140   1.542  0.00  0.00    -0.022 C 
ATOM     28  C   UNL     1       4.850   2.116   2.364  0.00  0.00    -0.022 C 
ENDBRANCH  22  25
ENDBRANCH  21  22
ENDBRANCH  18  21
ENDBRANCH  17  18
ENDBRANCH  16  17
ENDBRANCH   3  16
TORSDOF 9
