REMARK  Name = 5284550
REMARK  3 active torsions:
REMARK  status: ('A' for Active; 'I' for Inactive)
REMARK    1  A    between atoms: C_6  and  C_17
REMARK    2  A    between atoms: C_17  and  C_18
REMARK    3  A    between atoms: C_18  and  N_19
REMARK                            x       y       z     vdW  Elec       q    Type
REMARK                         _______ _______ _______ _____ _____    ______ ____
ROOT
ATOM      1  S   UNL     1       2.974  -1.364   1.216  0.00  0.00    -0.109 S 
ATOM      2  C   UNL     1       0.337   0.398   0.031  0.00  0.00    -0.004 C 
ATOM      3  C   UNL     1      -0.053  -0.989  -0.287  0.00  0.00    -0.003 C 
ATOM      4  C   UNL     1       1.726   0.918  -0.074  0.00  0.00    +0.005 C 
ATOM      5  C   UNL     1       0.391  -2.036   0.537  0.00  0.00    -0.011 C 
ATOM      6  C   UNL     1      -0.634   1.193   0.520  0.00  0.00    -0.028 C 
ATOM      7  C   UNL     1       1.271  -1.742   1.720  0.00  0.00    +0.088 C 
ATOM      8  C   UNL     1       2.873   0.236   0.391  0.00  0.00    +0.026 C 
ATOM      9  C   UNL     1      -0.859  -1.269  -1.401  0.00  0.00    -0.000 C 
ATOM     10  C   UNL     1       0.024  -3.354   0.229  0.00  0.00    -0.003 C 
ATOM     11  C   UNL     1       1.898   2.156  -0.735  0.00  0.00    +0.000 C 
ATOM     12  C   UNL     1       4.139   0.831   0.193  0.00  0.00    +0.006 C 
ATOM     13  C   UNL     1      -1.220  -2.584  -1.693  0.00  0.00    -0.000 C 
ATOM     14  C   UNL     1      -0.779  -3.625  -0.879  0.00  0.00    -0.000 C 
ATOM     15  C   UNL     1       3.158   2.724  -0.915  0.00  0.00    +0.000 C 
ATOM     16  C   UNL     1       4.281   2.062  -0.447  0.00  0.00    +0.001 C 
ENDROOT
BRANCH   6  17
ATOM     17  C   UNL     1      -2.042   0.741   0.746  0.00  0.00    +0.003 C 
BRANCH  17  18
ATOM     18  C   UNL     1      -3.021   1.559  -0.096  0.00  0.00    -0.073 C 
BRANCH  18  19
ATOM     19  N   UNL     1      -4.386   1.092   0.121  0.00  0.00    +0.384 N 
ATOM     20  C   UNL     1      -5.325   1.846  -0.711  0.00  0.00    -0.101 C 
ATOM     21  C   UNL     1      -4.752   1.207   1.533  0.00  0.00    -0.101 C 
ATOM     22  H   UNL     1      -4.433   0.109  -0.147  0.00  0.00    -0.080 HD
ENDBRANCH  18  19
ENDBRANCH  17  18
ENDBRANCH   6  17
TORSDOF 3
