REMARK  Name = 19063
REMARK  5 active torsions:
REMARK  status: ('A' for Active; 'I' for Inactive)
REMARK    1  A    between atoms: N_2  and  N_5
REMARK    2  A    between atoms: C_3  and  C_10
REMARK    3  A    between atoms: N_5  and  C_7
REMARK    4  A    between atoms: C_10  and  O_11
REMARK    5  A    between atoms: O_11  and  C_13
REMARK                            x       y       z     vdW  Elec       q    Type
REMARK                         _______ _______ _______ _____ _____    ______ ____
ROOT
ATOM      1  O   UNL     1       1.880   1.633   0.647  0.00  0.00    -0.270 OA
ATOM      2  N   UNL     1       2.736   0.087  -0.866  0.00  0.00    -0.247 N 
ATOM      3  C   UNL     1       1.728   0.807  -0.249  0.00  0.00    +0.280 C 
ATOM      4  H   UNL     1       2.525  -0.558  -1.579  0.00  0.00    +0.169 HD
ENDROOT
BRANCH   2   5
ATOM      5  N   UNL     1       4.047   0.287  -0.467  0.00  0.00    -0.231 NA
ATOM      6  H   UNL     1       4.068   0.972   0.289  0.00  0.00    +0.145 HD
BRANCH   5   7
ATOM      7  C   UNL     1       4.628  -0.963   0.002  0.00  0.00    +0.072 C 
ATOM      8  C   UNL     1       3.875  -1.470   1.229  0.00  0.00    +0.019 C 
ATOM      9  C   UNL     1       6.106  -0.750   0.315  0.00  0.00    +0.019 C 
ENDBRANCH   5   7
ENDBRANCH   2   5
BRANCH   3  10
ATOM     10  C   UNL     1       0.369   0.458  -0.818  0.00  0.00    +0.291 C 
BRANCH  10  11
ATOM     11  O   UNL     1      -0.647   1.191  -0.167  0.00  0.00    -0.466 OA
BRANCH  11  13
ATOM     12 CL   UNL     1      -5.936  -1.326   0.236  0.00  0.00    -0.082 Cl
ATOM     13  C   UNL     1      -1.885   0.601  -0.072  0.00  0.00    +0.139 C 
ATOM     14  C   UNL     1      -2.296  -0.287  -1.056  0.00  0.00    +0.038 C 
ATOM     15  C   UNL     1      -2.705   0.902   1.006  0.00  0.00    +0.038 C 
ATOM     16  C   UNL     1      -3.553  -0.885  -0.961  0.00  0.00    +0.015 C 
ATOM     17  C   UNL     1      -3.962   0.305   1.102  0.00  0.00    +0.015 C 
ATOM     18  C   UNL     1      -4.386  -0.589   0.118  0.00  0.00    +0.058 C 
ENDBRANCH  11  13
ENDBRANCH  10  11
ENDBRANCH   3  10
TORSDOF 5
