REMARK  Name = 2577
REMARK  5 active torsions:
REMARK  status: ('A' for Active; 'I' for Inactive)
REMARK    1  A    between atoms: N_5  and  C_15
REMARK    2  A    between atoms: C_15  and  C_16
REMARK    3  A    between atoms: C_16  and  C_17
REMARK    4  A    between atoms: C_17  and  C_18
REMARK    5  A    between atoms: C_18  and  C_19
REMARK                            x       y       z     vdW  Elec       q    Type
REMARK                         _______ _______ _______ _____ _____    ______ ____
ROOT
ATOM      1  F   UNL     1       4.538  -0.227   1.700  0.00  0.00    -0.198 F 
ATOM      2  O   UNL     1       0.254  -2.391   0.757  0.00  0.00    -0.252 OA
ATOM      3  O   UNL     1       0.606   0.899  -1.834  0.00  0.00    -0.251 OA
ATOM      4  O   UNL     1       4.695   1.895   0.014  0.00  0.00    -0.267 OA
ATOM      5  N   UNL     1      -0.756  -1.169  -0.902  0.00  0.00    -0.288 N 
ATOM      6  N   UNL     1       1.380  -0.502  -0.092  0.00  0.00    -0.173 N 
ATOM      7  N   UNL     1       2.626   1.380  -0.889  0.00  0.00    -0.233 N 
ATOM      8  C   UNL     1       0.287  -1.429  -0.017  0.00  0.00    +0.315 C 
ATOM      9  C   UNL     1       1.461   0.603  -0.995  0.00  0.00    +0.321 C 
ATOM     10  C   UNL     1       2.442  -0.734   0.782  0.00  0.00    +0.112 C 
ATOM     11  C   UNL     1       3.533   0.025   0.841  0.00  0.00    +0.209 C 
ATOM     12  C   UNL     1       3.696   1.187  -0.033  0.00  0.00    +0.282 C 
ATOM     13  H   UNL     1      -0.686  -0.391  -1.501  0.00  0.00    +0.151 HD
ATOM     14  H   UNL     1       2.688   2.153  -1.496  0.00  0.00    +0.159 HD
ENDROOT
BRANCH   5  15
ATOM     15  C   UNL     1      -1.936  -1.999  -0.973  0.00  0.00    +0.091 C 
BRANCH  15  16
ATOM     16  C   UNL     1      -3.040  -1.531  -0.030  0.00  0.00    +0.021 C 
BRANCH  16  17
ATOM     17  C   UNL     1      -3.520  -0.111  -0.347  0.00  0.00    +0.002 C 
BRANCH  17  18
ATOM     18  C   UNL     1      -4.667   0.304   0.579  0.00  0.00    +0.000 C 
BRANCH  18  19
ATOM     19  C   UNL     1      -5.206   1.706   0.286  0.00  0.00    +0.000 C 
ATOM     20  C   UNL     1      -6.392   2.095   1.155  0.00  0.00    +0.000 C 
ENDBRANCH  18  19
ENDBRANCH  17  18
ENDBRANCH  16  17
ENDBRANCH  15  16
ENDBRANCH   5  15
TORSDOF 5
