REMARK  Name = 7172
REMARK  5 active torsions:
REMARK  status: ('A' for Active; 'I' for Inactive)
REMARK    1  A    between atoms: C_1  and  C_2
REMARK    2  A    between atoms: C_1  and  O_10
REMARK    3  A    between atoms: C_1  and  C_12
REMARK    4  A    between atoms: C_7  and  O_8
REMARK    5  A    between atoms: C_12  and  N_13
REMARK                            x       y       z     vdW  Elec       q    Type
REMARK                         _______ _______ _______ _____ _____    ______ ____
ROOT
ATOM      1  C   UNL     1      -1.437   1.096   0.309  0.00  0.00    +0.112 C 
ENDROOT
BRANCH   1   2
ATOM      2  C   UNL     1      -0.046   0.576   0.172  0.00  0.00    +0.002 C 
ATOM      3  C   UNL     1       0.751   0.408   1.305  0.00  0.00    +0.001 C 
ATOM      4  C   UNL     1       0.458   0.257  -1.089  0.00  0.00    +0.001 C 
ATOM      5  C   UNL     1       2.052  -0.079   1.177  0.00  0.00    +0.036 C 
ATOM      6  C   UNL     1       1.759  -0.230  -1.216  0.00  0.00    +0.036 C 
ATOM      7  C   UNL     1       2.556  -0.398  -0.084  0.00  0.00    +0.134 C 
BRANCH   7   8
ATOM      8  O   UNL     1       3.826  -0.872  -0.208  0.00  0.00    -0.506 OA
ATOM      9  H   UNL     1       4.361  -0.984   0.553  0.00  0.00    +0.292 HD
ENDBRANCH   7   8
ENDBRANCH   1   2
BRANCH   1  10
ATOM     10  O   UNL     1      -1.533   2.357  -0.366  0.00  0.00    -0.382 OA
ATOM     11  H   UNL     1      -2.436   2.701  -0.282  0.00  0.00    +0.211 HD
ENDBRANCH   1  10
BRANCH   1  12
ATOM     12  C   UNL     1      -2.483   0.122  -0.271  0.00  0.00    -0.047 C 
BRANCH  12  13
ATOM     13  N   UNL     1      -2.447  -1.171   0.407  0.00  0.00    +0.384 N 
ATOM     14  C   UNL     1      -3.456  -2.067  -0.136  0.00  0.00    -0.106 C 
ATOM     15  H   UNL     1      -2.623  -1.032   1.402  0.00  0.00    -0.085 HD
ATOM     16  H   UNL     1      -1.527  -1.590   0.265  0.00  0.00    -0.085 HD
ENDBRANCH  12  13
ENDBRANCH   1  12
TORSDOF 5
