REMARK  Name = 252141
REMARK  5 active torsions:
REMARK  status: ('A' for Active; 'I' for Inactive)
REMARK    1  A    between atoms: N_1  and  C_19
REMARK    2  A    between atoms: C_2  and  N_9
REMARK    3  A    between atoms: N_9  and  C_11
REMARK    4  A    between atoms: C_10  and  C_17
REMARK    5  A    between atoms: C_19  and  C_20
REMARK                            x       y       z     vdW  Elec       q    Type
REMARK                         _______ _______ _______ _____ _____    ______ ____
ROOT
ATOM      1  N   UNL     1       1.796   0.624   0.998  0.00  0.00    +0.390 N 
ATOM      2  C   UNL     1      -0.979   1.163   0.243  0.00  0.00    +0.076 C 
ATOM      3  C   UNL     1       0.045   0.612  -0.749  0.00  0.00    -0.003 C 
ATOM      4  C   UNL     1      -0.578   0.797   1.673  0.00  0.00    -0.003 C 
ATOM      5  C   UNL     1       1.466   1.035  -0.373  0.00  0.00    -0.075 C 
ATOM      6  C   UNL     1       0.864   1.214   1.969  0.00  0.00    -0.075 C 
ATOM      7  H   UNL     1       1.706  -0.391   1.052  0.00  0.00    -0.079 HD
ENDROOT
BRANCH   2   9
ATOM      8  O   UNL     1      -3.332   2.775  -0.480  0.00  0.00    -0.275 OA
ATOM      9  N   UNL     1      -2.304   0.681  -0.057  0.00  0.00    -0.260 N 
ATOM     10  C   UNL     1      -3.387   1.545  -0.399  0.00  0.00    +0.229 C 
BRANCH   9  11
ATOM     11  C   UNL     1      -2.550  -0.758  -0.009  0.00  0.00    +0.054 C 
ATOM     12  C   UNL     1      -2.358  -1.470  -1.156  0.00  0.00    +0.015 C 
ATOM     13  C   UNL     1      -2.952  -1.291   1.179  0.00  0.00    +0.015 C 
ATOM     14  C   UNL     1      -2.592  -2.845  -1.110  0.00  0.00    +0.001 C 
ATOM     15  C   UNL     1      -3.186  -2.666   1.225  0.00  0.00    +0.001 C 
ATOM     16  C   UNL     1      -3.006  -3.442   0.080  0.00  0.00    +0.000 C 
ENDBRANCH   9  11
BRANCH  10  17
ATOM     17  C   UNL     1      -4.721   0.843  -0.635  0.00  0.00    +0.086 C 
ATOM     18  C   UNL     1      -5.837   1.806  -1.011  0.00  0.00    +0.010 C 
ENDBRANCH  10  17
ENDBRANCH   2   9
BRANCH   1  19
ATOM     19  C   UNL     1       3.175   0.990   1.325  0.00  0.00    -0.050 C 
BRANCH  19  20
ATOM     20  C   UNL     1       4.164   0.334   0.398  0.00  0.00    -0.043 C 
ATOM     21  C   UNL     1       4.686  -0.909   0.727  0.00  0.00    -0.006 C 
ATOM     22  C   UNL     1       4.539   0.982  -0.771  0.00  0.00    -0.006 C 
ATOM     23  C   UNL     1       5.603  -1.517  -0.131  0.00  0.00    -0.000 C 
ATOM     24  C   UNL     1       5.455   0.373  -1.629  0.00  0.00    -0.000 C 
ATOM     25  C   UNL     1       5.987  -0.876  -1.309  0.00  0.00    -0.000 C 
ENDBRANCH  19  20
ENDBRANCH   1  19
TORSDOF 5
