REMARK  Name = 10993014
REMARK  5 active torsions:
REMARK  status: ('A' for Active; 'I' for Inactive)
REMARK    1  A    between atoms: N_2  and  C_7
REMARK    2  A    between atoms: C_3  and  C_18
REMARK    3  A    between atoms: N_5  and  C_15
REMARK    4  A    between atoms: C_19  and  O_27
REMARK    5  A    between atoms: C_23  and  N_24
REMARK                            x       y       z     vdW  Elec       q    Type
REMARK                         _______ _______ _______ _____ _____    ______ ____
ROOT
ATOM      1  O   UNL     1      -0.162   1.228   1.630  0.00  0.00    -0.270 OA
ATOM      2  N   UNL     1       0.572  -0.176  -0.063  0.00  0.00    -0.307 N 
ATOM      3  C   UNL     1      -0.391   0.435   0.721  0.00  0.00    +0.249 C 
ATOM      4  H   UNL     1       0.285  -0.798  -0.769  0.00  0.00    +0.150 HD
ENDROOT
BRANCH   2   7
ATOM      5  N   UNL     1       4.147  -1.105   0.294  0.00  0.00    +0.387 N 
ATOM      6  N   UNL     1       3.823   1.664  -0.608  0.00  0.00    +0.385 N 
ATOM      7  C   UNL     1       1.989   0.070   0.122  0.00  0.00    +0.031 C 
ATOM      8  C   UNL     1       2.772  -1.210  -0.199  0.00  0.00    -0.060 C 
ATOM      9  C   UNL     1       2.393   1.315  -0.680  0.00  0.00    -0.060 C 
ATOM     10  C   UNL     1       5.074  -0.526  -0.683  0.00  0.00    -0.101 C 
ATOM     11  C   UNL     1       4.624   0.740  -1.425  0.00  0.00    -0.101 C 
ATOM     12  C   UNL     1       4.006   3.037  -1.097  0.00  0.00    -0.101 C 
ATOM     13  H   UNL     1       4.105  -0.462   1.085  0.00  0.00    -0.080 HD
ATOM     14  H   UNL     1       4.134   1.592   0.361  0.00  0.00    -0.080 HD
BRANCH   5  15
ATOM     15  C   UNL     1       4.649  -2.405   0.745  0.00  0.00    -0.077 C 
ATOM     16  C   UNL     1       6.028  -2.275   1.368  0.00  0.00    -0.025 C 
ENDBRANCH   5  15
ENDBRANCH   2   7
BRANCH   3  18
ATOM     17 BR   UNL     1      -3.666  -3.327  -1.032  0.00  0.00    -0.048 Br
ATOM     18  C   UNL     1      -1.797   0.059   0.423  0.00  0.00    +0.088 C 
ATOM     19  C   UNL     1      -2.812   0.968   0.642  0.00  0.00    +0.144 C 
ATOM     20  C   UNL     1      -2.040  -1.208  -0.070  0.00  0.00    +0.015 C 
ATOM     21  C   UNL     1      -4.125   0.596   0.355  0.00  0.00    +0.052 C 
ATOM     22  C   UNL     1      -3.353  -1.581  -0.356  0.00  0.00    +0.048 C 
ATOM     23  C   UNL     1      -4.396  -0.679  -0.143  0.00  0.00    +0.054 C 
BRANCH  23  24
ATOM     24  N   UNL     1      -5.738  -1.023  -0.423  0.00  0.00    -0.331 N 
ATOM     25  C   UNL     1      -6.716  -0.061  -0.823  0.00  0.00    +0.109 C 
ATOM     26  H   UNL     1      -6.010  -1.965  -0.338  0.00  0.00    +0.147 HD
ENDBRANCH  23  24
BRANCH  19  27
ATOM     27  O   UNL     1      -2.567   2.217   1.128  0.00  0.00    -0.471 OA
ATOM     28  C   UNL     1      -2.317   3.246   0.174  0.00  0.00    +0.252 C 
ENDBRANCH  19  27
ENDBRANCH   3  18
TORSDOF 5
