REMARK  Name = 7187
REMARK  5 active torsions:
REMARK  status: ('A' for Active; 'I' for Inactive)
REMARK    1  A    between atoms: O_1  and  C_3
REMARK    2  A    between atoms: O_1  and  O_10
REMARK    3  A    between atoms: C_3  and  C_4
REMARK    4  A    between atoms: O_10  and  C_12
REMARK    5  A    between atoms: C_12  and  C_13
REMARK                            x       y       z     vdW  Elec       q    Type
REMARK                         _______ _______ _______ _____ _____    ______ ____
ROOT
ATOM      1  O   UNL     1      -0.667  -0.268  -0.001  0.00  0.00    -0.241 OA
ENDROOT
BRANCH   1   3
ATOM      2  O   UNL     1      -1.204   1.974   0.006  0.00  0.00    -0.241 OA
ATOM      3  C   UNL     1      -1.544   0.784  -0.001  0.00  0.00    +0.388 C 
BRANCH   3   4
ATOM      4  C   UNL     1      -2.924   0.324  -0.001  0.00  0.00    +0.080 C 
ATOM      5  C   UNL     1      -3.915   1.091   0.611  0.00  0.00    +0.007 C 
ATOM      6  C   UNL     1      -3.255  -0.885  -0.613  0.00  0.00    +0.007 C 
ATOM      7  C   UNL     1      -5.238   0.649   0.611  0.00  0.00    +0.000 C 
ATOM      8  C   UNL     1      -4.578  -1.327  -0.612  0.00  0.00    +0.000 C 
ATOM      9  C   UNL     1      -5.569  -0.560   0.000  0.00  0.00    +0.000 C 
ENDBRANCH   3   4
ENDBRANCH   1   3
BRANCH   1  10
ATOM     10  O   UNL     1       0.686   0.275  -0.001  0.00  0.00    -0.241 OA
BRANCH  10  12
ATOM     11  O   UNL     1       1.222  -1.968   0.006  0.00  0.00    -0.241 OA
ATOM     12  C   UNL     1       1.534  -0.787  -0.001  0.00  0.00    +0.388 C 
BRANCH  12  13
ATOM     13  C   UNL     1       2.943  -0.318  -0.001  0.00  0.00    +0.080 C 
ATOM     14  C   UNL     1       3.905  -1.095   0.610  0.00  0.00    +0.007 C 
ATOM     15  C   UNL     1       3.246   0.882  -0.612  0.00  0.00    +0.007 C 
ATOM     16  C   UNL     1       5.229  -0.653   0.610  0.00  0.00    +0.000 C 
ATOM     17  C   UNL     1       4.569   1.324  -0.612  0.00  0.00    +0.000 C 
ATOM     18  C   UNL     1       5.560   0.556  -0.001  0.00  0.00    +0.000 C 
ENDBRANCH  12  13
ENDBRANCH  10  12
ENDBRANCH   1  10
TORSDOF 5
