REMARK  Name = 9574768
REMARK  12 active torsions:
REMARK  status: ('A' for Active; 'I' for Inactive)
REMARK    1  A    between atoms: P_1  and  N_3
REMARK    2  A    between atoms: P_1  and  O_13
REMARK    3  A    between atoms: P_1  and  C_20
REMARK    4  A    between atoms: N_3  and  C_5
REMARK    5  A    between atoms: C_5  and  C_8
REMARK    6  A    between atoms: C_8  and  O_9
REMARK    7  A    between atoms: O_9  and  C_10
REMARK    8  A    between atoms: O_13  and  C_14
REMARK    9  A    between atoms: C_20  and  O_21
REMARK   10  A    between atoms: O_21  and  C_22
REMARK   11  A    between atoms: C_22  and  C_24
REMARK   12  A    between atoms: C_24  and  N_25
REMARK                            x       y       z     vdW  Elec       q    Type
REMARK                         _______ _______ _______ _____ _____    ______ ____
ROOT
ATOM      1  P   UNL     1       1.206   0.059  -1.208  0.00  0.00    +0.358 P 
ATOM      2  O   UNL     1       2.169  -0.396  -2.274  0.00  0.00    -0.256 OA
ENDROOT
BRANCH   1   3
ATOM      3  N   UNL     1       1.774   0.230   0.338  0.00  0.00    -0.215 NA
ATOM      4  H   UNL     1       1.957  -0.709   0.693  0.00  0.00    +0.134 HD
BRANCH   3   5
ATOM      5  C   UNL     1       2.976   1.013   0.573  0.00  0.00    +0.162 C 
ATOM      6  C   UNL     1       2.928   1.625   1.966  0.00  0.00    +0.030 C 
BRANCH   5   8
ATOM      7  O   UNL     1       4.191  -1.098   0.717  0.00  0.00    -0.249 OA
ATOM      8  C   UNL     1       4.174   0.093   0.433  0.00  0.00    +0.332 C 
BRANCH   8   9
ATOM      9  O   UNL     1       5.231   0.804  -0.065  0.00  0.00    -0.451 OA
BRANCH   9  10
ATOM     10  C   UNL     1       6.527   0.350   0.338  0.00  0.00    +0.169 C 
ATOM     11  C   UNL     1       7.589   1.216  -0.321  0.00  0.00    +0.047 C 
ATOM     12  C   UNL     1       6.622   0.393   1.856  0.00  0.00    +0.047 C 
ENDBRANCH   9  10
ENDBRANCH   8   9
ENDBRANCH   5   8
ENDBRANCH   3   5
ENDBRANCH   1   3
BRANCH   1  13
ATOM     13  O   UNL     1      -0.116  -0.876  -1.162  0.00  0.00    -0.429 OA
BRANCH  13  14
ATOM     14  C   UNL     1      -0.125  -2.212  -0.862  0.00  0.00    +0.146 C 
ATOM     15  C   UNL     1       1.070  -2.860  -0.566  0.00  0.00    +0.037 C 
ATOM     16  C   UNL     1      -1.329  -2.909  -0.855  0.00  0.00    +0.037 C 
ATOM     17  C   UNL     1       1.061  -4.221  -0.260  0.00  0.00    +0.003 C 
ATOM     18  C   UNL     1      -1.337  -4.270  -0.549  0.00  0.00    +0.003 C 
ATOM     19  C   UNL     1      -0.142  -4.926  -0.252  0.00  0.00    +0.000 C 
ENDBRANCH  13  14
ENDBRANCH   1  13
BRANCH   1  20
ATOM     20  C   UNL     1       0.490   1.650  -1.657  0.00  0.00    +0.258 C 
BRANCH  20  21
ATOM     21  O   UNL     1      -0.552   1.879  -0.718  0.00  0.00    -0.343 OA
BRANCH  21  22
ATOM     22  C   UNL     1      -1.217   3.110  -0.968  0.00  0.00    +0.136 C 
ATOM     23  C   UNL     1      -0.179   4.218  -0.857  0.00  0.00    +0.034 C 
BRANCH  22  24
ATOM     24  C   UNL     1      -2.342   3.312   0.051  0.00  0.00    +0.123 C 
BRANCH  24  25
ATOM     25  N   UNL     1      -3.357   2.261  -0.012  0.00  0.00    -0.269 N 
ATOM     26  N   UNL     1      -5.195   1.201  -0.633  0.00  0.00    -0.242 NA
ATOM     27  N   UNL     1      -2.441   0.668   1.572  0.00  0.00    -0.228 NA
ATOM     28  N   UNL     1      -3.882  -1.293   1.762  0.00  0.00    -0.229 NA
ATOM     29  C   UNL     1      -3.353   1.101   0.687  0.00  0.00    +0.151 C 
ATOM     30  C   UNL     1      -4.470   2.289  -0.790  0.00  0.00    +0.221 C 
ATOM     31  C   UNL     1      -4.508   0.450   0.287  0.00  0.00    +0.140 C 
ATOM     32  C   UNL     1      -4.760  -0.793   0.860  0.00  0.00    +0.143 C 
ATOM     33  C   UNL     1      -2.793  -0.542   2.058  0.00  0.00    +0.253 C 
ATOM     34  N   UNL     1      -5.908  -1.525   0.511  0.00  0.00    -0.342 N 
ATOM     35  H   UNL     1      -6.076  -2.403   0.923  0.00  0.00    +0.144 HD
ATOM     36  H   UNL     1      -6.544  -1.159  -0.146  0.00  0.00    +0.144 HD
ENDBRANCH  24  25
ENDBRANCH  22  24
ENDBRANCH  21  22
ENDBRANCH  20  21
ENDBRANCH   1  20
TORSDOF 12
