REMARK  Name = 5360410
REMARK  3 active torsions:
REMARK  status: ('A' for Active; 'I' for Inactive)
REMARK    1  A    between atoms: N_3  and  C_11
REMARK    2  A    between atoms: N_3  and  N_14
REMARK    3  A    between atoms: C_4  and  O_20
REMARK                            x       y       z     vdW  Elec       q    Type
REMARK                         _______ _______ _______ _____ _____    ______ ____
ROOT
ATOM      1  O   UNL     1       1.555  -1.733   0.148  0.00  0.00    -0.289 OA
ATOM      2  N   UNL     1      -3.180  -0.865   0.063  0.00  0.00    -0.306 N 
ATOM      3  C   UNL     1      -2.932   1.463  -0.238  0.00  0.00    +0.153 C 
ATOM      4  C   UNL     1      -3.954   0.316  -0.318  0.00  0.00    +0.125 C 
ATOM      5  C   UNL     1      -1.593   0.775  -0.213  0.00  0.00    +0.017 C 
ATOM      6  C   UNL     1      -1.818  -0.639   0.022  0.00  0.00    +0.031 C 
ATOM      7  C   UNL     1      -0.394   1.333  -0.392  0.00  0.00    +0.020 C 
ATOM      8  C   UNL     1      -0.803  -1.503   0.146  0.00  0.00    +0.111 C 
ATOM      9  C   UNL     1      -3.842  -2.147   0.158  0.00  0.00    +0.112 C 
ATOM     10  C   UNL     1       0.794   0.457  -0.301  0.00  0.00    +0.122 C 
ATOM     11  C   UNL     1       0.584  -1.004   0.016  0.00  0.00    +0.195 C 
ENDROOT
BRANCH   3  12
ATOM     12  O   UNL     1      -3.122   2.195   0.968  0.00  0.00    -0.378 OA
ATOM     13  H   UNL     1      -3.986   2.636   0.946  0.00  0.00    +0.211 HD
ENDBRANCH   3  12
BRANCH  10  14
ATOM     14  N   UNL     1       2.009   0.860  -0.472  0.00  0.00    -0.144 NA
BRANCH  14  16
ATOM     15  O   UNL     1       4.566   1.329   0.431  0.00  0.00    -0.251 OA
ATOM     16  N   UNL     1       2.927  -0.123  -0.340  0.00  0.00    -0.200 N 
ATOM     17  N   UNL     1       5.013  -0.911   0.201  0.00  0.00    -0.312 N 
ATOM     18  C   UNL     1       4.192   0.199   0.121  0.00  0.00    +0.315 C 
ATOM     19  H   UNL     1       2.700  -1.053  -0.569  0.00  0.00    +0.176 HD
ATOM     20  H   UNL     1       5.941  -0.816   0.516  0.00  0.00    +0.147 HD
ATOM     21  H   UNL     1       4.670  -1.797  -0.058  0.00  0.00    +0.147 HD
ENDBRANCH  14  16
ENDBRANCH  10  14
TORSDOF 3
