REMARK  Name = 5386
REMARK  1 active torsions:
REMARK  status: ('A' for Active; 'I' for Inactive)
REMARK    1  A    between atoms: N_4  and  C_12
REMARK                            x       y       z     vdW  Elec       q    Type
REMARK                         _______ _______ _______ _____ _____    ______ ____
ROOT
ATOM      1  F   UNL     1       2.176  -2.357   0.156  0.00  0.00    -0.198 F 
ATOM      2  O   UNL     1       0.164   2.648  -0.231  0.00  0.00    -0.252 OA
ATOM      3  O   UNL     1       3.792  -0.172   0.205  0.00  0.00    -0.267 OA
ATOM      4  N   UNL     1      -0.210   0.343  -0.165  0.00  0.00    -0.216 N 
ATOM      5  N   UNL     1       1.969   1.244  -0.013  0.00  0.00    -0.234 N 
ATOM      6  C   UNL     1       0.594   1.495  -0.144  0.00  0.00    +0.316 C 
ATOM      7  C   UNL     1       0.333  -0.922  -0.065  0.00  0.00    +0.105 C 
ATOM      8  C   UNL     1       1.643  -1.126   0.058  0.00  0.00    +0.208 C 
ATOM      9  C   UNL     1       2.584   0.004   0.093  0.00  0.00    +0.282 C 
ATOM     10  H   UNL     1       2.561   2.031   0.006  0.00  0.00    +0.159 HD
ENDROOT
BRANCH   4  12
ATOM     11  O   UNL     1      -2.135  -0.679  -1.025  0.00  0.00    -0.337 OA
ATOM     12  C   UNL     1      -1.633   0.450  -0.294  0.00  0.00    +0.199 C 
ATOM     13  C   UNL     1      -2.349   0.462   1.044  0.00  0.00    +0.054 C 
ATOM     14  C   UNL     1      -3.672  -0.170   0.695  0.00  0.00    +0.036 C 
ATOM     15  C   UNL     1      -3.256  -1.219  -0.313  0.00  0.00    +0.144 C 
ENDBRANCH   4  12
TORSDOF 1
