REMARK  Name = 68865
REMARK  7 active torsions:
REMARK  status: ('A' for Active; 'I' for Inactive)
REMARK    1  A    between atoms: C_1  and  O_12
REMARK    2  A    between atoms: C_2  and  N_8
REMARK    3  A    between atoms: O_12  and  C_14
REMARK    4  A    between atoms: C_14  and  C_15
REMARK    5  A    between atoms: C_15  and  N_16
REMARK    6  A    between atoms: N_16  and  C_18
REMARK    7  A    between atoms: N_16  and  C_20
REMARK                            x       y       z     vdW  Elec       q    Type
REMARK                         _______ _______ _______ _____ _____    ______ ____
ROOT
ATOM      1  C   UNL     1       0.385  -0.278   0.800  0.00  0.00    +0.148 C 
ATOM      2  C   UNL     1       3.007   0.378   0.274  0.00  0.00    +0.051 C 
ATOM      3  C   UNL     1       1.220  -1.248   0.292  0.00  0.00    +0.039 C 
ATOM      4  C   UNL     1       0.809   1.008   1.055  0.00  0.00    +0.039 C 
ATOM      5  C   UNL     1       2.549  -0.915   0.026  0.00  0.00    +0.018 C 
ATOM      6  C   UNL     1       2.138   1.340   0.789  0.00  0.00    +0.018 C 
ENDROOT
BRANCH   2   8
ATOM      7  O   UNL     1       5.257  -1.294  -0.826  0.00  0.00    -0.275 OA
ATOM      8  N   UNL     1       4.336   0.710   0.007  0.00  0.00    -0.284 N 
ATOM      9  C   UNL     1       5.347  -0.113  -0.506  0.00  0.00    +0.227 C 
ATOM     10  C   UNL     1       6.653   0.628  -0.648  0.00  0.00    +0.095 C 
ATOM     11  H   UNL     1       4.595   1.639   0.204  0.00  0.00    +0.155 HD
ENDBRANCH   2   8
BRANCH   1  12
ATOM     12  O   UNL     1      -0.945  -0.611   1.069  0.00  0.00    -0.426 OA
BRANCH  12  14
ATOM     13  O   UNL     1      -1.464   0.035  -1.117  0.00  0.00    -0.252 OA
ATOM     14  C   UNL     1      -1.790  -0.397  -0.020  0.00  0.00    +0.300 C 
BRANCH  14  15
ATOM     15  C   UNL     1      -3.186  -0.792   0.397  0.00  0.00    +0.035 C 
BRANCH  15  16
ATOM     16  N   UNL     1      -4.150   0.020  -0.344  0.00  0.00    +0.394 N 
ATOM     17  H   UNL     1      -4.003  -0.135  -1.342  0.00  0.00    -0.079 HD
BRANCH  16  18
ATOM     18  C   UNL     1      -5.517  -0.377  -0.009  0.00  0.00    -0.077 C 
ATOM     19  C   UNL     1      -5.766  -1.835  -0.354  0.00  0.00    -0.025 C 
ENDBRANCH  16  18
BRANCH  16  20
ATOM     20  C   UNL     1      -3.946   1.440  -0.061  0.00  0.00    -0.077 C 
ATOM     21  C   UNL     1      -4.939   2.300  -0.824  0.00  0.00    -0.025 C 
ENDBRANCH  16  20
ENDBRANCH  15  16
ENDBRANCH  14  15
ENDBRANCH  12  14
ENDBRANCH   1  12
TORSDOF 7
