REMARK  Name = 5573
REMARK  10 active torsions:
REMARK  status: ('A' for Active; 'I' for Inactive)
REMARK    1  A    between atoms: O_1  and  C_3
REMARK    2  A    between atoms: O_1  and  C_16
REMARK    3  A    between atoms: C_3  and  C_4
REMARK    4  A    between atoms: C_7  and  O_10
REMARK    5  A    between atoms: C_8  and  O_12
REMARK    6  A    between atoms: C_9  and  O_14
REMARK    7  A    between atoms: C_16  and  C_17
REMARK    8  A    between atoms: C_17  and  C_18
REMARK    9  A    between atoms: C_17  and  N_24
REMARK   10  A    between atoms: C_17  and  C_28
REMARK                            x       y       z     vdW  Elec       q    Type
REMARK                         _______ _______ _______ _____ _____    ______ ____
ROOT
ATOM      1  O   UNL     1       0.643  -0.997  -0.232  0.00  0.00    -0.447 OA
ENDROOT
BRANCH   1   3
ATOM      2  O   UNL     1      -0.378  -2.408  -1.737  0.00  0.00    -0.245 OA
ATOM      3  C   UNL     1      -0.418  -1.510  -0.910  0.00  0.00    +0.341 C 
BRANCH   3   4
ATOM      4  C   UNL     1      -1.674  -0.824  -0.514  0.00  0.00    +0.082 C 
ATOM      5  C   UNL     1      -1.641   0.509  -0.105  0.00  0.00    +0.047 C 
ATOM      6  C   UNL     1      -2.887  -1.512  -0.553  0.00  0.00    +0.047 C 
ATOM      7  C   UNL     1      -4.067  -0.866  -0.183  0.00  0.00    +0.176 C 
ATOM      8  C   UNL     1      -2.821   1.155   0.265  0.00  0.00    +0.176 C 
ATOM      9  C   UNL     1      -4.034   0.467   0.226  0.00  0.00    +0.206 C 
BRANCH   7  10
ATOM     10  O   UNL     1      -5.245  -1.549  -0.226  0.00  0.00    -0.468 OA
ATOM     11  C   UNL     1      -5.633  -2.247   0.956  0.00  0.00    +0.253 C 
ENDBRANCH   7  10
BRANCH   8  12
ATOM     12  O   UNL     1      -2.776   2.457   0.662  0.00  0.00    -0.468 OA
ATOM     13  C   UNL     1      -1.496   3.087   0.674  0.00  0.00    +0.253 C 
ENDBRANCH   8  12
BRANCH   9  14
ATOM     14  O   UNL     1      -5.187   1.097   0.589  0.00  0.00    -0.465 OA
ATOM     15  C   UNL     1      -5.909   1.769  -0.440  0.00  0.00    +0.253 C 
ENDBRANCH   9  14
ENDBRANCH   3   4
ENDBRANCH   1   3
BRANCH   1  16
ATOM     16  C   UNL     1       1.911  -1.576  -0.528  0.00  0.00    +0.194 C 
BRANCH  16  17
ATOM     17  C   UNL     1       3.032  -0.904   0.309  0.00  0.00    +0.018 C 
BRANCH  17  18
ATOM     18  C   UNL     1       3.102   0.602   0.006  0.00  0.00    -0.037 C 
ATOM     19  C   UNL     1       2.739   1.077  -1.255  0.00  0.00    -0.006 C 
ATOM     20  C   UNL     1       3.526   1.494   0.991  0.00  0.00    -0.006 C 
ATOM     21  C   UNL     1       2.802   2.443  -1.530  0.00  0.00    -0.000 C 
ATOM     22  C   UNL     1       3.589   2.860   0.716  0.00  0.00    -0.000 C 
ATOM     23  C   UNL     1       3.227   3.334  -0.544  0.00  0.00    -0.000 C 
ENDBRANCH  17  18
BRANCH  17  24
ATOM     24  N   UNL     1       4.285  -1.616  -0.013  0.00  0.00    +0.391 N 
ATOM     25  C   UNL     1       4.557  -1.520  -1.442  0.00  0.00    -0.100 C 
ATOM     26  C   UNL     1       5.385  -1.064   0.767  0.00  0.00    -0.100 C 
ATOM     27  H   UNL     1       4.186  -2.602   0.227  0.00  0.00    -0.079 HD
ENDBRANCH  17  24
BRANCH  17  28
ATOM     28  C   UNL     1       2.730  -1.145   1.818  0.00  0.00    -0.011 C 
ATOM     29  C   UNL     1       2.638  -2.612   2.235  0.00  0.00    -0.002 C 
ENDBRANCH  17  28
ENDBRANCH  16  17
ENDBRANCH   1  16
TORSDOF 10
