252141
  -OEChem-10051722043D

 50 52  0     0  0  0  0  0  0999 V2000
   -3.3318    2.7749   -0.4796 O   0  0  0  0  0  0  0  0  0  0  0  0
    1.7965    0.6237    0.9981 N   0  0  0  0  0  0  0  0  0  0  0  0
   -2.3039    0.6812   -0.0570 N   0  0  0  0  0  0  0  0  0  0  0  0
   -0.9785    1.1626    0.2435 C   0  0  0  0  0  0  0  0  0  0  0  0
    0.0455    0.6115   -0.7492 C   0  0  0  0  0  0  0  0  0  0  0  0
   -0.5776    0.7974    1.6725 C   0  0  0  0  0  0  0  0  0  0  0  0
    1.4665    1.0353   -0.3734 C   0  0  0  0  0  0  0  0  0  0  0  0
    0.8642    1.2138    1.9686 C   0  0  0  0  0  0  0  0  0  0  0  0
    3.1745    0.9903    1.3246 C   0  0  0  0  0  0  0  0  0  0  0  0
   -2.5496   -0.7585   -0.0089 C   0  0  0  0  0  0  0  0  0  0  0  0
   -3.3872    1.5451   -0.3992 C   0  0  0  0  0  0  0  0  0  0  0  0
    4.1639    0.3342    0.3984 C   0  0  0  0  0  0  0  0  0  0  0  0
   -4.7212    0.8426   -0.6349 C   0  0  0  0  0  0  0  0  0  0  0  0
   -2.3584   -1.4701   -1.1557 C   0  0  0  0  0  0  0  0  0  0  0  0
   -2.9523   -1.2911    1.1795 C   0  0  0  0  0  0  0  0  0  0  0  0
    4.6865   -0.9089    0.7267 C   0  0  0  0  0  0  0  0  0  0  0  0
    4.5389    0.9815   -0.7706 C   0  0  0  0  0  0  0  0  0  0  0  0
   -5.8367    1.8062   -1.0106 C   0  0  0  0  0  0  0  0  0  0  0  0
   -2.5924   -2.8445   -1.1099 C   0  0  0  0  0  0  0  0  0  0  0  0
   -3.1862   -2.6655    1.2252 C   0  0  0  0  0  0  0  0  0  0  0  0
    5.6030   -1.5169   -0.1312 C   0  0  0  0  0  0  0  0  0  0  0  0
    5.4554    0.3733   -1.6285 C   0  0  0  0  0  0  0  0  0  0  0  0
   -3.0063   -3.4421    0.0804 C   0  0  0  0  0  0  0  0  0  0  0  0
    5.9873   -0.8760   -1.3088 C   0  0  0  0  0  0  0  0  0  0  0  0
   -0.9806    2.2568    0.1588 H   0  0  0  0  0  0  0  0  0  0  0  0
   -0.1883    0.9559   -1.7641 H   0  0  0  0  0  0  0  0  0  0  0  0
    0.0353   -0.4839   -0.7744 H   0  0  0  0  0  0  0  0  0  0  0  0
   -0.6372   -0.2824    1.8475 H   0  0  0  0  0  0  0  0  0  0  0  0
   -1.2552    1.2748    2.3907 H   0  0  0  0  0  0  0  0  0  0  0  0
    2.0998    0.5392   -1.1132 H   0  0  0  0  0  0  0  0  0  0  0  0
    1.5742    2.1203   -0.5014 H   0  0  0  0  0  0  0  0  0  0  0  0
    0.9380    2.3094    1.9657 H   0  0  0  0  0  0  0  0  0  0  0  0
    1.1165    0.8739    2.9806 H   0  0  0  0  0  0  0  0  0  0  0  0
    3.4085    0.6846    2.3533 H   0  0  0  0  0  0  0  0  0  0  0  0
    3.3153    2.0802    1.3013 H   0  0  0  0  0  0  0  0  0  0  0  0
   -4.6161    0.1209   -1.4505 H   0  0  0  0  0  0  0  0  0  0  0  0
   -5.0222    0.3182    0.2772 H   0  0  0  0  0  0  0  0  0  0  0  0
   -2.0489   -1.0071   -2.0867 H   0  0  0  0  0  0  0  0  0  0  0  0
   -3.1058   -0.6889    2.0687 H   0  0  0  0  0  0  0  0  0  0  0  0
    4.3925   -1.4181    1.6402 H   0  0  0  0  0  0  0  0  0  0  0  0
    4.1462    1.9617   -1.0259 H   0  0  0  0  0  0  0  0  0  0  0  0
   -6.0062    2.5411   -0.2167 H   0  0  0  0  0  0  0  0  0  0  0  0
   -6.7712    1.2608   -1.1755 H   0  0  0  0  0  0  0  0  0  0  0  0
   -5.5930    2.3516   -1.9283 H   0  0  0  0  0  0  0  0  0  0  0  0
   -2.4553   -3.4487   -2.0019 H   0  0  0  0  0  0  0  0  0  0  0  0
   -3.5116   -3.1304    2.1513 H   0  0  0  0  0  0  0  0  0  0  0  0
    6.0169   -2.4897    0.1174 H   0  0  0  0  0  0  0  0  0  0  0  0
    5.7575    0.8740   -2.5438 H   0  0  0  0  0  0  0  0  0  0  0  0
   -3.1899   -4.5119    0.1158 H   0  0  0  0  0  0  0  0  0  0  0  0
    6.7013   -1.3491   -1.9766 H   0  0  0  0  0  0  0  0  0  0  0  0
  1 11  2  0  0  0  0
  2  7  1  0  0  0  0
  2  8  1  0  0  0  0
  2  9  1  0  0  0  0
  3  4  1  0  0  0  0
  3 10  1  0  0  0  0
  3 11  1  0  0  0  0
  4  5  1  0  0  0  0
  4  6  1  0  0  0  0
  4 25  1  0  0  0  0
  5  7  1  0  0  0  0
  5 26  1  0  0  0  0
  5 27  1  0  0  0  0
  6  8  1  0  0  0  0
  6 28  1  0  0  0  0
  6 29  1  0  0  0  0
  7 30  1  0  0  0  0
  7 31  1  0  0  0  0
  8 32  1  0  0  0  0
  8 33  1  0  0  0  0
  9 12  1  0  0  0  0
  9 34  1  0  0  0  0
  9 35  1  0  0  0  0
 10 14  2  0  0  0  0
 10 15  1  0  0  0  0
 11 13  1  0  0  0  0
 12 16  2  0  0  0  0
 12 17  1  0  0  0  0
 13 18  1  0  0  0  0
 13 36  1  0  0  0  0
 13 37  1  0  0  0  0
 14 19  1  0  0  0  0
 14 38  1  0  0  0  0
 15 20  2  0  0  0  0
 15 39  1  0  0  0  0
 16 21  1  0  0  0  0
 16 40  1  0  0  0  0
 17 22  2  0  0  0  0
 17 41  1  0  0  0  0
 18 42  1  0  0  0  0
 18 43  1  0  0  0  0
 18 44  1  0  0  0  0
 19 23  2  0  0  0  0
 19 45  1  0  0  0  0
 20 23  1  0  0  0  0
 20 46  1  0  0  0  0
 21 24  2  0  0  0  0
 21 47  1  0  0  0  0
 22 24  1  0  0  0  0
 22 48  1  0  0  0  0
 23 49  1  0  0  0  0
 24 50  1  0  0  0  0
M  END
> <DATABASE_ID>
DB09182

> <DATABASE_NAME>
drugbank

> <ORIGINAL_SOURCE>
PUBCHEM

> <ORIGINAL_SOURCE_URL>
https://pubchem.ncbi.nlm.nih.gov/rest/pug/compound/inchikey/POQDXIFVWVZVML-UHFFFAOYSA-N/SDF?record_type=3d

> <SMILES>
CCC(=O)N(C1CCN(CC2=CC=CC=C2)CC1)C1=CC=CC=C1

> <INCHI_IDENTIFIER>
InChI=1S/C21H26N2O/c1-2-21(24)23(19-11-7-4-8-12-19)20-13-15-22(16-14-20)17-18-9-5-3-6-10-18/h3-12,20H,2,13-17H2,1H3

> <INCHI_KEY>
POQDXIFVWVZVML-UHFFFAOYSA-N

> <FORMULA>
C21H26N2O

> <MOLECULAR_WEIGHT>
322.452

> <EXACT_MASS>
322.204513465

> <JCHEM_ACCEPTOR_COUNT>
2

> <JCHEM_ATOM_COUNT>
50

> <JCHEM_AVERAGE_POLARIZABILITY>
36.39611447488571

> <JCHEM_BIOAVAILABILITY>
1

> <JCHEM_DONOR_COUNT>
0

> <JCHEM_FORMAL_CHARGE>
0

> <JCHEM_GHOSE_FILTER>
1

> <JCHEM_IUPAC>
N-(1-benzylpiperidin-4-yl)-N-phenylpropanamide

> <ALOGPS_LOGP>
3.64

> <JCHEM_LOGP>
3.526837343333333

> <ALOGPS_LOGS>
-3.78

> <JCHEM_MDDR_LIKE_RULE>
0

> <JCHEM_NUMBER_OF_RINGS>
3

> <JCHEM_PHYSIOLOGICAL_CHARGE>
1

> <JCHEM_PKA_STRONGEST_BASIC>
8.183664423271713

> <JCHEM_POLAR_SURFACE_AREA>
23.550000000000004

> <JCHEM_REFRACTIVITY>
98.72750000000002

> <JCHEM_ROTATABLE_BOND_COUNT>
5

> <JCHEM_RULE_OF_FIVE>
1

> <ALOGPS_SOLUBILITY>
5.34e-02 g/l

> <JCHEM_TRADITIONAL_IUPAC>
N-(1-benzylpiperidin-4-yl)-N-phenylpropanamide

> <JCHEM_VEBER_RULE>
1

> <DRUGBANK_ID>
DB09182

> <DRUG_GROUPS>
illicit

> <GENERIC_NAME>
Benzylfentanyl

$$$$
