REMARK  Name = 62300
REMARK  6 active torsions:
REMARK  status: ('A' for Active; 'I' for Inactive)
REMARK    1  A    between atoms: N_1  and  C_20
REMARK    2  A    between atoms: C_2  and  N_9
REMARK    3  A    between atoms: N_9  and  C_12
REMARK    4  A    between atoms: C_10  and  C_18
REMARK    5  A    between atoms: C_20  and  C_21
REMARK    6  A    between atoms: C_21  and  C_22
REMARK                            x       y       z     vdW  Elec       q    Type
REMARK                         _______ _______ _______ _____ _____    ______ ____
ROOT
ATOM      1  N   UNL     1       1.474   0.229   0.481  0.00  0.00    +0.387 N 
ATOM      2  C   UNL     1      -1.247   1.262   0.189  0.00  0.00    +0.076 C 
ATOM      3  C   UNL     1      -0.459   0.691  -0.991  0.00  0.00    -0.003 C 
ATOM      4  C   UNL     1      -0.736   0.669   1.501  0.00  0.00    -0.003 C 
ATOM      5  C   UNL     1       1.047   0.850  -0.780  0.00  0.00    -0.076 C 
ATOM      6  C   UNL     1       0.780   0.827   1.629  0.00  0.00    -0.076 C 
ATOM      7  H   UNL     1       1.227  -0.760   0.444  0.00  0.00    -0.080 HD
ENDROOT
BRANCH   2   9
ATOM      8  O   UNL     1      -3.377   3.282  -0.024  0.00  0.00    -0.275 OA
ATOM      9  N   UNL     1      -2.660   1.023   0.033  0.00  0.00    -0.260 N 
ATOM     10  C   UNL     1      -3.622   2.074  -0.062  0.00  0.00    +0.229 C 
BRANCH   9  12
ATOM     11  F   UNL     1      -4.440  -4.202  -0.207  0.00  0.00    -0.204 F 
ATOM     12  C   UNL     1      -3.131  -0.359  -0.030  0.00  0.00    +0.054 C 
ATOM     13  C   UNL     1      -3.465  -0.967   1.143  0.00  0.00    +0.017 C 
ATOM     14  C   UNL     1      -3.203  -0.945  -1.259  0.00  0.00    +0.017 C 
ATOM     15  C   UNL     1      -3.915  -2.286   1.083  0.00  0.00    +0.031 C 
ATOM     16  C   UNL     1      -3.653  -2.264  -1.319  0.00  0.00    +0.031 C 
ATOM     17  C   UNL     1      -4.009  -2.935  -0.149  0.00  0.00    +0.140 C 
ENDBRANCH   9  12
BRANCH  10  18
ATOM     18  C   UNL     1      -5.072   1.611  -0.175  0.00  0.00    +0.086 C 
ATOM     19  C   UNL     1      -6.053   2.768  -0.288  0.00  0.00    +0.010 C 
ENDBRANCH  10  18
ENDBRANCH   2   9
BRANCH   1  20
ATOM     20  C   UNL     1       2.924   0.344   0.643  0.00  0.00    -0.073 C 
BRANCH  20  21
ATOM     21  C   UNL     1       3.660  -0.390  -0.478  0.00  0.00    +0.004 C 
BRANCH  21  22
ATOM     22  C   UNL     1       5.156  -0.298  -0.310  0.00  0.00    -0.024 C 
ATOM     23  C   UNL     1       5.843   0.757  -0.891  0.00  0.00    -0.004 C 
ATOM     24  C   UNL     1       5.820  -1.270   0.422  0.00  0.00    -0.004 C 
ATOM     25  C   UNL     1       7.226   0.843  -0.736  0.00  0.00    -0.000 C 
ATOM     26  C   UNL     1       7.204  -1.185   0.577  0.00  0.00    -0.000 C 
ATOM     27  C   UNL     1       7.907  -0.128  -0.002  0.00  0.00    -0.000 C 
ENDBRANCH  21  22
ENDBRANCH  20  21
ENDBRANCH   1  20
TORSDOF 6
