REMARK  Name = 124716
REMARK  8 active torsions:
REMARK  status: ('A' for Active; 'I' for Inactive)
REMARK    1  A    between atoms: N_1  and  C_22
REMARK    2  A    between atoms: C_2  and  N_9
REMARK    3  A    between atoms: C_2  and  C_19
REMARK    4  A    between atoms: N_9  and  C_11
REMARK    5  A    between atoms: C_10  and  C_17
REMARK    6  A    between atoms: C_19  and  O_20
REMARK    7  A    between atoms: C_22  and  C_23
REMARK    8  A    between atoms: C_23  and  C_24
REMARK                            x       y       z     vdW  Elec       q    Type
REMARK                         _______ _______ _______ _____ _____    ______ ____
ROOT
ATOM      1  N   UNL     1      -1.551   0.085   0.043  0.00  0.00    +0.387 N 
ATOM      2  C   UNL     1       1.299  -0.705   0.215  0.00  0.00    +0.088 C 
ATOM      3  C   UNL     1       0.730   0.567   0.873  0.00  0.00    -0.002 C 
ATOM      4  C   UNL     1       0.370  -1.126  -0.940  0.00  0.00    -0.002 C 
ATOM      5  C   UNL     1      -0.756   0.447   1.223  0.00  0.00    -0.076 C 
ATOM      6  C   UNL     1      -1.104  -1.191  -0.530  0.00  0.00    -0.076 C 
ATOM      7  H   UNL     1      -1.413   0.809  -0.661  0.00  0.00    -0.080 HD
ENDROOT
BRANCH   2   9
ATOM      8  O   UNL     1       3.058  -2.545  -1.237  0.00  0.00    -0.275 OA
ATOM      9  N   UNL     1       2.620  -0.414  -0.320  0.00  0.00    -0.260 N 
ATOM     10  C   UNL     1       3.399  -1.381  -1.012  0.00  0.00    +0.229 C 
BRANCH   9  11
ATOM     11  C   UNL     1       3.168   0.923  -0.137  0.00  0.00    +0.054 C 
ATOM     12  C   UNL     1       2.932   1.910  -1.094  0.00  0.00    +0.015 C 
ATOM     13  C   UNL     1       3.929   1.216   0.995  0.00  0.00    +0.015 C 
ATOM     14  C   UNL     1       3.456   3.190  -0.919  0.00  0.00    +0.001 C 
ATOM     15  C   UNL     1       4.453   2.497   1.169  0.00  0.00    +0.001 C 
ATOM     16  C   UNL     1       4.217   3.484   0.212  0.00  0.00    +0.000 C 
ENDBRANCH   9  11
BRANCH  10  17
ATOM     17  C   UNL     1       4.779  -0.908  -1.461  0.00  0.00    +0.086 C 
ATOM     18  C   UNL     1       5.555  -1.982  -2.209  0.00  0.00    +0.010 C 
ENDBRANCH  10  17
ENDBRANCH   2   9
BRANCH   2  19
ATOM     19  C   UNL     1       1.446  -1.838   1.243  0.00  0.00    +0.160 C 
BRANCH  19  20
ATOM     20  O   UNL     1       2.314  -1.397   2.267  0.00  0.00    -0.349 OA
ATOM     21  C   UNL     1       2.504  -2.393   3.266  0.00  0.00    +0.174 C 
ENDBRANCH  19  20
ENDBRANCH   2  19
BRANCH   1  22
ATOM     22  C   UNL     1      -2.973   0.025   0.382  0.00  0.00    -0.073 C 
BRANCH  22  23
ATOM     23  C   UNL     1      -3.840   0.280  -0.851  0.00  0.00    +0.004 C 
BRANCH  23  24
ATOM     24  C   UNL     1      -5.309   0.244  -0.511  0.00  0.00    -0.024 C 
ATOM     25  C   UNL     1      -6.012  -0.959  -0.583  0.00  0.00    -0.004 C 
ATOM     26  C   UNL     1      -5.965   1.412  -0.125  0.00  0.00    -0.004 C 
ATOM     27  C   UNL     1      -7.370  -0.993  -0.268  0.00  0.00    -0.000 C 
ATOM     28  C   UNL     1      -7.324   1.378   0.190  0.00  0.00    -0.000 C 
ATOM     29  C   UNL     1      -8.026   0.175   0.118  0.00  0.00    -0.000 C 
ENDBRANCH  23  24
ENDBRANCH  22  23
ENDBRANCH   1  22
TORSDOF 8
