REMARK  Name = 5360788
REMARK  5 active torsions:
REMARK  status: ('A' for Active; 'I' for Inactive)
REMARK    1  A    between atoms: N_2  and  N_7
REMARK    2  A    between atoms: C_5  and  N_13
REMARK    3  A    between atoms: N_13  and  C_14
REMARK    4  A    between atoms: C_14  and  O_15
REMARK    5  A    between atoms: O_15  and  C_16
REMARK                            x       y       z     vdW  Elec       q    Type
REMARK                         _______ _______ _______ _____ _____    ______ ____
ROOT
ATOM      1  O   UNL     1       0.504  -0.530  -1.491  0.00  0.00    -0.346 OA
ATOM      2  N   UNL     1      -1.132  -0.227  -0.146  0.00  0.00    -0.136 N 
ATOM      3  N   UNL     1      -0.896  -0.410  -1.424  0.00  0.00    +0.090 NA
ATOM      4  C   UNL     1      -0.020  -0.213   0.649  0.00  0.00    +0.157 C 
ATOM      5  C   UNL     1       1.016  -0.407  -0.224  0.00  0.00    +0.265 C 
ENDROOT
BRANCH   2   7
ATOM      6  O   UNL     1      -5.325   0.188   0.164  0.00  0.00    -0.351 OA
ATOM      7  N   UNL     1      -2.505  -0.050   0.378  0.00  0.00    -0.182 NA
ATOM      8  C   UNL     1      -3.347  -1.216   0.087  0.00  0.00    +0.126 C 
ATOM      9  C   UNL     1      -3.128   1.170  -0.145  0.00  0.00    +0.126 C 
ATOM     10  C   UNL     1      -4.734  -1.003   0.688  0.00  0.00    +0.161 C 
ATOM     11  C   UNL     1      -4.519   1.330   0.461  0.00  0.00    +0.161 C 
ENDBRANCH   2   7
BRANCH   5  12
ATOM     12  N   UNL     1       2.346  -0.483   0.001  0.00  0.00    -0.104 NA
BRANCH  12  14
ATOM     13  O   UNL     1       2.776   1.819  -0.255  0.00  0.00    -0.224 OA
ATOM     14  C   UNL     1       3.049   0.623  -0.042  0.00  0.00    +0.428 C 
BRANCH  14  15
ATOM     15  O   UNL     1       4.401   0.583   0.182  0.00  0.00    -0.433 OA
BRANCH  15  16
ATOM     16  C   UNL     1       5.013  -0.687   0.461  0.00  0.00    +0.210 C 
ATOM     17  C   UNL     1       6.501  -0.485   0.657  0.00  0.00    +0.051 C 
ENDBRANCH  15  16
ENDBRANCH  14  15
ENDBRANCH  12  14
ENDBRANCH   5  12
TORSDOF 5
