REMARK  Name = 5773
REMARK  6 active torsions:
REMARK  status: ('A' for Active; 'I' for Inactive)
REMARK    1  A    between atoms: CA_5  and  N_11
REMARK    2  A    between atoms: CA_7  and  C_22
REMARK    3  A    between atoms: C_8  and  C_23
REMARK    4  A    between atoms: C_12  and  C_14
REMARK    5  A    between atoms: C_14  and  C_16
REMARK    6  A    between atoms: C_23  and  N_24
REMARK                            x       y       z     vdW  Elec       q    Type
REMARK                         _______ _______ _______ _____ _____    ______ ____
ROOT
ATOM      1  S   UNL     1       0.650  -0.943  -0.253  0.00  0.00    -0.114 S 
ATOM      2  O   UNL     1       0.582   3.703  -0.052  0.00  0.00    -0.273 OA
ATOM      3  N   UNL     1      -0.306   1.531  -0.262  0.00  0.00    -0.242 N 
ATOM      4  C   UNL     1       0.344   0.593  -1.155  0.00  0.00    +0.155 C 
ATOM      5  CA  UNL     1       1.511   1.605  -1.210  0.00  0.00    +0.178 C 
ATOM      6  C   UNL     1       0.555   2.556  -0.432  0.00  0.00    +0.251 C 
ATOM      7  CA  UNL     1      -1.432   1.260   0.446  0.00  0.00    +0.129 C 
ATOM      8  C   UNL     1      -1.877  -0.009   0.592  0.00  0.00    +0.007 C 
ATOM      9  C   UNL     1      -1.122  -1.232   0.076  0.00  0.00    +0.084 C 
ENDROOT
BRANCH   5  11
ATOM     10  O   UNL     1       4.005   0.685  -2.336  0.00  0.00    -0.275 OA
ATOM     11  N   UNL     1       2.742   1.293  -0.487  0.00  0.00    -0.296 N 
ATOM     12  C   UNL     1       3.902   0.853  -1.122  0.00  0.00    +0.228 C 
ATOM     13  H   UNL     1       2.753   1.399   0.492  0.00  0.00    +0.150 HD
BRANCH  12  14
ATOM     14  C   UNL     1       5.059   0.608  -0.175  0.00  0.00    +0.118 C 
BRANCH  14  16
ATOM     15  S   UNL     1       4.848  -1.160   1.933  0.00  0.00    -0.090 S 
ATOM     16  C   UNL     1       5.030  -0.826   0.276  0.00  0.00    +0.016 C 
ATOM     17  C   UNL     1       5.135  -1.944  -0.496  0.00  0.00    +0.003 C 
ATOM     18  C   UNL     1       5.064  -3.127   0.295  0.00  0.00    +0.007 C 
ATOM     19  C   UNL     1       4.908  -2.845   1.634  0.00  0.00    +0.035 C 
ENDBRANCH  14  16
ENDBRANCH  12  14
ENDBRANCH   5  11
BRANCH   7  22
ATOM     20  O   UNL     1      -1.771   2.698   2.269  0.00  0.00    -0.239 OA
ATOM     21  OXT UNL     1      -3.073   2.938   0.403  0.00  0.00    -0.239 OA
ATOM     22  C   UNL     1      -2.169   2.419   1.108  0.00  0.00    +0.401 C 
ENDBRANCH   7  22
BRANCH   8  23
ATOM     23  C   UNL     1      -3.130  -0.403   1.340  0.00  0.00    +0.116 C 
BRANCH  23  24
ATOM     24  N   UNL     1      -4.061  -1.087   0.429  0.00  0.00    -0.299 N 
ATOM     25  C   UNL     1      -3.975  -2.413   0.312  0.00  0.00    +0.118 C 
ATOM     26  C   UNL     1      -4.952  -0.350  -0.239  0.00  0.00    +0.062 C 
ATOM     27  C   UNL     1      -4.841  -3.085  -0.539  0.00  0.00    -0.005 C 
ATOM     28  C   UNL     1      -5.843  -0.969  -1.104  0.00  0.00    +0.016 C 
ATOM     29  C   UNL     1      -5.784  -2.351  -1.252  0.00  0.00    -0.002 C 
ENDBRANCH  23  24
ENDBRANCH   8  23
TORSDOF 6
