REMARK  Name = 11186829
REMARK  6 active torsions:
REMARK  status: ('A' for Active; 'I' for Inactive)
REMARK    1  A    between atoms: C_1  and  C_4
REMARK    2  A    between atoms: C_1  and  C_11
REMARK    3  A    between atoms: C_1  and  O_16
REMARK    4  A    between atoms: C_1  and  C_18
REMARK    5  A    between atoms: C_18  and  C_20
REMARK    6  A    between atoms: C_21  and  O_26
REMARK                            x       y       z     vdW  Elec       q    Type
REMARK                         _______ _______ _______ _____ _____    ______ ____
ROOT
ATOM      1  C   UNL     1      -0.926   0.094  -0.373  0.00  0.00    +0.115 C 
ENDROOT
BRANCH   1   4
ATOM      2  O   UNL     1       0.932   1.592  -0.279  0.00  0.00    -0.358 OA
ATOM      3  N   UNL     1      -0.699   3.876  -0.749  0.00  0.00    +0.387 N 
ATOM      4  C   UNL     1      -0.485   1.521  -0.077  0.00  0.00    +0.119 C 
ATOM      5  C   UNL     1      -1.190   2.518  -1.001  0.00  0.00    -0.049 C 
ATOM      6  C   UNL     1       1.423   2.904   0.000  0.00  0.00    +0.119 C 
ATOM      7  C   UNL     1       0.754   3.925  -0.912  0.00  0.00    -0.049 C 
ATOM      8  H   UNL     1      -0.941   4.150   0.204  0.00  0.00    -0.084 HD
ATOM      9  H   UNL     1      -1.132   4.515  -1.415  0.00  0.00    -0.084 HD
ENDBRANCH   1   4
BRANCH   1  11
ATOM     10  O   UNL     1      -4.642  -1.311   1.182  0.00  0.00    -0.354 OA
ATOM     11  C   UNL     1      -2.432  -0.040  -0.166  0.00  0.00    +0.032 C 
ATOM     12  C   UNL     1      -2.824   0.297   1.277  0.00  0.00    +0.035 C 
ATOM     13  C   UNL     1      -2.915  -1.451  -0.520  0.00  0.00    +0.035 C 
ATOM     14  C   UNL     1      -4.308   0.038   1.506  0.00  0.00    +0.142 C 
ATOM     15  C   UNL     1      -4.394  -1.612  -0.191  0.00  0.00    +0.142 C 
ENDBRANCH   1  11
BRANCH   1  16
ATOM     16  O   UNL     1      -0.649  -0.189  -1.749  0.00  0.00    -0.384 OA
ATOM     17  H   UNL     1      -1.104   0.459  -2.310  0.00  0.00    +0.210 HD
ENDBRANCH   1  16
BRANCH   1  18
ATOM     18  C   UNL     1      -0.190  -0.952   0.498  0.00  0.00    +0.059 C 
BRANCH  18  20
ATOM     19  F   UNL     1       4.133   0.661   2.026  0.00  0.00    -0.204 F 
ATOM     20  C   UNL     1       1.319  -0.941   0.398  0.00  0.00    +0.016 C 
ATOM     21  C   UNL     1       1.958  -1.723  -0.550  0.00  0.00    +0.135 C 
ATOM     22  C   UNL     1       2.035  -0.135   1.269  0.00  0.00    +0.028 C 
ATOM     23  C   UNL     1       3.350  -1.700  -0.629  0.00  0.00    +0.039 C 
ATOM     24  C   UNL     1       3.427  -0.113   1.191  0.00  0.00    +0.140 C 
ATOM     25  C   UNL     1       4.085  -0.895   0.241  0.00  0.00    +0.033 C 
BRANCH  21  26
ATOM     26  O   UNL     1       1.256  -2.515  -1.408  0.00  0.00    -0.472 OA
ATOM     27  C   UNL     1       0.984  -3.849  -0.983  0.00  0.00    +0.252 C 
ENDBRANCH  21  26
ENDBRANCH  18  20
ENDBRANCH   1  18
TORSDOF 6
