REMARK  Name = 51355
REMARK  0 active torsions:
REMARK  status: ('A' for Active; 'I' for Inactive)
REMARK                            x       y       z     vdW  Elec       q    Type
REMARK                         _______ _______ _______ _____ _____    ______ ____
ROOT
ATOM      1  N   UNL     1      -0.435  -1.024  -0.071  0.00  0.00    -0.309 N 
ATOM      2  N   UNL     1      -3.288  -0.959  -0.108  0.00  0.00    +0.388 N 
ATOM      3  N   UNL     1       0.493   1.859   0.531  0.00  0.00    -0.284 N 
ATOM      4  C   UNL     1      -1.119   0.200  -0.556  0.00  0.00    +0.088 C 
ATOM      5  C   UNL     1      -2.518   0.274   0.109  0.00  0.00    -0.051 C 
ATOM      6  C   UNL     1      -1.202  -2.268  -0.200  0.00  0.00    +0.068 C 
ATOM      7  C   UNL     1      -0.461   1.554  -0.411  0.00  0.00    +0.045 C 
ATOM      8  C   UNL     1      -2.574  -2.109   0.456  0.00  0.00    -0.056 C 
ATOM      9  C   UNL     1       0.960  -1.109  -0.077  0.00  0.00    +0.046 C 
ATOM     10  C   UNL     1       1.080   0.908   1.454  0.00  0.00    +0.123 C 
ATOM     11  C   UNL     1       1.741  -0.193   0.666  0.00  0.00    +0.011 C 
ATOM     12  C   UNL     1      -0.679   2.710  -1.144  0.00  0.00    +0.013 C 
ATOM     13  C   UNL     1      -4.621  -0.843   0.484  0.00  0.00    -0.101 C 
ATOM     14  C   UNL     1       0.864   3.174   0.423  0.00  0.00    +0.065 C 
ATOM     15  C   UNL     1       1.642  -2.116  -0.788  0.00  0.00    +0.014 C 
ATOM     16  C   UNL     1       0.150   3.728  -0.615  0.00  0.00    +0.017 C 
ATOM     17  C   UNL     1       3.143  -0.289   0.670  0.00  0.00    -0.001 C 
ATOM     18  C   UNL     1       3.037  -2.206  -0.776  0.00  0.00    +0.001 C 
ATOM     19  C   UNL     1       3.787  -1.292  -0.047  0.00  0.00    -0.000 C 
ATOM     20  H   UNL     1      -3.395  -1.102  -1.112  0.00  0.00    -0.080 HD
ENDROOT
TORSDOF 0
