REMARK  Name = 76961482
REMARK  5 active torsions:
REMARK  status: ('A' for Active; 'I' for Inactive)
REMARK    1  A    between atoms: N_2  and  C_12
REMARK    2  A    between atoms: C_3  and  C_18
REMARK    3  A    between atoms: C_18  and  C_19
REMARK    4  A    between atoms: C_19  and  C_20
REMARK    5  A    between atoms: C_20  and  N_21
REMARK                            x       y       z     vdW  Elec       q    Type
REMARK                         _______ _______ _______ _____ _____    ______ ____
ROOT
ATOM      1  O   UNL     1       0.182   1.252   2.181  0.00  0.00    -0.274 OA
ATOM      2  N   UNL     1       0.915  -0.129   0.386  0.00  0.00    -0.237 N 
ATOM      3  C   UNL     1      -1.122  -0.697   1.484  0.00  0.00    +0.090 C 
ATOM      4  C   UNL     1      -0.795  -1.651   0.366  0.00  0.00    -0.001 C 
ATOM      5  C   UNL     1       0.052   0.303   1.418  0.00  0.00    +0.236 C 
ATOM      6  C   UNL     1       0.399  -1.275  -0.259  0.00  0.00    +0.055 C 
ATOM      7  C   UNL     1      -1.120  -1.398   2.843  0.00  0.00    +0.014 C 
ATOM      8  C   UNL     1      -1.529  -2.746  -0.072  0.00  0.00    -0.003 C 
ATOM      9  C   UNL     1       0.843  -1.961  -1.382  0.00  0.00    +0.015 C 
ATOM     10  C   UNL     1      -1.063  -3.461  -1.174  0.00  0.00    -0.000 C 
ATOM     11  C   UNL     1       0.109  -3.065  -1.829  0.00  0.00    +0.001 C 
ENDROOT
BRANCH   2  12
ATOM     12  C   UNL     1       2.142   0.503   0.051  0.00  0.00    +0.058 C 
ATOM     13  C   UNL     1       3.195  -0.250  -0.470  0.00  0.00    +0.015 C 
ATOM     14  C   UNL     1       2.295   1.876   0.242  0.00  0.00    +0.015 C 
ATOM     15  C   UNL     1       4.400   0.370  -0.799  0.00  0.00    +0.001 C 
ATOM     16  C   UNL     1       3.500   2.496  -0.087  0.00  0.00    +0.001 C 
ATOM     17  C   UNL     1       4.552   1.743  -0.607  0.00  0.00    +0.000 C 
ENDBRANCH   2  12
BRANCH   3  18
ATOM     18  C   UNL     1      -2.436   0.045   1.239  0.00  0.00    +0.011 C 
BRANCH  18  19
ATOM     19  C   UNL     1      -2.365   0.890  -0.030  0.00  0.00    -0.023 C 
BRANCH  19  20
ATOM     20  C   UNL     1      -3.693   1.601  -0.286  0.00  0.00    -0.082 C 
BRANCH  20  21
ATOM     21  N   UNL     1      -3.605   2.421  -1.488  0.00  0.00    +0.382 N 
ATOM     22  C   UNL     1      -4.854   3.131  -1.726  0.00  0.00    -0.106 C 
ATOM     23  H   UNL     1      -3.404   1.820  -2.288  0.00  0.00    -0.085 HD
ATOM     24  H   UNL     1      -2.859   3.106  -1.362  0.00  0.00    -0.085 HD
ENDBRANCH  20  21
ENDBRANCH  19  20
ENDBRANCH  18  19
ENDBRANCH   3  18
TORSDOF 5
