REMARK  Name = 11504295
REMARK  9 active torsions:
REMARK  status: ('A' for Active; 'I' for Inactive)
REMARK    1  A    between atoms: C_1  and  C_5
REMARK    2  A    between atoms: C_1  and  O_16
REMARK    3  A    between atoms: C_1  and  C_18
REMARK    4  A    between atoms: C_9  and  O_14
REMARK    5  A    between atoms: C_18  and  N_19
REMARK    6  A    between atoms: N_19  and  C_22
REMARK    7  A    between atoms: C_22  and  C_25
REMARK    8  A    between atoms: C_25  and  C_26
REMARK    9  A    between atoms: C_31  and  O_32
REMARK                            x       y       z     vdW  Elec       q    Type
REMARK                         _______ _______ _______ _____ _____    ______ ____
ROOT
ATOM      1  C   UNL     1       1.647   0.475   1.757  0.00  0.00    +0.115 C 
ENDROOT
BRANCH   1   5
ATOM      2  O   UNL     1       3.524  -1.439   0.967  0.00  0.00    -0.465 OA
ATOM      3  O   UNL     1       6.272  -3.068  -0.722  0.00  0.00    -0.271 OA
ATOM      4  N   UNL     1       5.466  -0.935  -1.026  0.00  0.00    -0.278 N 
ATOM      5  C   UNL     1       2.679   0.748   0.712  0.00  0.00    +0.040 C 
ATOM      6  C   UNL     1       3.618  -0.220   0.357  0.00  0.00    +0.151 C 
ATOM      7  C   UNL     1       2.696   1.996   0.088  0.00  0.00    +0.038 C 
ATOM      8  C   UNL     1       4.559   0.054  -0.634  0.00  0.00    +0.088 C 
ATOM      9  C   UNL     1       3.642   2.270  -0.900  0.00  0.00    +0.135 C 
ATOM     10  C   UNL     1       4.572   1.298  -1.269  0.00  0.00    +0.054 C 
ATOM     11  C   UNL     1       4.703  -2.217   0.893  0.00  0.00    +0.290 C 
ATOM     12  C   UNL     1       5.540  -2.144  -0.373  0.00  0.00    +0.271 C 
ATOM     13  H   UNL     1       6.067  -0.763  -1.787  0.00  0.00    +0.155 HD
BRANCH   9  14
ATOM     14  O   UNL     1       3.652   3.487  -1.512  0.00  0.00    -0.505 OA
ATOM     15  H   UNL     1       3.028   4.140  -1.265  0.00  0.00    +0.292 HD
ENDBRANCH   9  14
ENDBRANCH   1   5
BRANCH   1  16
ATOM     16  O   UNL     1       1.859   1.361   2.863  0.00  0.00    -0.382 OA
ATOM     17  H   UNL     1       1.192   1.190   3.547  0.00  0.00    +0.211 HD
ENDBRANCH   1  16
BRANCH   1  18
ATOM     18  C   UNL     1       0.214   0.655   1.219  0.00  0.00    -0.047 C 
BRANCH  18  19
ATOM     19  N   UNL     1      -0.058  -0.251   0.106  0.00  0.00    +0.388 N 
ATOM     20  H   UNL     1       0.607  -0.066  -0.646  0.00  0.00    -0.084 HD
ATOM     21  H   UNL     1       0.036  -1.211   0.435  0.00  0.00    -0.084 HD
BRANCH  19  22
ATOM     22  C   UNL     1      -1.410  -0.060  -0.397  0.00  0.00    -0.042 C 
ATOM     23  C   UNL     1      -1.604  -1.044  -1.559  0.00  0.00    -0.021 C 
ATOM     24  C   UNL     1      -1.502   1.381  -0.915  0.00  0.00    -0.021 C 
BRANCH  22  25
ATOM     25  C   UNL     1      -2.393  -0.330   0.773  0.00  0.00    +0.007 C 
BRANCH  25  26
ATOM     26  C   UNL     1      -3.865  -0.234   0.447  0.00  0.00    -0.024 C 
ATOM     27  C   UNL     1      -4.511   0.983   0.583  0.00  0.00    -0.001 C 
ATOM     28  C   UNL     1      -4.539  -1.366   0.019  0.00  0.00    -0.001 C 
ATOM     29  C   UNL     1      -5.870   1.072   0.281  0.00  0.00    +0.037 C 
ATOM     30  C   UNL     1      -5.898  -1.277  -0.282  0.00  0.00    +0.037 C 
ATOM     31  C   UNL     1      -6.564  -0.058  -0.151  0.00  0.00    +0.139 C 
BRANCH  31  32
ATOM     32  O   UNL     1      -7.890   0.029  -0.445  0.00  0.00    -0.471 OA
ATOM     33  C   UNL     1      -8.538  -1.165  -0.881  0.00  0.00    +0.252 C 
ENDBRANCH  31  32
ENDBRANCH  25  26
ENDBRANCH  22  25
ENDBRANCH  19  22
ENDBRANCH  18  19
ENDBRANCH   1  18
TORSDOF 9
