REMARK  Name = 2442
REMARK  4 active torsions:
REMARK  status: ('A' for Active; 'I' for Inactive)
REMARK    1  A    between atoms: C_3  and  C_12
REMARK    2  A    between atoms: C_4  and  N_9
REMARK    3  A    between atoms: C_12  and  N_13
REMARK    4  A    between atoms: N_13  and  C_16
REMARK                            x       y       z     vdW  Elec       q    Type
REMARK                         _______ _______ _______ _____ _____    ______ ____
ROOT
ATOM      1 BR   UNL     1      -3.603  -3.014   0.138  0.00  0.00    -0.048 Br
ATOM      2 BR   UNL     1      -4.860   2.502  -0.190  0.00  0.00    -0.049 Br
ATOM      3  C   UNL     1      -1.275   0.454   0.266  0.00  0.00    -0.029 C 
ATOM      4  C   UNL     1      -1.659  -0.881   0.272  0.00  0.00    +0.042 C 
ATOM      5  C   UNL     1      -2.218   1.465   0.130  0.00  0.00    +0.002 C 
ATOM      6  C   UNL     1      -3.008  -1.210   0.138  0.00  0.00    +0.048 C 
ATOM      7  C   UNL     1      -3.567   1.135  -0.004  0.00  0.00    +0.035 C 
ATOM      8  C   UNL     1      -3.962  -0.202   0.001  0.00  0.00    +0.015 C 
ENDROOT
BRANCH   4   9
ATOM      9  N   UNL     1      -0.678  -1.892   0.413  0.00  0.00    -0.357 N 
ATOM     10  H   UNL     1       0.271  -1.647   0.506  0.00  0.00    +0.142 HD
ATOM     11  H   UNL     1      -0.945  -2.839   0.417  0.00  0.00    +0.142 HD
ENDBRANCH   4   9
BRANCH   3  12
ATOM     12  C   UNL     1       0.173   0.843   0.409  0.00  0.00    -0.049 C 
BRANCH  12  13
ATOM     13  N   UNL     1       1.043   0.024  -0.435  0.00  0.00    +0.390 N 
ATOM     14  C   UNL     1       0.639   0.128  -1.837  0.00  0.00    -0.100 C 
ATOM     15  H   UNL     1       0.952  -0.950  -0.144  0.00  0.00    -0.079 HD
BRANCH  13  16
ATOM     16  C   UNL     1       2.438   0.426  -0.273  0.00  0.00    -0.058 C 
ATOM     17  C   UNL     1       2.846   0.311   1.200  0.00  0.00    -0.021 C 
ATOM     18  C   UNL     1       3.337  -0.439  -1.164  0.00  0.00    -0.021 C 
ATOM     19  C   UNL     1       4.322   0.650   1.397  0.00  0.00    -0.002 C 
ATOM     20  C   UNL     1       4.812  -0.099  -0.964  0.00  0.00    -0.002 C 
ATOM     21  C   UNL     1       5.220  -0.201   0.503  0.00  0.00    -0.000 C 
ENDBRANCH  13  16
ENDBRANCH  12  13
ENDBRANCH   3  12
TORSDOF 4
