REMARK  Name = 785
REMARK  2 active torsions:
REMARK  status: ('A' for Active; 'I' for Inactive)
REMARK    1  A    between atoms: C_1  and  O_7
REMARK    2  A    between atoms: C_2  and  O_9
REMARK                            x       y       z     vdW  Elec       q    Type
REMARK                         _______ _______ _______ _____ _____    ______ ____
ROOT
ATOM      1  C   UNL     1       1.395   0.000   0.000  0.00  0.00    +0.134 C 
ATOM      2  C   UNL     1      -1.395   0.000   0.000  0.00  0.00    +0.134 C 
ATOM      3  C   UNL     1       0.698  -1.208   0.000  0.00  0.00    +0.040 C 
ATOM      4  C   UNL     1      -0.697  -1.208   0.000  0.00  0.00    +0.040 C 
ATOM      5  C   UNL     1       0.697   1.208   0.000  0.00  0.00    +0.040 C 
ATOM      6  C   UNL     1      -0.698   1.208   0.000  0.00  0.00    +0.040 C 
ENDROOT
BRANCH   1   7
ATOM      7  O   UNL     1       2.756   0.000   0.000  0.00  0.00    -0.506 OA
ATOM      8  H   UNL     1       3.224  -0.811   0.000  0.00  0.00    +0.292 HD
ENDBRANCH   1   7
BRANCH   2   9
ATOM      9  O   UNL     1      -2.756   0.000   0.000  0.00  0.00    -0.506 OA
ATOM     10  H   UNL     1      -3.225  -0.812   0.000  0.00  0.00    +0.292 HD
ENDBRANCH   2   9
TORSDOF 2
