REMARK  Name = 7061800
REMARK  3 active torsions:
REMARK  status: ('A' for Active; 'I' for Inactive)
REMARK    1  A    between atoms: N_5  and  C_28
REMARK    2  A    between atoms: C_7  and  N_16
REMARK    3  A    between atoms: C_13  and  C_27
REMARK                            x       y       z     vdW  Elec       q    Type
REMARK                         _______ _______ _______ _____ _____    ______ ____
ROOT
ATOM      1  F   UNL     1       0.588   2.133  -0.793  0.00  0.00    -0.201 F 
ATOM      2  F   UNL     1       2.154  -2.253  -0.021  0.00  0.00    -0.200 F 
ATOM      3  F   UNL     1      -0.367  -3.130   0.366  0.00  0.00    -0.202 F 
ATOM      4  O   UNL     1      -2.857  -2.605   0.459  0.00  0.00    -0.286 OA
ATOM      5  N   UNL     1      -2.130   1.313  -0.406  0.00  0.00    -0.285 N 
ATOM      6  C   UNL     1      -1.018   0.428  -0.314  0.00  0.00    +0.086 A 
ATOM      7  C   UNL     1       1.372  -0.046  -0.410  0.00  0.00    +0.107 A 
ATOM      8  C   UNL     1       0.307   0.853  -0.508  0.00  0.00    +0.169 A 
ATOM      9  C   UNL     1      -3.406   0.827  -0.203  0.00  0.00    +0.075 C 
ATOM     10  C   UNL     1      -1.236  -0.935  -0.016  0.00  0.00    +0.085 A 
ATOM     11  C   UNL     1       1.135  -1.386  -0.115  0.00  0.00    +0.183 A 
ATOM     12  C   UNL     1      -0.168  -1.835   0.082  0.00  0.00    +0.173 A 
ATOM     13  C   UNL     1      -3.720  -0.441   0.082  0.00  0.00    +0.133 C 
ATOM     14  C   UNL     1      -2.621  -1.432   0.198  0.00  0.00    +0.207 C 
ENDROOT
BRANCH   7  16
ATOM     15  N   UNL     1       5.183  -0.055   0.586  0.00  0.00    +0.389 N 
ATOM     16  N   UNL     1       2.676   0.399  -0.605  0.00  0.00    -0.308 N 
ATOM     17  C   UNL     1       4.154   0.782   1.304  0.00  0.00    -0.042 C 
ATOM     18  C   UNL     1       4.586  -1.103  -0.318  0.00  0.00    -0.042 C 
ATOM     19  C   UNL     1       3.246   1.442   0.258  0.00  0.00    +0.070 C 
ATOM     20  C   UNL     1       3.674  -0.398  -1.324  0.00  0.00    +0.070 C 
ATOM     21  C   UNL     1       4.886   1.808   2.156  0.00  0.00    -0.022 C 
ATOM     22  C   UNL     1       5.723  -1.851  -0.998  0.00  0.00    -0.022 C 
ATOM     23  H   UNL     1       5.761  -0.522   1.284  0.00  0.00    -0.084 HD
ATOM     24  H   UNL     1       5.722   0.577  -0.005  0.00  0.00    -0.084 HD
ENDBRANCH   7  16
BRANCH  13  27
ATOM     25  O   UNL     1      -5.392  -2.021   0.545  0.00  0.00    -0.240 OA
ATOM     26  O   UNL     1      -5.990   0.151   0.149  0.00  0.00    -0.240 OA
ATOM     27  C   UNL     1      -5.174  -0.805   0.277  0.00  0.00    +0.392 C 
ENDBRANCH  13  27
BRANCH   5  28
ATOM     28  C   UNL     1      -1.977   2.752  -0.714  0.00  0.00    +0.077 C 
ATOM     29  C   UNL     1      -2.559   3.792   0.184  0.00  0.00    +0.022 C 
ATOM     30  C   UNL     1      -1.071   3.616   0.099  0.00  0.00    +0.022 C 
ENDBRANCH   5  28
TORSDOF 3
