REMARK  Name = 16755766
REMARK  5 active torsions:
REMARK  status: ('A' for Active; 'I' for Inactive)
REMARK    1  A    between atoms: N_1  and  C_25
REMARK    2  A    between atoms: N_3  and  C_12
REMARK    3  A    between atoms: C_5  and  C_20
REMARK    4  A    between atoms: C_25  and  C_26
REMARK    5  A    between atoms: C_26  and  C_29
REMARK                            x       y       z     vdW  Elec       q    Type
REMARK                         _______ _______ _______ _____ _____    ______ ____
ROOT
ATOM      1  N   UNL     1      -1.442  -0.424   0.530  0.00  0.00    -0.174 N 
ATOM      2  N   UNL     1      -0.108  -0.441   0.515  0.00  0.00    -0.096 NA
ATOM      3  N   UNL     1       1.328  -2.190  -0.275  0.00  0.00    -0.246 N 
ATOM      4  N   UNL     1      -1.005  -2.366  -0.335  0.00  0.00    -0.319 NA
ATOM      5  C   UNL     1      -1.975  -1.559   0.029  0.00  0.00    +0.216 C 
ATOM      6  C   UNL     1       0.110  -1.644  -0.021  0.00  0.00    +0.165 C 
ATOM      7  H   UNL     1       1.288  -3.121  -0.592  0.00  0.00    +0.165 HD
ENDROOT
BRANCH   3  12
ATOM      8  F   UNL     1       6.592   1.839  -1.099  0.00  0.00    -0.125 F 
ATOM      9  F   UNL     1       6.362   1.991   1.071  0.00  0.00    -0.125 F 
ATOM     10  O   UNL     1       4.553   1.454  -0.186  0.00  0.00    -0.395 OA
ATOM     11  O   UNL     1       6.405  -0.065   0.118  0.00  0.00    -0.395 OA
ATOM     12  C   UNL     1       2.650  -1.674  -0.170  0.00  0.00    +0.061 C 
ATOM     13  C   UNL     1       4.154   0.152  -0.138  0.00  0.00    +0.183 C 
ATOM     14  C   UNL     1       2.854  -0.300  -0.244  0.00  0.00    +0.056 C 
ATOM     15  C   UNL     1       5.211  -0.714   0.036  0.00  0.00    +0.182 C 
ATOM     16  C   UNL     1       3.719  -2.563   0.006  0.00  0.00    +0.019 C 
ATOM     17  C   UNL     1       5.025  -2.079   0.112  0.00  0.00    +0.042 C 
ATOM     18  C   UNL     1       5.969   1.294  -0.024  0.00  0.00    +0.589 C 
ENDBRANCH   3  12
BRANCH   5  20
ATOM     19  N   UNL     1      -6.130  -2.334  -0.270  0.00  0.00    -0.242 NA
ATOM     20  C   UNL     1      -3.390  -1.821  -0.073  0.00  0.00    +0.050 C 
ATOM     21  C   UNL     1      -4.085  -1.466  -1.224  0.00  0.00    +0.025 C 
ATOM     22  C   UNL     1      -4.063  -2.432   0.979  0.00  0.00    +0.025 C 
ATOM     23  C   UNL     1      -5.442  -1.742  -1.272  0.00  0.00    +0.099 C 
ATOM     24  C   UNL     1      -5.421  -2.664   0.832  0.00  0.00    +0.099 C 
ENDBRANCH   5  20
BRANCH   1  25
ATOM     25  C   UNL     1      -2.140   0.740   1.063  0.00  0.00    +0.129 C 
BRANCH  25  26
ATOM     26  C   UNL     1      -2.435   1.779  -0.018  0.00  0.00    +0.109 C 
BRANCH  26  29
ATOM     27  O   UNL     1      -3.428   3.079   1.734  0.00  0.00    -0.275 OA
ATOM     28  N   UNL     1      -3.458   4.008  -0.391  0.00  0.00    -0.276 N 
ATOM     29  C   UNL     1      -3.150   3.005   0.534  0.00  0.00    +0.228 C 
ATOM     30  C   UNL     1      -3.119   3.899  -1.808  0.00  0.00    +0.115 C 
ATOM     31  C   UNL     1      -4.142   5.238  -0.011  0.00  0.00    +0.115 C 
ENDBRANCH  26  29
ENDBRANCH  25  26
ENDBRANCH   1  25
TORSDOF 5
