REMARK  Name = 7547
REMARK  2 active torsions:
REMARK  status: ('A' for Active; 'I' for Inactive)
REMARK    1  A    between atoms: N_2  and  C_9
REMARK    2  A    between atoms: N_3  and  C_16
REMARK                            x       y       z     vdW  Elec       q    Type
REMARK                         _______ _______ _______ _____ _____    ______ ____
ROOT
ATOM      1  O   UNL     1       0.365  -1.257   0.000  0.00  0.00    -0.252 OA
ATOM      2  N   UNL     1      -0.867   0.731   0.001  0.00  0.00    -0.268 N 
ATOM      3  N   UNL     1       1.441   0.825   0.001  0.00  0.00    -0.268 N 
ATOM      4  C   UNL     1       0.312  -0.031   0.001  0.00  0.00    +0.308 C 
ATOM      5  H   UNL     1      -0.749   1.709   0.001  0.00  0.00    +0.156 HD
ATOM      6  H   UNL     1       1.245   1.789   0.001  0.00  0.00    +0.156 HD
ENDROOT
BRANCH   2   9
ATOM      7 CL   UNL     1      -5.823   1.907  -0.002  0.00  0.00    -0.081 Cl
ATOM      8 CL   UNL     1      -6.431  -1.272  -0.001  0.00  0.00    -0.081 Cl
ATOM      9  C   UNL     1      -2.204   0.267   0.001  0.00  0.00    +0.052 C 
ATOM     10  C   UNL     1      -3.241   1.186   0.000  0.00  0.00    +0.027 C 
ATOM     11  C   UNL     1      -2.447  -1.096   0.001  0.00  0.00    +0.016 C 
ATOM     12  C   UNL     1      -4.558   0.728  -0.001  0.00  0.00    +0.069 C 
ATOM     13  C   UNL     1      -3.765  -1.554   0.001  0.00  0.00    +0.014 C 
ATOM     14  C   UNL     1      -4.821  -0.642   0.000  0.00  0.00    +0.068 C 
ENDBRANCH   2   9
BRANCH   3  16
ATOM     15 CL   UNL     1       7.166  -0.627  -0.002  0.00  0.00    -0.082 Cl
ATOM     16  C   UNL     1       2.793   0.482   0.001  0.00  0.00    +0.052 C 
ATOM     17  C   UNL     1       3.766   1.481   0.001  0.00  0.00    +0.016 C 
ATOM     18  C   UNL     1       3.172  -0.861   0.000  0.00  0.00    +0.016 C 
ATOM     19  C   UNL     1       5.118   1.139   0.000  0.00  0.00    +0.013 C 
ATOM     20  C   UNL     1       4.525  -1.203  -0.001  0.00  0.00    +0.013 C 
ATOM     21  C   UNL     1       5.498  -0.204  -0.001  0.00  0.00    +0.058 C 
ENDBRANCH   3  16
TORSDOF 2
