REMARK  Name = 2723
REMARK  1 active torsions:
REMARK  status: ('A' for Active; 'I' for Inactive)
REMARK    1  A    between atoms: C_7  and  O_10
REMARK                            x       y       z     vdW  Elec       q    Type
REMARK                         _______ _______ _______ _____ _____    ______ ____
ROOT
ATOM      1 CL   UNL     1       2.809   0.000  -0.001  0.00  0.00    -0.083 Cl
ATOM      2  C   UNL     1       0.380   1.208   0.001  0.00  0.00    -0.009 C 
ATOM      3  C   UNL     1       0.380  -1.208   0.000  0.00  0.00    -0.009 C 
ATOM      4  C   UNL     1       1.077   0.000   0.000  0.00  0.00    +0.050 C 
ATOM      5  C   UNL     1      -1.015   1.208   0.001  0.00  0.00    +0.033 C 
ATOM      6  C   UNL     1      -1.015  -1.208  -0.001  0.00  0.00    +0.033 C 
ATOM      7  C   UNL     1      -1.712   0.000   0.000  0.00  0.00    +0.133 C 
ATOM      8  C   UNL     1       1.086   2.526   0.000  0.00  0.00    +0.032 C 
ATOM      9  C   UNL     1       1.085  -2.526   0.001  0.00  0.00    +0.032 C 
ENDROOT
BRANCH   7  10
ATOM     10  O   UNL     1      -3.074   0.000  -0.001  0.00  0.00    -0.506 OA
ATOM     11  H   UNL     1      -3.542   0.812   0.000  0.00  0.00    +0.292 HD
ENDBRANCH   7  10
TORSDOF 1
