REMARK  Name = 487101
REMARK  4 active torsions:
REMARK  status: ('A' for Active; 'I' for Inactive)
REMARK    1  A    between atoms: C_5  and  N_25
REMARK    2  A    between atoms: C_13  and  C_32
REMARK    3  A    between atoms: C_26  and  O_29
REMARK    4  A    between atoms: C_32  and  O_33
REMARK                            x       y       z     vdW  Elec       q    Type
REMARK                         _______ _______ _______ _____ _____    ______ ____
ROOT
ATOM      1 CL   UNL     1       1.349   1.627  -0.240  0.00  0.00    -0.080 Cl
ATOM      2  F   UNL     1       3.447  -2.931   0.051  0.00  0.00    -0.203 F 
ATOM      3  O   UNL     1      -1.429  -4.116   0.089  0.00  0.00    -0.286 OA
ATOM      4  N   UNL     1      -1.342  -0.016  -0.063  0.00  0.00    -0.237 N 
ATOM      5  C   UNL     1       2.342  -0.834  -0.061  0.00  0.00    +0.088 C 
ATOM      6  C   UNL     1       1.150  -0.102  -0.094  0.00  0.00    +0.087 C 
ATOM      7  C   UNL     1      -0.102  -0.742  -0.032  0.00  0.00    +0.073 C 
ATOM      8  C   UNL     1       2.311  -2.221   0.020  0.00  0.00    +0.154 C 
ATOM      9  C   UNL     1      -0.107  -2.154   0.021  0.00  0.00    +0.056 C 
ATOM     10  C   UNL     1       1.088  -2.885   0.055  0.00  0.00    +0.035 C 
ATOM     11  C   UNL     1      -1.393  -2.894   0.014  0.00  0.00    +0.204 C 
ATOM     12  C   UNL     1      -2.520  -0.757  -0.124  0.00  0.00    +0.082 C 
ATOM     13  C   UNL     1      -2.631  -2.091  -0.095  0.00  0.00    +0.129 C 
ATOM     14  F   UNL     1      -1.578   1.241   2.381  0.00  0.00    -0.200 F 
ATOM     15  F   UNL     1      -1.723   5.476   0.264  0.00  0.00    -0.223 F 
ATOM     16  N   UNL     1      -1.417   2.136  -1.137  0.00  0.00    -0.371 NA
ATOM     17  N   UNL     1      -1.491   4.270  -2.190  0.00  0.00    -0.334 N 
ATOM     18  C   UNL     1      -1.441   1.411   0.012  0.00  0.00    +0.220 C 
ATOM     19  C   UNL     1      -1.558   1.991   1.272  0.00  0.00    +0.183 C 
ATOM     20  C   UNL     1      -1.654   3.376   1.357  0.00  0.00    +0.051 C 
ATOM     21  C   UNL     1      -1.512   3.479  -1.015  0.00  0.00    +0.193 C 
ATOM     22  C   UNL     1      -1.632   4.141   0.197  0.00  0.00    +0.251 C 
ATOM     23  H   UNL     1      -1.408   3.839  -3.071  0.00  0.00    +0.144 HD
ATOM     24  H   UNL     1      -1.560   5.250  -2.125  0.00  0.00    +0.144 HD
ENDROOT
BRANCH   5  25
ATOM     25  N   UNL     1       3.597  -0.212  -0.111  0.00  0.00    -0.300 N 
ATOM     26  C   UNL     1       5.401   0.737  -0.227  0.00  0.00    +0.150 C 
ATOM     27  C   UNL     1       4.220   0.736   0.748  0.00  0.00    +0.122 C 
ATOM     28  C   UNL     1       4.780  -0.523  -0.838  0.00  0.00    +0.122 C 
BRANCH  26  29
ATOM     29  O   UNL     1       6.706   0.566   0.371  0.00  0.00    -0.381 OA
ATOM     30  H   UNL     1       7.012   1.414   0.727  0.00  0.00    +0.210 HD
ENDBRANCH  26  29
ENDBRANCH   5  25
BRANCH  13  32
ATOM     31  O   UNL     1      -4.978  -2.146   0.282  0.00  0.00    -0.245 OA
ATOM     32  C   UNL     1      -3.971  -2.678  -0.152  0.00  0.00    +0.342 C 
BRANCH  32  33
ATOM     33  O   UNL     1      -3.913  -3.885  -0.754  0.00  0.00    -0.477 OA
ATOM     34  H   UNL     1      -3.091  -4.217  -1.058  0.00  0.00    +0.295 HD
ENDBRANCH  32  33
ENDBRANCH  13  32
TORSDOF 4
