REMARK  Name = 10074640
REMARK  6 active torsions:
REMARK  status: ('A' for Active; 'I' for Inactive)
REMARK    1  A    between atoms: N_2  and  C_5
REMARK    2  A    between atoms: C_3  and  C_30
REMARK    3  A    between atoms: C_6  and  N_13
REMARK    4  A    between atoms: C_16  and  C_20
REMARK    5  A    between atoms: C_25  and  C_31
REMARK    6  A    between atoms: C_31  and  N_32
REMARK                            x       y       z     vdW  Elec       q    Type
REMARK                         _______ _______ _______ _____ _____    ______ ____
ROOT
ATOM      1  O   UNL     1      -0.668   0.071   0.259  0.00  0.00    -0.270 OA
ATOM      2  N   UNL     1      -0.352  -2.097  -0.580  0.00  0.00    -0.280 N 
ATOM      3  C   UNL     1       0.057  -0.797  -0.253  0.00  0.00    +0.249 C 
ATOM      4  H   UNL     1       0.338  -2.674  -0.981  0.00  0.00    +0.155 HD
ENDROOT
BRANCH   2   5
ATOM      5  C   UNL     1      -1.627  -2.689  -0.409  0.00  0.00    +0.052 C 
ATOM      6  C   UNL     1      -3.907  -2.526   0.314  0.00  0.00    +0.048 C 
ATOM      7  C   UNL     1      -2.651  -1.942   0.147  0.00  0.00    +0.029 C 
ATOM      8  C   UNL     1      -4.120  -3.847  -0.078  0.00  0.00    -0.008 C 
ATOM      9  C   UNL     1      -1.821  -4.002  -0.804  0.00  0.00    +0.014 C 
ATOM     10  C   UNL     1      -3.076  -4.586  -0.637  0.00  0.00    -0.002 C 
ATOM     11  C   UNL     1      -5.454  -4.497   0.090  0.00  0.00    +0.032 C 
BRANCH   6  13
ATOM     12  S   UNL     1      -6.414   0.233   1.856  0.00  0.00    -0.059 S 
ATOM     13  N   UNL     1      -4.952  -1.764   0.881  0.00  0.00    -0.283 N 
ATOM     14  N   UNL     1      -4.340   0.452   0.328  0.00  0.00    -0.384 NA
ATOM     15  C   UNL     1      -5.118  -0.408   0.938  0.00  0.00    +0.211 C 
ATOM     16  C   UNL     1      -4.795   1.728   0.601  0.00  0.00    +0.124 C 
ATOM     17  C   UNL     1      -5.908   1.810   1.411  0.00  0.00    +0.125 C 
ATOM     18  H   UNL     1      -5.672  -2.290   1.299  0.00  0.00    +0.155 HD
BRANCH  16  20
ATOM     19  N   UNL     1      -2.847   3.894  -1.707  0.00  0.00    -0.242 NA
ATOM     20  C   UNL     1      -4.142   2.888   0.068  0.00  0.00    +0.046 C 
ATOM     21  C   UNL     1      -4.151   4.095   0.757  0.00  0.00    +0.005 C 
ATOM     22  C   UNL     1      -3.482   2.839  -1.149  0.00  0.00    +0.101 C 
ATOM     23  C   UNL     1      -3.509   5.203   0.215  0.00  0.00    +0.021 C 
ATOM     24  C   UNL     1      -2.877   5.051  -1.009  0.00  0.00    +0.099 C 
ENDBRANCH  16  20
ENDBRANCH   6  13
ENDBRANCH   2   5
BRANCH   3  30
ATOM     25  C   UNL     1       4.070   0.164  -1.185  0.00  0.00    -0.043 C 
ATOM     26  C   UNL     1       3.410  -0.807  -1.926  0.00  0.00    -0.006 C 
ATOM     27  C   UNL     1       3.433   0.825  -0.144  0.00  0.00    -0.006 C 
ATOM     28  C   UNL     1       2.086  -1.123  -1.618  0.00  0.00    +0.004 C 
ATOM     29  C   UNL     1       2.110   0.509   0.163  0.00  0.00    +0.004 C 
ATOM     30  C   UNL     1       1.437  -0.465  -0.574  0.00  0.00    +0.054 C 
BRANCH  25  31
ATOM     31  C   UNL     1       5.498   0.507  -1.518  0.00  0.00    -0.050 C 
BRANCH  31  32
ATOM     32  N   UNL     1       6.327   0.606  -0.318  0.00  0.00    +0.387 N 
ATOM     33  N   UNL     1       8.576  -0.159   1.330  0.00  0.00    +0.383 N 
ATOM     34  C   UNL     1       6.336  -0.665   0.416  0.00  0.00    -0.100 C 
ATOM     35  C   UNL     1       7.696   1.008  -0.662  0.00  0.00    -0.100 C 
ATOM     36  C   UNL     1       7.207  -0.563   1.673  0.00  0.00    -0.101 C 
ATOM     37  C   UNL     1       8.566   1.112   0.595  0.00  0.00    -0.101 C 
ATOM     38  C   UNL     1       9.404  -0.058   2.530  0.00  0.00    -0.101 C 
ATOM     39  H   UNL     1       5.923   1.323   0.285  0.00  0.00    -0.079 HD
ATOM     40  H   UNL     1       8.981  -0.876   0.728  0.00  0.00    -0.080 HD
ENDBRANCH  31  32
ENDBRANCH  25  31
ENDBRANCH   3  30
TORSDOF 6
