REMARK  Name = 45375953
REMARK  2 active torsions:
REMARK  status: ('A' for Active; 'I' for Inactive)
REMARK    1  A    between atoms: N_1  and  C_25
REMARK    2  A    between atoms: C_7  and  C_13
REMARK                            x       y       z     vdW  Elec       q    Type
REMARK                         _______ _______ _______ _____ _____    ______ ____
ROOT
ATOM      1  N   UNL     1       2.668  -1.038   0.074  0.00  0.00    -0.200 N 
ATOM      2  N   UNL     1       1.385  -1.402  -0.107  0.00  0.00    -0.181 NA
ATOM      3  N   UNL     1       4.009   0.965   0.308  0.00  0.00    -0.232 NA
ATOM      4  N   UNL     1       2.645   2.983   0.181  0.00  0.00    -0.234 NA
ATOM      5  C   UNL     1       1.592   0.872  -0.018  0.00  0.00    +0.150 C 
ATOM      6  C   UNL     1       2.849   0.312   0.135  0.00  0.00    +0.137 C 
ATOM      7  C   UNL     1       0.735  -0.235  -0.162  0.00  0.00    +0.086 C 
ATOM      8  C   UNL     1       1.512   2.260   0.010  0.00  0.00    +0.112 C 
ATOM      9  C   UNL     1       3.806   2.300   0.317  0.00  0.00    +0.252 C 
ATOM     10  N   UNL     1       0.280   2.924  -0.136  0.00  0.00    -0.346 N 
ATOM     11  H   UNL     1       0.245   3.907  -0.114  0.00  0.00    +0.143 HD
ATOM     12  H   UNL     1      -0.547   2.404  -0.260  0.00  0.00    +0.143 HD
ENDROOT
BRANCH   7  16
ATOM     13  O   UNL     1      -4.755  -0.177  -0.710  0.00  0.00    -0.414 OA
ATOM     14  N   UNL     1      -3.978  -0.239   1.418  0.00  0.00    -0.356 NA
ATOM     15  N   UNL     1      -6.339  -0.207   0.954  0.00  0.00    -0.302 N 
ATOM     16  C   UNL     1      -0.689  -0.219  -0.356  0.00  0.00    +0.001 C 
ATOM     17  C   UNL     1      -1.534  -0.241   0.763  0.00  0.00    +0.090 C 
ATOM     18  C   UNL     1      -1.207  -0.180  -1.656  0.00  0.00    +0.001 C 
ATOM     19  C   UNL     1      -2.919  -0.224   0.544  0.00  0.00    +0.153 C 
ATOM     20  C   UNL     1      -3.390  -0.186  -0.760  0.00  0.00    +0.175 C 
ATOM     21  C   UNL     1      -2.586  -0.163  -1.893  0.00  0.00    +0.040 C 
ATOM     22  C   UNL     1      -5.026  -0.210   0.625  0.00  0.00    +0.341 C 
ATOM     23  H   UNL     1      -7.023  -0.184   0.247  0.00  0.00    +0.148 HD
ATOM     24  H   UNL     1      -6.609  -0.230   1.900  0.00  0.00    +0.148 HD
ENDBRANCH   7  16
BRANCH   1  25
ATOM     25  C   UNL     1       3.689  -2.054   0.178  0.00  0.00    +0.098 C 
ATOM     26  C   UNL     1       3.789  -2.885  -1.103  0.00  0.00    +0.024 C 
ATOM     27  C   UNL     1       3.464  -2.954   1.396  0.00  0.00    +0.024 C 
ENDBRANCH   1  25
TORSDOF 2
