REMARK  Name = 9948102
REMARK  8 active torsions:
REMARK  status: ('A' for Active; 'I' for Inactive)
REMARK    1  A    between atoms: O_1  and  C_2
REMARK    2  A    between atoms: O_1  and  C_12
REMARK    3  A    between atoms: C_2  and  C_3
REMARK    4  A    between atoms: C_3  and  C_4
REMARK    5  A    between atoms: C_4  and  N_5
REMARK    6  A    between atoms: C_12  and  C_13
REMARK    7  A    between atoms: C_13  and  C_14
REMARK    8  A    between atoms: C_14  and  C_16
REMARK                            x       y       z     vdW  Elec       q    Type
REMARK                         _______ _______ _______ _____ _____    ______ ____
ROOT
ATOM      1  O   UNL     1       0.432  -0.550  -0.021  0.00  0.00    -0.354 OA
ENDROOT
BRANCH   1   2
ATOM      2  C   UNL     1       1.653  -1.239  -0.256  0.00  0.00    +0.140 C 
BRANCH   2   3
ATOM      3  C   UNL     1       2.813  -0.330   0.128  0.00  0.00    +0.009 C 
BRANCH   3   4
ATOM      4  C   UNL     1       4.157  -1.017  -0.086  0.00  0.00    -0.075 C 
BRANCH   4   5
ATOM      5  N   UNL     1       5.250  -0.130   0.311  0.00  0.00    +0.387 N 
ATOM      6  C   UNL     1       6.540  -0.828   0.216  0.00  0.00    -0.077 C 
ATOM      7  C   UNL     1       5.245   1.090  -0.509  0.00  0.00    -0.077 C 
ATOM      8  C   UNL     1       7.689   0.071   0.674  0.00  0.00    -0.023 C 
ATOM      9  C   UNL     1       6.352   2.052  -0.074  0.00  0.00    -0.023 C 
ATOM     10  C   UNL     1       7.718   1.377  -0.111  0.00  0.00    -0.004 C 
ATOM     11  H   UNL     1       5.112   0.145   1.283  0.00  0.00    -0.080 HD
ENDBRANCH   4   5
ENDBRANCH   3   4
ENDBRANCH   2   3
ENDBRANCH   1   2
BRANCH   1  12
ATOM     12  C   UNL     1      -0.692  -1.350  -0.361  0.00  0.00    +0.143 C 
BRANCH  12  13
ATOM     13  C   UNL     1      -1.962  -0.557  -0.087  0.00  0.00    +0.037 C 
BRANCH  13  14
ATOM     14  C   UNL     1      -3.214  -1.367  -0.419  0.00  0.00    +0.029 C 
BRANCH  14  16
ATOM     15 CL   UNL     1      -8.226   1.807   0.488  0.00  0.00    -0.082 Cl
ATOM     16  C   UNL     1      -4.472  -0.569  -0.191  0.00  0.00    -0.022 C 
ATOM     17  C   UNL     1      -5.087  -0.606   1.052  0.00  0.00    -0.003 C 
ATOM     18  C   UNL     1      -4.995   0.189  -1.228  0.00  0.00    -0.003 C 
ATOM     19  C   UNL     1      -6.252   0.132   1.263  0.00  0.00    +0.011 C 
ATOM     20  C   UNL     1      -6.160   0.927  -1.017  0.00  0.00    +0.011 C 
ATOM     21  C   UNL     1      -6.788   0.898   0.228  0.00  0.00    +0.058 C 
ENDBRANCH  14  16
ENDBRANCH  13  14
ENDBRANCH  12  13
ENDBRANCH   1  12
TORSDOF 8
