REMARK  Name = 5281612
REMARK  5 active torsions:
REMARK  status: ('A' for Active; 'I' for Inactive)
REMARK    1  A    between atoms: C_4  and  C_12
REMARK    2  A    between atoms: C_8  and  O_22
REMARK    3  A    between atoms: C_10  and  O_24
REMARK    4  A    between atoms: C_15  and  O_20
REMARK    5  A    between atoms: C_16  and  O_18
REMARK                            x       y       z     vdW  Elec       q    Type
REMARK                         _______ _______ _______ _____ _____    ______ ____
ROOT
ATOM      1  O   UNL     1      -0.532   0.649  -0.069  0.00  0.00    -0.453 OA
ATOM      2  O   UNL     1      -2.480  -2.914   0.256  0.00  0.00    -0.286 OA
ATOM      3  C   UNL     1      -2.632  -0.567   0.029  0.00  0.00    +0.107 C 
ATOM      4  C   UNL     1       0.157  -0.547   0.062  0.00  0.00    +0.149 C 
ATOM      5  C   UNL     1      -1.903   0.616  -0.079  0.00  0.00    +0.154 C 
ATOM      6  C   UNL     1      -1.905  -1.839   0.160  0.00  0.00    +0.205 C 
ATOM      7  C   UNL     1      -0.431  -1.750   0.168  0.00  0.00    +0.080 C 
ATOM      8  C   UNL     1      -4.028  -0.541   0.013  0.00  0.00    +0.143 C 
ATOM      9  C   UNL     1      -2.569   1.836  -0.205  0.00  0.00    +0.074 C 
ATOM     10  C   UNL     1      -3.963   1.867  -0.222  0.00  0.00    +0.140 C 
ATOM     11  C   UNL     1      -4.691   0.681  -0.113  0.00  0.00    +0.073 C 
ENDROOT
BRANCH   4  12
ATOM     12  C   UNL     1       1.626  -0.398   0.055  0.00  0.00    +0.038 C 
ATOM     13  C   UNL     1       2.216   0.764   0.559  0.00  0.00    +0.043 C 
ATOM     14  C   UNL     1       2.433  -1.417  -0.457  0.00  0.00    +0.006 C 
ATOM     15  C   UNL     1       3.603   0.905   0.552  0.00  0.00    +0.168 C 
ATOM     16  C   UNL     1       4.406  -0.115   0.041  0.00  0.00    +0.172 C 
ATOM     17  C   UNL     1       3.820  -1.276  -0.464  0.00  0.00    +0.040 C 
BRANCH  16  18
ATOM     18  O   UNL     1       5.762   0.011   0.028  0.00  0.00    -0.468 OA
ATOM     19  C   UNL     1       6.348   0.602  -1.130  0.00  0.00    +0.253 C 
ENDBRANCH  16  18
BRANCH  15  20
ATOM     20  O   UNL     1       4.164   2.044   1.047  0.00  0.00    -0.503 OA
ATOM     21  H   UNL     1       3.618   2.724   1.389  0.00  0.00    +0.292 HD
ENDBRANCH  15  20
ENDBRANCH   4  12
BRANCH   8  22
ATOM     22  O   UNL     1      -4.785  -1.669   0.115  0.00  0.00    -0.505 OA
ATOM     23  H   UNL     1      -4.370  -2.504   0.201  0.00  0.00    +0.292 HD
ENDBRANCH   8  22
BRANCH  10  24
ATOM     24  O   UNL     1      -4.615   3.055  -0.346  0.00  0.00    -0.505 OA
ATOM     25  H   UNL     1      -4.128   3.852  -0.419  0.00  0.00    +0.292 HD
ENDBRANCH  10  24
TORSDOF 5
