REMARK  Name = 14539800
REMARK  10 active torsions:
REMARK  status: ('A' for Active; 'I' for Inactive)
REMARK    1  A    between atoms: C_3  and  C_26
REMARK    2  A    between atoms: C_6  and  C_10
REMARK    3  A    between atoms: C_14  and  C_15
REMARK    4  A    between atoms: C_15  and  N_16
REMARK    5  A    between atoms: C_15  and  C_20
REMARK    6  A    between atoms: C_20  and  O_22
REMARK    7  A    between atoms: N_25  and  C_28
REMARK    8  A    between atoms: C_28  and  C_31
REMARK    9  A    between atoms: C_28  and  C_34
REMARK   10  A    between atoms: C_34  and  O_36
REMARK                            x       y       z     vdW  Elec       q    Type
REMARK                         _______ _______ _______ _____ _____    ______ ____
ROOT
ATOM      1  O   UNL     1       0.671  -0.454  -0.476  0.00  0.00    -0.273 OA
ATOM      2  N   UNL     1      -0.195   1.483   0.451  0.00  0.00    -0.272 N 
ATOM      3  C   UNL     1      -1.342   0.859   1.097  0.00  0.00    +0.152 C 
ATOM      4  C   UNL     1      -1.851   1.908   2.079  0.00  0.00    +0.031 C 
ATOM      5  C   UNL     1      -0.125   2.908   0.762  0.00  0.00    +0.094 C 
ATOM      6  C   UNL     1       0.765   0.750  -0.230  0.00  0.00    +0.244 C 
ATOM      7  C   UNL     1      -1.457   3.229   1.422  0.00  0.00    +0.024 C 
ENDROOT
BRANCH   6  10
ATOM      8  O   UNL     1       3.425   0.523   1.579  0.00  0.00    -0.277 OA
ATOM      9  N   UNL     1       3.090   0.596  -0.709  0.00  0.00    -0.275 N 
ATOM     10  C   UNL     1       1.966   1.524  -0.683  0.00  0.00    +0.152 C 
ATOM     11  C   UNL     1       1.823   2.000  -2.124  0.00  0.00    +0.031 C 
ATOM     12  C   UNL     1       2.343   0.819  -2.941  0.00  0.00    +0.024 C 
ATOM     13  C   UNL     1       3.470   0.268  -2.081  0.00  0.00    +0.094 C 
ATOM     14  C   UNL     1       3.777   0.227   0.436  0.00  0.00    +0.208 C 
BRANCH  14  15
ATOM     15  C   UNL     1       5.019  -0.598   0.211  0.00  0.00    +0.040 C 
BRANCH  15  16
ATOM     16  N   UNL     1       5.928  -0.167   1.234  0.00  0.00    +0.389 N 
ATOM     17  H   UNL     1       6.087   0.836   1.147  0.00  0.00    -0.088 HD
ATOM     18  H   UNL     1       6.814  -0.662   1.133  0.00  0.00    -0.088 HD
ATOM     19  H   UNL     1       5.529  -0.370   2.151  0.00  0.00    -0.088 HD
ENDBRANCH  15  16
BRANCH  15  20
ATOM     20  C   UNL     1       4.710  -2.091   0.249  0.00  0.00    +0.099 C 
ATOM     21  C   UNL     1       5.965  -2.934   0.048  0.00  0.00    +0.030 C 
BRANCH  20  22
ATOM     22  O   UNL     1       4.117  -2.439   1.499  0.00  0.00    -0.386 OA
ATOM     23  H   UNL     1       3.317  -1.907   1.637  0.00  0.00    +0.210 HD
ENDBRANCH  20  22
ENDBRANCH  15  20
ENDBRANCH  14  15
ENDBRANCH   6  10
BRANCH   3  26
ATOM     24  O   UNL     1      -2.438   1.256  -0.986  0.00  0.00    -0.273 OA
ATOM     25  N   UNL     1      -3.139  -0.528   0.335  0.00  0.00    -0.295 N 
ATOM     26  C   UNL     1      -2.348   0.565   0.025  0.00  0.00    +0.241 C 
ATOM     27  H   UNL     1      -2.971  -1.004   1.180  0.00  0.00    +0.150 HD
BRANCH  25  28
ATOM     28  C   UNL     1      -4.200  -1.004  -0.524  0.00  0.00    +0.175 C 
BRANCH  28  31
ATOM     29  O   UNL     1      -5.743   0.168   0.945  0.00  0.00    -0.273 OA
ATOM     30  N   UNL     1      -6.266   0.000  -1.285  0.00  0.00    -0.327 N 
ATOM     31  C   UNL     1      -5.457  -0.211  -0.189  0.00  0.00    +0.240 C 
ATOM     32  H   UNL     1      -7.107   0.502  -1.187  0.00  0.00    +0.145 HD
ATOM     33  H   UNL     1      -6.002  -0.351  -2.166  0.00  0.00    +0.145 HD
ENDBRANCH  28  31
BRANCH  28  34
ATOM     34  C   UNL     1      -4.439  -2.514  -0.390  0.00  0.00    +0.137 C 
ATOM     35  C   UNL     1      -3.188  -3.331  -0.690  0.00  0.00    +0.034 C 
BRANCH  34  36
ATOM     36  O   UNL     1      -4.883  -2.811   0.934  0.00  0.00    -0.382 OA
ATOM     37  H   UNL     1      -5.679  -2.295   1.132  0.00  0.00    +0.210 HD
ENDBRANCH  34  36
ENDBRANCH  28  34
ENDBRANCH  25  28
ENDBRANCH   3  26
TORSDOF 10
