REMARK  Name = 9896267
REMARK  3 active torsions:
REMARK  status: ('A' for Active; 'I' for Inactive)
REMARK    1  A    between atoms: N_1  and  C_18
REMARK    2  A    between atoms: C_9  and  C_23
REMARK    3  A    between atoms: C_12  and  C_14
REMARK                            x       y       z     vdW  Elec       q    Type
REMARK                         _______ _______ _______ _____ _____    ______ ____
ROOT
ATOM      1  N   UNL     1      -2.188   0.095   0.089  0.00  0.00    -0.250 N 
ATOM      2  N   UNL     1      -3.063  -0.921  -0.068  0.00  0.00    -0.174 NA
ATOM      3  N   UNL     1       1.489  -0.246   0.006  0.00  0.00    -0.293 N 
ATOM      4  N   UNL     1       0.528   1.722   0.154  0.00  0.00    -0.127 NA
ATOM      5  N   UNL     1       1.907   1.884   0.185  0.00  0.00    -0.128 NA
ATOM      6  C   UNL     1      -0.898  -0.296  -0.058  0.00  0.00    +0.111 A 
ATOM      7  C   UNL     1      -0.912  -1.643  -0.339  0.00  0.00    +0.015 A 
ATOM      8  C   UNL     1       0.340  -2.411  -0.609  0.00  0.00    +0.054 C 
ATOM      9  C   UNL     1      -2.278  -1.976  -0.332  0.00  0.00    +0.076 A 
ATOM     10  C   UNL     1       0.301   0.436   0.042  0.00  0.00    +0.184 A 
ATOM     11  C   UNL     1       1.592  -1.700  -0.019  0.00  0.00    +0.114 C 
ATOM     12  C   UNL     1       2.462   0.691   0.100  0.00  0.00    +0.172 A 
ENDROOT
BRANCH  12  14
ATOM     13  S   UNL     1       4.950   1.593  -0.552  0.00  0.00    -0.083 S 
ATOM     14  C   UNL     1       3.853   0.442   0.092  0.00  0.00    +0.065 C 
ATOM     15  C   UNL     1       4.508  -0.679   0.563  0.00  0.00    +0.010 C 
ATOM     16  C   UNL     1       5.920  -0.590   0.393  0.00  0.00    +0.008 C 
ATOM     17  C   UNL     1       6.296   0.594  -0.202  0.00  0.00    +0.036 C 
ENDBRANCH  12  14
BRANCH   1  18
ATOM     18  C   UNL     1      -2.690   1.437   0.371  0.00  0.00    +0.105 C 
ATOM     19  C   UNL     1      -3.996   1.469   1.190  0.00  0.00    +0.024 C 
ATOM     20  C   UNL     1      -2.960   2.265  -0.897  0.00  0.00    +0.024 C 
ATOM     21  C   UNL     1      -5.022   2.154   0.295  0.00  0.00    +0.002 C 
ATOM     22  C   UNL     1      -4.189   3.096  -0.557  0.00  0.00    +0.002 C 
ENDBRANCH   1  18
BRANCH   9  23
ATOM     23  C   UNL     1      -2.887  -3.297  -0.565  0.00  0.00    +0.047 C 
ATOM     24  C   UNL     1      -3.063  -4.119   0.717  0.00  0.00    +0.007 C 
ENDBRANCH   9  23
TORSDOF 3
