REMARK  Name = 65864
REMARK  13 active torsions:
REMARK  status: ('A' for Active; 'I' for Inactive)
REMARK    1  A    between atoms: C_5  and  N_11
REMARK    2  A    between atoms: C_5  and  O_19
REMARK    3  A    between atoms: C_7  and  C_22
REMARK    4  A    between atoms: C_8  and  C_25
REMARK    5  A    between atoms: C_12  and  C_14
REMARK    6  A    between atoms: C_14  and  S_15
REMARK    7  A    between atoms: S_15  and  C_18
REMARK    8  A    between atoms: C_22  and  O_23
REMARK    9  A    between atoms: C_25  and  S_26
REMARK   10  A    between atoms: S_26  and  C_31
REMARK   11  A    between atoms: N_27  and  C_32
REMARK   12  A    between atoms: C_32  and  C_33
REMARK   13  A    between atoms: C_33  and  O_34
REMARK                            x       y       z     vdW  Elec       q    Type
REMARK                         _______ _______ _______ _____ _____    ______ ____
ROOT
ATOM      1  O   UNL     1       1.496   1.105  -1.957  0.00  0.00    -0.329 OA
ATOM      2  O   UNL     1       2.946   0.836   2.226  0.00  0.00    -0.270 OA
ATOM      3  N   UNL     1       1.600   1.470   0.405  0.00  0.00    -0.223 N 
ATOM      4  C   UNL     1       2.213   1.727  -0.881  0.00  0.00    +0.251 C 
ATOM      5  C   UNL     1       3.486   1.082  -0.283  0.00  0.00    +0.267 C 
ATOM      6  C   UNL     1       2.712   1.116   1.074  0.00  0.00    +0.278 C 
ATOM      7  C   UNL     1       0.255   1.507   0.544  0.00  0.00    +0.127 C 
ATOM      8  C   UNL     1      -0.521   1.550  -0.565  0.00  0.00    +0.017 C 
ATOM      9  C   UNL     1       0.099   1.456  -1.967  0.00  0.00    +0.169 C 
ENDROOT
BRANCH   5  11
ATOM     10  O   UNL     1       4.950  -1.015   1.059  0.00  0.00    -0.274 OA
ATOM     11  N   UNL     1       3.717  -0.284  -0.766  0.00  0.00    -0.275 N 
ATOM     12  C   UNL     1       4.440  -1.225  -0.040  0.00  0.00    +0.236 C 
ATOM     13  H   UNL     1       3.345  -0.545  -1.640  0.00  0.00    +0.152 HD
BRANCH  12  14
ATOM     14  C   UNL     1       4.533  -2.568  -0.723  0.00  0.00    +0.148 C 
BRANCH  14  15
ATOM     15  S   UNL     1       3.814  -3.827   0.359  0.00  0.00    -0.061 S 
BRANCH  15  18
ATOM     16  F   UNL     1       1.722  -2.263   0.302  0.00  0.00    -0.186 F 
ATOM     17  F   UNL     1       1.817  -3.713  -1.322  0.00  0.00    -0.186 F 
ATOM     18  C   UNL     1       2.071  -3.538   0.000  0.00  0.00    +0.367 C 
ENDBRANCH  15  18
ENDBRANCH  14  15
ENDBRANCH  12  14
ENDBRANCH   5  11
BRANCH   5  19
ATOM     19  O   UNL     1       4.661   1.914  -0.262  0.00  0.00    -0.328 OA
ATOM     20  C   UNL     1       5.165   2.294  -1.535  0.00  0.00    +0.177 C 
ENDBRANCH   5  19
BRANCH   7  22
ATOM     21  O   UNL     1      -1.001   0.528   2.308  0.00  0.00    -0.244 OA
ATOM     22  C   UNL     1      -0.293   1.430   1.902  0.00  0.00    +0.352 C 
BRANCH  22  23
ATOM     23  O   UNL     1       0.110   2.504   2.612  0.00  0.00    -0.476 OA
ATOM     24  H   UNL     1       0.657   3.151   2.213  0.00  0.00    +0.295 HD
ENDBRANCH  22  23
ENDBRANCH   7  22
BRANCH   8  25
ATOM     25  C   UNL     1      -2.022   1.652  -0.588  0.00  0.00    +0.091 C 
BRANCH  25  26
ATOM     26  S   UNL     1      -2.738  -0.002  -0.571  0.00  0.00    -0.070 S 
BRANCH  26  31
ATOM     27  N   UNL     1      -5.454  -0.527  -0.600  0.00  0.00    -0.206 N 
ATOM     28  N   UNL     1      -5.004   1.594  -0.629  0.00  0.00    -0.101 NA
ATOM     29  N   UNL     1      -6.646   0.086  -0.625  0.00  0.00    -0.042 NA
ATOM     30  N   UNL     1      -6.364   1.383  -0.642  0.00  0.00    -0.022 NA
ATOM     31  C   UNL     1      -4.460   0.399  -0.602  0.00  0.00    +0.211 A 
BRANCH  27  32
ATOM     32  C   UNL     1      -5.375  -1.966  -0.576  0.00  0.00    +0.163 C 
BRANCH  32  33
ATOM     33  C   UNL     1      -5.361  -2.526   0.840  0.00  0.00    +0.164 C 
BRANCH  33  34
ATOM     34  O   UNL     1      -6.568  -2.178   1.505  0.00  0.00    -0.380 OA
ATOM     35  H   UNL     1      -6.556  -2.536   2.406  0.00  0.00    +0.211 HD
ENDBRANCH  33  34
ENDBRANCH  32  33
ENDBRANCH  27  32
ENDBRANCH  26  31
ENDBRANCH  25  26
ENDBRANCH   8  25
TORSDOF 13
