REMARK  Name = 9571836
REMARK  6 active torsions:
REMARK  status: ('A' for Active; 'I' for Inactive)
REMARK    1  A    between atoms: C_2  and  N_7
REMARK    2  A    between atoms: C_3  and  C_11
REMARK    3  A    between atoms: N_10  and  C_11
REMARK    4  A    between atoms: N_10  and  N_12
REMARK    5  A    between atoms: N_12  and  C_15
REMARK    6  A    between atoms: C_15  and  N_16
REMARK                            x       y       z     vdW  Elec       q    Type
REMARK                         _______ _______ _______ _____ _____    ______ ____
ROOT
ATOM      1  N   UNL     1      -1.170   1.213  -0.001  0.00  0.00    -0.245 NA
ATOM      2  C   UNL     1      -2.244  -0.953   0.000  0.00  0.00    +0.057 C 
ATOM      3  C   UNL     1      -1.123  -0.138   0.000  0.00  0.00    +0.091 C 
ATOM      4  C   UNL     1      -3.493  -0.342   0.001  0.00  0.00    +0.017 C 
ATOM      5  C   UNL     1      -3.582   1.046   0.001  0.00  0.00    +0.022 C 
ATOM      6  C   UNL     1      -2.401   1.771   0.000  0.00  0.00    +0.099 C 
ENDROOT
BRANCH   2   7
ATOM      7  N   UNL     1      -2.144  -2.356   0.000  0.00  0.00    -0.356 N 
ATOM      8  H   UNL     1      -1.259  -2.787   0.000  0.00  0.00    +0.142 HD
ATOM      9  H   UNL     1      -2.960  -2.908   0.001  0.00  0.00    +0.142 HD
ENDBRANCH   2   7
BRANCH   3  10
ATOM     10  C   UNL     1       0.221  -0.698  -0.001  0.00  0.00    +0.158 C 
BRANCH  10  11
ATOM     11  N   UNL     1       1.247   0.085  -0.001  0.00  0.00    -0.126 NA
BRANCH  11  12
ATOM     12  N   UNL     1       2.434  -0.569  -0.002  0.00  0.00    -0.244 N 
ATOM     13  H   UNL     1       2.446  -1.553  -0.003  0.00  0.00    +0.170 HD
BRANCH  12  15
ATOM     14  S   UNL     1       5.093  -0.669   0.002  0.00  0.00    -0.018 S 
ATOM     15  C   UNL     1       3.620   0.122   0.000  0.00  0.00    +0.143 C 
BRANCH  15  16
ATOM     16  N   UNL     1       3.541   1.489   0.001  0.00  0.00    -0.340 N 
ATOM     17  H   UNL     1       4.364   2.030   0.002  0.00  0.00    +0.144 HD
ATOM     18  H   UNL     1       2.662   1.931   0.000  0.00  0.00    +0.144 HD
ENDBRANCH  15  16
ENDBRANCH  12  15
ENDBRANCH  11  12
ENDBRANCH  10  11
ENDBRANCH   3  10
TORSDOF 6
