REMARK  Name = 5457
REMARK  6 active torsions:
REMARK  status: ('A' for Active; 'I' for Inactive)
REMARK    1  A    between atoms: N_1  and  C_8
REMARK    2  A    between atoms: N_1  and  C_14
REMARK    3  A    between atoms: C_8  and  C_9
REMARK    4  A    between atoms: C_9  and  N_10
REMARK    5  A    between atoms: C_14  and  C_15
REMARK    6  A    between atoms: C_20  and  O_21
REMARK                            x       y       z     vdW  Elec       q    Type
REMARK                         _______ _______ _______ _____ _____    ______ ____
ROOT
ATOM      1  N   UNL     1      -1.331  -0.089  -1.011  0.00  0.00    -0.251 N 
ATOM      2  N   UNL     1      -1.580   2.170  -0.427  0.00  0.00    -0.203 NA
ATOM      3  N   UNL     1      -3.025   0.483   0.508  0.00  0.00    -0.181 NA
ATOM      4  C   UNL     1      -2.007   0.897  -0.279  0.00  0.00    +0.090 C 
ATOM      5  C   UNL     1      -2.254   3.092   0.292  0.00  0.00    +0.165 C 
ATOM      6  C   UNL     1      -3.654   1.457   1.198  0.00  0.00    +0.108 C 
ATOM      7  C   UNL     1      -3.309   2.791   1.129  0.00  0.00    +0.022 C 
ENDROOT
BRANCH   1   8
ATOM      8  C   UNL     1      -1.696  -1.482  -0.916  0.00  0.00    +0.079 C 
BRANCH   8   9
ATOM      9  C   UNL     1      -1.067  -2.092   0.329  0.00  0.00    -0.055 C 
BRANCH   9  10
ATOM     10  N   UNL     1      -1.450  -3.498   0.456  0.00  0.00    +0.385 N 
ATOM     11  C   UNL     1      -0.878  -4.075   1.672  0.00  0.00    -0.101 C 
ATOM     12  C   UNL     1      -1.020  -4.253  -0.720  0.00  0.00    -0.101 C 
ATOM     13  H   UNL     1      -2.467  -3.551   0.521  0.00  0.00    -0.080 HD
ENDBRANCH   9  10
ENDBRANCH   8   9
ENDBRANCH   1   8
BRANCH   1  14
ATOM     14  C   UNL     1      -0.217   0.285  -1.886  0.00  0.00    +0.127 C 
BRANCH  14  15
ATOM     15  C   UNL     1       1.067   0.453  -1.118  0.00  0.00    -0.002 C 
ATOM     16  C   UNL     1       1.905  -0.638  -0.943  0.00  0.00    +0.001 C 
ATOM     17  C   UNL     1       1.393   1.697  -0.597  0.00  0.00    +0.001 C 
ATOM     18  C   UNL     1       3.095  -0.483  -0.232  0.00  0.00    +0.037 C 
ATOM     19  C   UNL     1       2.583   1.853   0.115  0.00  0.00    +0.037 C 
ATOM     20  C   UNL     1       3.434   0.762   0.297  0.00  0.00    +0.139 C 
BRANCH  20  21
ATOM     21  O   UNL     1       4.595   0.914   0.991  0.00  0.00    -0.471 OA
ATOM     22  C   UNL     1       5.418  -0.242   1.141  0.00  0.00    +0.252 C 
ENDBRANCH  20  21
ENDBRANCH  14  15
ENDBRANCH   1  14
TORSDOF 6
