REMARK  Name = 16654980
REMARK  2 active torsions:
REMARK  status: ('A' for Active; 'I' for Inactive)
REMARK    1  A    between atoms: C_18  and  C_21
REMARK    2  A    between atoms: C_22  and  C_31
REMARK                            x       y       z     vdW  Elec       q    Type
REMARK                         _______ _______ _______ _____ _____    ______ ____
ROOT
ATOM      1  O   UNL     1      -4.130  -4.260   0.139  0.00  0.00    -0.350 OA
ATOM      2  O   UNL     1      -2.744   5.067   0.278  0.00  0.00    -0.350 OA
ATOM      3  N   UNL     1      -2.300  -2.153  -0.193  0.00  0.00    -0.281 N 
ATOM      4  N   UNL     1      -1.677   2.506  -0.173  0.00  0.00    -0.229 N 
ATOM      5  N   UNL     1      -2.016   0.195  -0.180  0.00  0.00    -0.317 NA
ATOM      6  N   UNL     1       0.193   1.129  -0.412  0.00  0.00    -0.332 NA
ATOM      7  C   UNL     1      -3.678  -2.024  -0.685  0.00  0.00    +0.125 C 
ATOM      8  C   UNL     1      -2.109  -3.139   0.876  0.00  0.00    +0.125 C 
ATOM      9  C   UNL     1      -0.842   3.567   0.406  0.00  0.00    +0.135 C 
ATOM     10  C   UNL     1      -3.123   2.687  -0.003  0.00  0.00    +0.135 C 
ATOM     11  C   UNL     1      -1.465  -1.033  -0.266  0.00  0.00    +0.181 C 
ATOM     12  C   UNL     1      -4.245  -3.405  -0.998  0.00  0.00    +0.164 C 
ATOM     13  C   UNL     1      -2.759  -4.460   0.481  0.00  0.00    +0.164 C 
ATOM     14  C   UNL     1      -1.142   1.217  -0.259  0.00  0.00    +0.203 C 
ATOM     15  C   UNL     1      -1.359   4.930  -0.040  0.00  0.00    +0.164 C 
ATOM     16  C   UNL     1      -3.519   4.098  -0.427  0.00  0.00    +0.164 C 
ATOM     17  C   UNL     1      -0.113  -1.258  -0.424  0.00  0.00    +0.136 C 
ATOM     18  C   UNL     1       0.676  -0.128  -0.491  0.00  0.00    +0.132 C 
ENDROOT
BRANCH  18  21
ATOM     19  N   UNL     1       3.986  -0.338  -2.173  0.00  0.00    -0.230 NA
ATOM     20  N   UNL     1       6.194  -0.506  -1.294  0.00  0.00    -0.343 N 
ATOM     21  C   UNL     1       2.107  -0.225  -0.655  0.00  0.00    +0.050 C 
ATOM     22  C   UNL     1       2.971  -0.299   0.432  0.00  0.00    +0.078 C 
ATOM     23  C   UNL     1       2.659  -0.248  -1.926  0.00  0.00    +0.102 C 
ATOM     24  C   UNL     1       4.342  -0.393   0.218  0.00  0.00    +0.038 C 
ATOM     25  C   UNL     1       4.794  -0.408  -1.092  0.00  0.00    +0.125 C 
ATOM     26  H   UNL     1       6.559  -0.520  -2.208  0.00  0.00    +0.144 HD
ATOM     27  H   UNL     1       6.800  -0.559  -0.520  0.00  0.00    +0.144 HD
BRANCH  22  31
ATOM     28  F   UNL     1       3.451  -0.364   2.774  0.00  0.00    -0.166 F 
ATOM     29  F   UNL     1       1.766   0.849   2.149  0.00  0.00    -0.166 F 
ATOM     30  F   UNL     1       1.619  -1.320   2.099  0.00  0.00    -0.166 F 
ATOM     31  C   UNL     1       2.463  -0.282   1.837  0.00  0.00    +0.419 C 
ENDBRANCH  22  31
ENDBRANCH  18  21
TORSDOF 2
