REMARK  Name = 8768
REMARK  3 active torsions:
REMARK  status: ('A' for Active; 'I' for Inactive)
REMARK    1  A    between atoms: C_1  and  C_12
REMARK    2  A    between atoms: C_2  and  O_7
REMARK    3  A    between atoms: C_4  and  O_9
REMARK                            x       y       z     vdW  Elec       q    Type
REMARK                         _______ _______ _______ _____ _____    ______ ____
ROOT
ATOM      1  C   UNL     1      -1.162  -0.194  -0.001  0.00  0.00    +0.045 C 
ATOM      2  C   UNL     1       1.183  -0.776   0.000  0.00  0.00    +0.168 C 
ATOM      3  C   UNL     1      -0.157  -1.162   0.000  0.00  0.00    +0.043 C 
ATOM      4  C   UNL     1       1.519   0.578   0.000  0.00  0.00    +0.167 C 
ATOM      5  C   UNL     1      -0.826   1.159   0.000  0.00  0.00    +0.007 C 
ATOM      6  C   UNL     1       0.514   1.546   0.000  0.00  0.00    +0.040 C 
ENDROOT
BRANCH   2   7
ATOM      7  O   UNL     1       2.156  -1.730   0.000  0.00  0.00    -0.503 OA
ATOM      8  H   UNL     1       1.922  -2.637   0.000  0.00  0.00    +0.292 HD
ENDBRANCH   2   7
BRANCH   4   9
ATOM      9  O   UNL     1       2.824   0.967   0.000  0.00  0.00    -0.503 OA
ATOM     10  H   UNL     1       3.505   0.323   0.000  0.00  0.00    +0.292 HD
ENDBRANCH   4   9
BRANCH   1  12
ATOM     11  O   UNL     1      -3.493   0.210   0.001  0.00  0.00    -0.283 OA
ATOM     12  C   UNL     1      -2.559  -0.597   0.000  0.00  0.00    +0.234 C 
ENDBRANCH   1  12
TORSDOF 3
