56206
  -OEChem-10051722153D

 48 51  0     0  0  0  0  0  0999 V2000
   -2.3580   -3.3723    0.1414 F   0  0  0  0  0  0  0  0  0  0  0  0
    0.9917    5.9649    0.1871 F   0  0  0  0  0  0  0  0  0  0  0  0
    2.6589   -3.5438    0.1428 O   0  0  0  0  0  0  0  0  0  0  0  0
    5.0392   -2.8226   -0.7219 O   0  0  0  0  0  0  0  0  0  0  0  0
    5.7347   -0.8927    0.2889 O   0  0  0  0  0  0  0  0  0  0  0  0
   -3.0389   -0.6906   -0.0461 N   0  0  0  0  0  0  0  0  0  0  0  0
   -5.7182    0.2931    0.0677 N   0  0  0  0  0  0  0  0  0  0  0  0
    1.7401    0.4505   -0.0485 N   0  0  0  0  0  0  0  0  0  0  0  0
   -3.9017   -1.0345    1.0911 C   0  0  0  0  0  0  0  0  0  0  0  0
   -3.4054    0.5275   -0.7748 C   0  0  0  0  0  0  0  0  0  0  0  0
   -5.3747   -0.9974    0.6779 C   0  0  0  0  0  0  0  0  0  0  0  0
   -4.8950    0.5152   -1.1272 C   0  0  0  0  0  0  0  0  0  0  0  0
   -1.7006   -1.0974   -0.0027 C   0  0  0  0  0  0  0  0  0  0  0  0
   -0.6830   -0.1400   -0.0537 C   0  0  0  0  0  0  0  0  0  0  0  0
    0.6733   -0.5116    0.0021 C   0  0  0  0  0  0  0  0  0  0  0  0
   -7.1397    0.3371   -0.2730 C   0  0  0  0  0  0  0  0  0  0  0  0
   -1.3876   -2.4488    0.0912 C   0  0  0  0  0  0  0  0  0  0  0  0
    0.9656   -1.8917    0.0679 C   0  0  0  0  0  0  0  0  0  0  0  0
   -0.0556   -2.8505    0.1209 C   0  0  0  0  0  0  0  0  0  0  0  0
    2.3748   -2.3556    0.0571 C   0  0  0  0  0  0  0  0  0  0  0  0
    3.0440   -0.0366   -0.1127 C   0  0  0  0  0  0  0  0  0  0  0  0
    3.4239   -1.3189   -0.0712 C   0  0  0  0  0  0  0  0  0  0  0  0
    1.5480    1.8696    0.0122 C   0  0  0  0  0  0  0  0  0  0  0  0
    1.5457    2.5283    1.2457 C   0  0  0  0  0  0  0  0  0  0  0  0
    1.3607    2.6061   -1.1619 C   0  0  0  0  0  0  0  0  0  0  0  0
    4.8548   -1.6225   -0.1323 C   0  0  0  0  0  0  0  0  0  0  0  0
    1.3580    3.9092    1.3048 C   0  0  0  0  0  0  0  0  0  0  0  0
    1.1732    3.9871   -1.1030 C   0  0  0  0  0  0  0  0  0  0  0  0
    1.1719    4.6388    0.1304 C   0  0  0  0  0  0  0  0  0  0  0  0
   -3.6845   -2.0304    1.4917 H   0  0  0  0  0  0  0  0  0  0  0  0
   -3.7225   -0.3189    1.9043 H   0  0  0  0  0  0  0  0  0  0  0  0
   -3.1824    1.4113   -0.1632 H   0  0  0  0  0  0  0  0  0  0  0  0
   -2.8363    0.6076   -1.7096 H   0  0  0  0  0  0  0  0  0  0  0  0
   -5.5819   -1.8230   -0.0164 H   0  0  0  0  0  0  0  0  0  0  0  0
   -5.9859   -1.1624    1.5735 H   0  0  0  0  0  0  0  0  0  0  0  0
   -5.1474    1.4803   -1.5831 H   0  0  0  0  0  0  0  0  0  0  0  0
   -5.0872   -0.2615   -1.8800 H   0  0  0  0  0  0  0  0  0  0  0  0
   -0.9359    0.9152   -0.1097 H   0  0  0  0  0  0  0  0  0  0  0  0
   -7.4181   -0.4380   -0.9962 H   0  0  0  0  0  0  0  0  0  0  0  0
   -7.4033    1.3133   -0.6952 H   0  0  0  0  0  0  0  0  0  0  0  0
   -7.7541    0.2077    0.6249 H   0  0  0  0  0  0  0  0  0  0  0  0
    0.1682   -3.9122    0.1774 H   0  0  0  0  0  0  0  0  0  0  0  0
    3.7822    0.7578   -0.1935 H   0  0  0  0  0  0  0  0  0  0  0  0
    1.6887    1.9711    2.1683 H   0  0  0  0  0  0  0  0  0  0  0  0
    1.3590    2.1097   -2.1292 H   0  0  0  0  0  0  0  0  0  0  0  0
    1.3565    4.4168    2.2649 H   0  0  0  0  0  0  0  0  0  0  0  0
    1.0279    4.5552   -2.0170 H   0  0  0  0  0  0  0  0  0  0  0  0
    5.9887   -3.0620   -0.7816 H   0  0  0  0  0  0  0  0  0  0  0  0
  1 17  1  0  0  0  0
  2 29  1  0  0  0  0
  3 20  2  0  0  0  0
  4 26  1  0  0  0  0
  4 48  1  0  0  0  0
  5 26  2  0  0  0  0
  6  9  1  0  0  0  0
  6 10  1  0  0  0  0
  6 13  1  0  0  0  0
  7 11  1  0  0  0  0
  7 12  1  0  0  0  0
  7 16  1  0  0  0  0
  8 15  1  0  0  0  0
  8 21  1  0  0  0  0
  8 23  1  0  0  0  0
  9 11  1  0  0  0  0
  9 30  1  0  0  0  0
  9 31  1  0  0  0  0
 10 12  1  0  0  0  0
 10 32  1  0  0  0  0
 10 33  1  0  0  0  0
 11 34  1  0  0  0  0
 11 35  1  0  0  0  0
 12 36  1  0  0  0  0
 12 37  1  0  0  0  0
 13 14  1  0  0  0  0
 13 17  2  0  0  0  0
 14 15  2  0  0  0  0
 14 38  1  0  0  0  0
 15 18  1  0  0  0  0
 16 39  1  0  0  0  0
 16 40  1  0  0  0  0
 16 41  1  0  0  0  0
 17 19  1  0  0  0  0
 18 19  2  0  0  0  0
 18 20  1  0  0  0  0
 19 42  1  0  0  0  0
 20 22  1  0  0  0  0
 21 22  2  0  0  0  0
 21 43  1  0  0  0  0
 22 26  1  0  0  0  0
 23 24  2  0  0  0  0
 23 25  1  0  0  0  0
 24 27  1  0  0  0  0
 24 44  1  0  0  0  0
 25 28  2  0  0  0  0
 25 45  1  0  0  0  0
 27 29  2  0  0  0  0
 27 46  1  0  0  0  0
 28 29  1  0  0  0  0
 28 47  1  0  0  0  0
M  END
> <DATABASE_ID>
DB11511

> <DATABASE_NAME>
drugbank

> <ORIGINAL_SOURCE>
PUBCHEM

> <ORIGINAL_SOURCE_URL>
https://pubchem.ncbi.nlm.nih.gov/rest/pug/compound/inchikey/NOCJXYPHIIZEHN-UHFFFAOYSA-N/SDF?record_type=3d

> <SMILES>
CN1CCN(CC1)C1=C(F)C=C2C(=C1)N(C=C(C(O)=O)C2=O)C1=CC=C(F)C=C1

> <INCHI_IDENTIFIER>
InChI=1S/C21H19F2N3O3/c1-24-6-8-25(9-7-24)19-11-18-15(10-17(19)23)20(27)16(21(28)29)12-26(18)14-4-2-13(22)3-5-14/h2-5,10-12H,6-9H2,1H3,(H,28,29)

> <INCHI_KEY>
NOCJXYPHIIZEHN-UHFFFAOYSA-N

> <FORMULA>
C21H19F2N3O3

> <MOLECULAR_WEIGHT>
399.398

> <EXACT_MASS>
399.13944781

> <JCHEM_ACCEPTOR_COUNT>
6

> <JCHEM_ATOM_COUNT>
48

> <JCHEM_AVERAGE_POLARIZABILITY>
39.25456139445241

> <JCHEM_BIOAVAILABILITY>
1

> <JCHEM_DONOR_COUNT>
1

> <JCHEM_FORMAL_CHARGE>
0

> <JCHEM_GHOSE_FILTER>
1

> <JCHEM_IUPAC>
6-fluoro-1-(4-fluorophenyl)-7-(4-methylpiperazin-1-yl)-4-oxo-1,4-dihydroquinoline-3-carboxylic acid

> <ALOGPS_LOGP>
1.16

> <JCHEM_LOGP>
2.360952248101286

> <ALOGPS_LOGS>
-3.50

> <JCHEM_MDDR_LIKE_RULE>
0

> <JCHEM_NUMBER_OF_RINGS>
4

> <JCHEM_PHYSIOLOGICAL_CHARGE>
-1

> <JCHEM_PKA_STRONGEST_ACIDIC>
5.637775942053197

> <JCHEM_PKA_STRONGEST_BASIC>
6.453141071823734

> <JCHEM_POLAR_SURFACE_AREA>
64.09

> <JCHEM_REFRACTIVITY>
105.19359999999996

> <JCHEM_ROTATABLE_BOND_COUNT>
3

> <JCHEM_RULE_OF_FIVE>
1

> <ALOGPS_SOLUBILITY>
1.26e-01 g/l

> <JCHEM_TRADITIONAL_IUPAC>
difloxacin

> <JCHEM_VEBER_RULE>
0

> <DRUGBANK_ID>
DB11511

> <DRUG_GROUPS>
vet_approved

> <GENERIC_NAME>
Difloxacin

> <SYNONYMS>
Difloxacin; difloxacino

> <SALTS>
Difloxacin hydrochloride

$$$$
