REMARK  Name = 26248
REMARK  6 active torsions:
REMARK  status: ('A' for Active; 'I' for Inactive)
REMARK    1  A    between atoms: C_9  and  O_21
REMARK    2  A    between atoms: C_11  and  O_25
REMARK    3  A    between atoms: C_12  and  C_18
REMARK    4  A    between atoms: C_18  and  O_19
REMARK    5  A    between atoms: O_21  and  C_23
REMARK    6  A    between atoms: O_25  and  C_27
REMARK                            x       y       z     vdW  Elec       q    Type
REMARK                         _______ _______ _______ _____ _____    ______ ____
ROOT
ATOM      1  O   UNL     1       1.146  -1.409  -0.740  0.00  0.00    -0.286 OA
ATOM      2  O   UNL     1      -0.626   3.494   0.434  0.00  0.00    -0.287 OA
ATOM      3  C   UNL     1      -0.707  -0.027  -0.324  0.00  0.00    +0.077 C 
ATOM      4  C   UNL     1      -1.170   1.254  -0.017  0.00  0.00    +0.045 C 
ATOM      5  C   UNL     1       1.690   0.832  -0.291  0.00  0.00    +0.077 C 
ATOM      6  C   UNL     1       1.227   2.113   0.015  0.00  0.00    +0.045 C 
ATOM      7  C   UNL     1       0.740  -0.285  -0.472  0.00  0.00    +0.202 C 
ATOM      8  C   UNL     1      -0.220   2.370   0.165  0.00  0.00    +0.196 C 
ATOM      9  C   UNL     1      -1.617  -1.077  -0.493  0.00  0.00    +0.152 C 
ATOM     10  C   UNL     1      -2.544   1.486   0.120  0.00  0.00    +0.010 C 
ATOM     11  C   UNL     1       3.064   0.600  -0.430  0.00  0.00    +0.152 C 
ATOM     12  C   UNL     1      -3.448   0.436  -0.050  0.00  0.00    +0.079 C 
ATOM     13  C   UNL     1       2.137   3.163   0.183  0.00  0.00    +0.003 C 
ATOM     14  C   UNL     1      -2.986  -0.842  -0.356  0.00  0.00    +0.044 C 
ATOM     15  C   UNL     1       3.968   1.650  -0.263  0.00  0.00    +0.038 C 
ATOM     16  C   UNL     1       3.506   2.928   0.043  0.00  0.00    +0.003 C 
ENDROOT
BRANCH  12  18
ATOM     17  O   UNL     1      -5.394   1.766   0.361  0.00  0.00    -0.245 OA
ATOM     18  C   UNL     1      -4.875   0.678   0.092  0.00  0.00    +0.338 C 
BRANCH  18  19
ATOM     19  O   UNL     1      -5.615  -0.447  -0.106  0.00  0.00    -0.477 OA
ATOM     20  H   UNL     1      -5.191  -1.258  -0.308  0.00  0.00    +0.295 HD
ENDBRANCH  18  19
ENDBRANCH  12  18
BRANCH   9  21
ATOM     21  O   UNL     1      -1.235  -2.351  -0.793  0.00  0.00    -0.424 OA
BRANCH  21  23
ATOM     22  O   UNL     1      -1.101  -2.805   1.499  0.00  0.00    -0.250 OA
ATOM     23  C   UNL     1      -0.996  -3.156   0.332  0.00  0.00    +0.322 C 
ATOM     24  C   UNL     1      -0.583  -4.531  -0.102  0.00  0.00    +0.122 C 
ENDBRANCH  21  23
ENDBRANCH   9  21
BRANCH  11  25
ATOM     25  O   UNL     1       3.585  -0.624  -0.730  0.00  0.00    -0.424 OA
BRANCH  25  27
ATOM     26  O   UNL     1       3.720  -1.079   1.563  0.00  0.00    -0.250 OA
ATOM     27  C   UNL     1       3.885  -1.407   0.395  0.00  0.00    +0.322 C 
ATOM     28  C   UNL     1       4.450  -2.728  -0.037  0.00  0.00    +0.122 C 
ENDBRANCH  25  27
ENDBRANCH  11  25
TORSDOF 6
