REMARK  Name = 44139752
REMARK  2 active torsions:
REMARK  status: ('A' for Active; 'I' for Inactive)
REMARK    1  A    between atoms: C_2  and  C_10
REMARK    2  A    between atoms: C_7  and  C_17
REMARK                            x       y       z     vdW  Elec       q    Type
REMARK                         _______ _______ _______ _____ _____    ______ ____
ROOT
ATOM      1  F   UNL     1       0.900   2.564   0.788  0.00  0.00    -0.204 F 
ATOM      2  C   UNL     1       0.268   0.530  -0.262  0.00  0.00    +0.024 C 
ATOM      3  C   UNL     1       1.230   1.347   0.332  0.00  0.00    +0.138 C 
ATOM      4  C   UNL     1       0.622  -0.735  -0.732  0.00  0.00    +0.000 C 
ATOM      5  C   UNL     1       2.545   0.899   0.456  0.00  0.00    +0.040 C 
ATOM      6  C   UNL     1       1.937  -1.182  -0.609  0.00  0.00    +0.010 C 
ATOM      7  C   UNL     1       2.899  -0.365  -0.015  0.00  0.00    +0.071 C 
ENDROOT
BRANCH   2  10
ATOM      8  N   UNL     1      -2.066   0.155   0.353  0.00  0.00    -0.270 N 
ATOM      9  N   UNL     1      -3.322  -0.953   1.758  0.00  0.00    -0.225 NA
ATOM     10  C   UNL     1      -1.156   1.011  -0.399  0.00  0.00    +0.103 C 
ATOM     11  C   UNL     1      -1.777   0.943  -1.824  0.00  0.00    +0.031 C 
ATOM     12  C   UNL     1      -2.705  -0.305  -1.856  0.00  0.00    +0.045 C 
ATOM     13  C   UNL     1      -2.928  -0.555  -0.424  0.00  0.00    +0.050 C 
ATOM     14  C   UNL     1      -2.332  -0.083   1.650  0.00  0.00    +0.168 C 
ATOM     15  C   UNL     1      -3.703  -1.253   0.459  0.00  0.00    +0.111 C 
ENDBRANCH   2  10
BRANCH   7  17
ATOM     16  N   UNL     1       5.341  -1.195   0.215  0.00  0.00    -0.191 NA
ATOM     17  C   UNL     1       4.247  -0.823   0.112  0.00  0.00    +0.100 C 
ENDBRANCH   7  17
TORSDOF 2
