REMARK  Name = 5311037
REMARK  6 active torsions:
REMARK  status: ('A' for Active; 'I' for Inactive)
REMARK    1  A    between atoms: N_3  and  C_13
REMARK    2  A    between atoms: N_5  and  C_15
REMARK    3  A    between atoms: C_11  and  C_17
REMARK    4  A    between atoms: C_18  and  C_19
REMARK    5  A    between atoms: C_22  and  O_25
REMARK    6  A    between atoms: C_23  and  O_27
REMARK                            x       y       z     vdW  Elec       q    Type
REMARK                         _______ _______ _______ _____ _____    ______ ____
ROOT
ATOM      1  O   UNL     1       3.782  -2.698  -0.551  0.00  0.00    -0.272 OA
ATOM      2  O   UNL     1       6.028   1.275   0.536  0.00  0.00    -0.252 OA
ATOM      3  N   UNL     1       3.701   1.289   0.562  0.00  0.00    -0.220 N 
ATOM      4  N   UNL     1       1.266  -1.142  -0.096  0.00  0.00    -0.269 N 
ATOM      5  N   UNL     1       4.928  -0.720  -0.009  0.00  0.00    -0.212 N 
ATOM      6  N   UNL     1       1.257   1.005   0.503  0.00  0.00    -0.374 NA
ATOM      7  C   UNL     1       2.576  -0.766  -0.002  0.00  0.00    +0.220 C 
ATOM      8  C   UNL     1       2.542   0.552   0.365  0.00  0.00    +0.196 C 
ATOM      9  C   UNL     1       3.771  -1.515  -0.221  0.00  0.00    +0.259 C 
ATOM     10  C   UNL     1       4.963   0.668   0.378  0.00  0.00    +0.318 C 
ATOM     11  C   UNL     1       0.511  -0.042   0.218  0.00  0.00    +0.185 C 
ATOM     12  C   UNL     1       0.783  -2.457  -0.457  0.00  0.00    +0.115 C 
ENDROOT
BRANCH   3  13
ATOM     13  C   UNL     1       3.613   2.691   0.950  0.00  0.00    +0.102 C 
ATOM     14  C   UNL     1       3.571   3.600  -0.261  0.00  0.00    +0.024 C 
ENDBRANCH   3  13
BRANCH   5  15
ATOM     15  C   UNL     1       6.217  -1.377  -0.202  0.00  0.00    +0.103 C 
ATOM     16  C   UNL     1       6.696  -1.249  -1.633  0.00  0.00    +0.024 C 
ENDBRANCH   5  15
BRANCH  11  17
ATOM     17  C   UNL     1      -0.893  -0.158   0.200  0.00  0.00    +0.048 C 
ATOM     18  C   UNL     1      -1.740   0.846  -0.142  0.00  0.00    +0.004 C 
BRANCH  18  19
ATOM     19  C   UNL     1      -3.209   0.736  -0.192  0.00  0.00    +0.003 C 
ATOM     20  C   UNL     1      -3.836  -0.285   0.504  0.00  0.00    +0.040 C 
ATOM     21  C   UNL     1      -3.933   1.655  -0.933  0.00  0.00    +0.003 C 
ATOM     22  C   UNL     1      -5.226  -0.389   0.457  0.00  0.00    +0.172 C 
ATOM     23  C   UNL     1      -5.970   0.529  -0.285  0.00  0.00    +0.172 C 
ATOM     24  C   UNL     1      -5.323   1.551  -0.980  0.00  0.00    +0.040 C 
BRANCH  22  25
ATOM     25  O   UNL     1      -5.847  -1.392   1.138  0.00  0.00    -0.468 OA
ATOM     26  C   UNL     1      -5.015  -2.289   1.872  0.00  0.00    +0.253 C 
ENDBRANCH  22  25
BRANCH  23  27
ATOM     27  O   UNL     1      -7.328   0.438  -0.337  0.00  0.00    -0.468 OA
ATOM     28  C   UNL     1      -7.885  -0.356  -1.382  0.00  0.00    +0.253 C 
ENDBRANCH  23  27
ENDBRANCH  18  19
ENDBRANCH  11  17
TORSDOF 6
