68770
  -OEChem-11191922353D

 59 60  0     1  0  0  0  0  0999 V2000
   -2.8012    0.5981    1.5217 O   0  0  0  0  0  0  0  0  0  0  0  0
    3.1241   -1.8308    0.3585 O   0  0  0  0  0  0  0  0  0  0  0  0
    5.8256   -2.4318    0.6399 O   0  0  0  0  0  0  0  0  0  0  0  0
   -4.3206    0.3782   -0.2067 N   0  0  0  0  0  0  0  0  0  0  0  0
    5.0469    0.9316   -0.6987 N   0  0  0  0  0  0  0  0  0  0  0  0
   -2.1966   -0.4410   -0.4947 N   0  0  0  0  0  0  0  0  0  0  0  0
   -5.4293    1.0219    0.4623 C   0  0  0  0  0  0  0  0  0  0  0  0
   -6.3201    1.7652   -0.5387 C   0  0  0  0  0  0  0  0  0  0  0  0
   -6.2388    0.0123    1.2832 C   0  0  0  0  0  0  0  0  0  0  0  0
   -7.1358    0.8142   -1.4145 C   0  0  0  0  0  0  0  0  0  0  0  0
   -7.0546   -0.9359    0.4043 C   0  0  0  0  0  0  0  0  0  0  0  0
   -7.9411   -0.1732   -0.5753 C   0  0  0  0  0  0  0  0  0  0  0  0
    5.1513    2.2599   -0.1101 C   0  0  0  0  0  0  0  0  0  0  0  0
   -3.0645    0.2114    0.3855 C   0  0  0  0  0  0  0  0  0  0  0  0
    5.5035   -0.0890    0.2350 C   0  0  0  0  0  0  0  0  0  0  0  0
    5.3949   -1.4974   -0.3541 C   0  0  2  0  0  0  0  0  0  0  0  0
    4.2830    2.3042    1.1518 C   0  0  0  0  0  0  0  0  0  0  0  0
    6.6149    2.5446    0.2470 C   0  0  0  0  0  0  0  0  0  0  0  0
    4.6488    3.2871   -1.1302 C   0  0  0  0  0  0  0  0  0  0  0  0
    3.9768   -1.8652   -0.7851 C   0  0  0  0  0  0  0  0  0  0  0  0
   -0.8447   -0.7956   -0.2774 C   0  0  0  0  0  0  0  0  0  0  0  0
    1.8223   -1.4927    0.1505 C   0  0  0  0  0  0  0  0  0  0  0  0
   -0.1252   -1.4483   -1.2784 C   0  0  0  0  0  0  0  0  0  0  0  0
   -0.2306   -0.4913    0.9375 C   0  0  0  0  0  0  0  0  0  0  0  0
    1.2083   -1.7968   -1.0645 C   0  0  0  0  0  0  0  0  0  0  0  0
    1.1029   -0.8398    1.1515 C   0  0  0  0  0  0  0  0  0  0  0  0
   -5.0063    1.7608    1.1542 H   0  0  0  0  0  0  0  0  0  0  0  0
   -7.0109    2.4155    0.0132 H   0  0  0  0  0  0  0  0  0  0  0  0
   -5.7126    2.4169   -1.1783 H   0  0  0  0  0  0  0  0  0  0  0  0
   -5.5781   -0.5741    1.9329 H   0  0  0  0  0  0  0  0  0  0  0  0
   -6.9258    0.5592    1.9417 H   0  0  0  0  0  0  0  0  0  0  0  0
   -7.8168    1.3957   -2.0466 H   0  0  0  0  0  0  0  0  0  0  0  0
   -6.4728    0.2644   -2.0927 H   0  0  0  0  0  0  0  0  0  0  0  0
   -6.3796   -1.5979   -0.1517 H   0  0  0  0  0  0  0  0  0  0  0  0
   -7.6765   -1.5784    1.0380 H   0  0  0  0  0  0  0  0  0  0  0  0
   -8.4582   -0.8808   -1.2331 H   0  0  0  0  0  0  0  0  0  0  0  0
   -8.7155    0.3692   -0.0187 H   0  0  0  0  0  0  0  0  0  0  0  0
   -4.4767   -0.0370   -1.1198 H   0  0  0  0  0  0  0  0  0  0  0  0
    5.5960    0.8800   -1.5564 H   0  0  0  0  0  0  0  0  0  0  0  0
    4.9347   -0.0918    1.1700 H   0  0  0  0  0  0  0  0  0  0  0  0
    6.5554    0.0396    0.5122 H   0  0  0  0  0  0  0  0  0  0  0  0
    6.0715   -1.5971   -1.2104 H   0  0  0  0  0  0  0  0  0  0  0  0
    4.7209    1.7789    2.0070 H   0  0  0  0  0  0  0  0  0  0  0  0
    3.2794    1.9009    0.9701 H   0  0  0  0  0  0  0  0  0  0  0  0
    4.1496    3.3427    1.4805 H   0  0  0  0  0  0  0  0  0  0  0  0
    6.7426    3.6058    0.4952 H   0  0  0  0  0  0  0  0  0  0  0  0
    7.2870    2.3336   -0.5933 H   0  0  0  0  0  0  0  0  0  0  0  0
    6.9686    1.9896    1.1221 H   0  0  0  0  0  0  0  0  0  0  0  0
    5.2497    3.2678   -2.0471 H   0  0  0  0  0  0  0  0  0  0  0  0
    3.6064    3.0941   -1.4102 H   0  0  0  0  0  0  0  0  0  0  0  0
    4.6984    4.3044   -0.7255 H   0  0  0  0  0  0  0  0  0  0  0  0
   -2.5741   -0.6942   -1.4044 H   0  0  0  0  0  0  0  0  0  0  0  0
    3.6542   -1.1765   -1.5752 H   0  0  0  0  0  0  0  0  0  0  0  0
    3.9702   -2.8900   -1.1750 H   0  0  0  0  0  0  0  0  0  0  0  0
    5.1951   -2.3908    1.3793 H   0  0  0  0  0  0  0  0  0  0  0  0
   -0.5942   -1.6966   -2.2271 H   0  0  0  0  0  0  0  0  0  0  0  0
   -0.7204    0.0122    1.7588 H   0  0  0  0  0  0  0  0  0  0  0  0
    1.7228   -2.3308   -1.8580 H   0  0  0  0  0  0  0  0  0  0  0  0
    1.5782   -0.5994    2.0987 H   0  0  0  0  0  0  0  0  0  0  0  0
  1 14  2  0  0  0  0
  2 20  1  0  0  0  0
  2 22  1  0  0  0  0
  3 16  1  0  0  0  0
  3 55  1  0  0  0  0
  4  7  1  0  0  0  0
  4 14  1  0  0  0  0
  4 38  1  0  0  0  0
  5 13  1  0  0  0  0
  5 15  1  0  0  0  0
  5 39  1  0  0  0  0
  6 14  1  0  0  0  0
  6 21  1  0  0  0  0
  6 52  1  0  0  0  0
  7  8  1  0  0  0  0
  7  9  1  0  0  0  0
  7 27  1  0  0  0  0
  8 10  1  0  0  0  0
  8 28  1  0  0  0  0
  8 29  1  0  0  0  0
  9 11  1  0  0  0  0
  9 30  1  0  0  0  0
  9 31  1  0  0  0  0
 10 12  1  0  0  0  0
 10 32  1  0  0  0  0
 10 33  1  0  0  0  0
 11 12  1  0  0  0  0
 11 34  1  0  0  0  0
 11 35  1  0  0  0  0
 12 36  1  0  0  0  0
 12 37  1  0  0  0  0
 13 17  1  0  0  0  0
 13 18  1  0  0  0  0
 13 19  1  0  0  0  0
 15 16  1  0  0  0  0
 15 40  1  0  0  0  0
 15 41  1  0  0  0  0
 16 20  1  0  0  0  0
 16 42  1  0  0  0  0
 17 43  1  0  0  0  0
 17 44  1  0  0  0  0
 17 45  1  0  0  0  0
 18 46  1  0  0  0  0
 18 47  1  0  0  0  0
 18 48  1  0  0  0  0
 19 49  1  0  0  0  0
 19 50  1  0  0  0  0
 19 51  1  0  0  0  0
 20 53  1  0  0  0  0
 20 54  1  0  0  0  0
 21 23  2  0  0  0  0
 21 24  1  0  0  0  0
 22 25  2  0  0  0  0
 22 26  1  0  0  0  0
 23 25  1  0  0  0  0
 23 56  1  0  0  0  0
 24 26  2  0  0  0  0
 24 57  1  0  0  0  0
 25 58  1  0  0  0  0
 26 59  1  0  0  0  0
M  END
> <DATABASE_ID>
DB11770

> <DATABASE_NAME>
drugbank

> <ORIGINAL_SOURCE>
PUBCHEM

> <ORIGINAL_SOURCE_URL>
https://pubchem.ncbi.nlm.nih.gov/rest/pug/compound/inchikey/MXFWWQICDIZSOA-UHFFFAOYSA-N/SDF?record_type=3d

> <SMILES>
CC(C)(C)NCC(O)COC1=CC=C(NC(=O)NC2CCCCC2)C=C1

> <INCHI_IDENTIFIER>
InChI=1S/C20H33N3O3/c1-20(2,3)21-13-17(24)14-26-18-11-9-16(10-12-18)23-19(25)22-15-7-5-4-6-8-15/h9-12,15,17,21,24H,4-8,13-14H2,1-3H3,(H2,22,23,25)

> <INCHI_KEY>
MXFWWQICDIZSOA-UHFFFAOYSA-N

> <FORMULA>
C20H33N3O3

> <MOLECULAR_WEIGHT>
363.4943

> <EXACT_MASS>
363.252191937

> <JCHEM_ACCEPTOR_COUNT>
4

> <JCHEM_ATOM_COUNT>
59

> <JCHEM_AVERAGE_POLARIZABILITY>
42.039314535120674

> <JCHEM_BIOAVAILABILITY>
1

> <JCHEM_DONOR_COUNT>
4

> <JCHEM_FORMAL_CHARGE>
0

> <JCHEM_GHOSE_FILTER>
1

> <JCHEM_IUPAC>
3-{4-[3-(tert-butylamino)-2-hydroxypropoxy]phenyl}-1-cyclohexylurea

> <ALOGPS_LOGP>
2.91

> <JCHEM_LOGP>
2.801907272

> <ALOGPS_LOGS>
-3.91

> <JCHEM_MDDR_LIKE_RULE>
0

> <JCHEM_NUMBER_OF_RINGS>
2

> <JCHEM_PHYSIOLOGICAL_CHARGE>
1

> <JCHEM_PKA>
14.447526657539155

> <JCHEM_PKA_STRONGEST_ACIDIC>
13.829828686602536

> <JCHEM_PKA_STRONGEST_BASIC>
9.75950678218083

> <JCHEM_POLAR_SURFACE_AREA>
82.62

> <JCHEM_REFRACTIVITY>
104.46429999999998

> <JCHEM_ROTATABLE_BOND_COUNT>
8

> <JCHEM_RULE_OF_FIVE>
1

> <ALOGPS_SOLUBILITY>
4.51e-02 g/l

> <JCHEM_TRADITIONAL_IUPAC>
(Z)-N'-cyano-N-(3,3-dimethylbutan-2-yl)-N''-(pyridin-4-yl)guanidine

> <JCHEM_VEBER_RULE>
0

> <DRUGBANK_ID>
DB11770

> <DRUG_GROUPS>
investigational

> <GENERIC_NAME>
Talinolol

> <SYNONYMS>
Talinolol; Talinololum

$$$$
