REMARK  Name = 25017411
REMARK  7 active torsions:
REMARK  status: ('A' for Active; 'I' for Inactive)
REMARK    1  A    between atoms: C_2  and  O_13
REMARK    2  A    between atoms: C_3  and  O_11
REMARK    3  A    between atoms: C_8  and  O_22
REMARK    4  A    between atoms: O_13  and  C_14
REMARK    5  A    between atoms: C_14  and  C_15
REMARK    6  A    between atoms: C_15  and  N_18
REMARK    7  A    between atoms: O_22  and  C_27
REMARK                            x       y       z     vdW  Elec       q    Type
REMARK                         _______ _______ _______ _____ _____    ______ ____
ROOT
ATOM      1  N   UNL     1      -1.078   2.815   0.858  0.00  0.00    -0.248 NA
ATOM      2  C   UNL     1      -3.323  -0.027   0.340  0.00  0.00    +0.152 C 
ATOM      3  C   UNL     1      -2.501  -0.914  -0.343  0.00  0.00    +0.151 C 
ATOM      4  C   UNL     1      -2.830   1.219   0.735  0.00  0.00    +0.112 C 
ATOM      5  C   UNL     1      -1.521   1.607   0.463  0.00  0.00    +0.066 C 
ATOM      6  C   UNL     1      -1.188  -0.553  -0.629  0.00  0.00    +0.097 C 
ATOM      7  C   UNL     1      -0.692   0.700  -0.232  0.00  0.00    +0.034 C 
ATOM      8  C   UNL     1       0.626   1.090  -0.506  0.00  0.00    +0.144 C 
ATOM      9  C   UNL     1       1.085   2.334  -0.100  0.00  0.00    +0.058 C 
ATOM     10  C   UNL     1       0.201   3.152   0.573  0.00  0.00    +0.102 C 
ENDROOT
BRANCH   3  11
ATOM     11  O   UNL     1      -2.965  -2.132  -0.735  0.00  0.00    -0.473 OA
ATOM     12  C   UNL     1      -2.808  -3.213   0.183  0.00  0.00    +0.252 C 
ENDBRANCH   3  11
BRANCH   2  13
ATOM     13  O   UNL     1      -4.612  -0.359   0.632  0.00  0.00    -0.479 OA
BRANCH  13  14
ATOM     14  C   UNL     1      -5.634   0.479   0.097  0.00  0.00    +0.185 C 
BRANCH  14  15
ATOM     15  C   UNL     1      -6.859  -0.330  -0.156  0.00  0.00    -0.008 C 
ATOM     16  C   UNL     1      -8.181   0.364   0.001  0.00  0.00    -0.018 C 
ATOM     17  C   UNL     1      -7.731  -0.636   1.026  0.00  0.00    -0.018 C 
BRANCH  15  18
ATOM     18  N   UNL     1      -6.709  -1.342  -1.209  0.00  0.00    +0.385 N 
ATOM     19  H   UNL     1      -7.587  -1.850  -1.321  0.00  0.00    -0.089 HD
ATOM     20  H   UNL     1      -5.969  -1.994  -0.951  0.00  0.00    -0.089 HD
ATOM     21  H   UNL     1      -6.467  -0.885  -2.088  0.00  0.00    -0.089 HD
ENDBRANCH  15  18
ENDBRANCH  14  15
ENDBRANCH  13  14
ENDBRANCH   2  13
BRANCH   8  22
ATOM     22  O   UNL     1       1.489   0.269  -1.173  0.00  0.00    -0.451 OA
BRANCH  22  27
ATOM     23  F   UNL     1       3.957   0.897  -2.228  0.00  0.00    -0.201 F 
ATOM     24  N   UNL     1       6.232  -1.125   1.244  0.00  0.00    -0.316 N 
ATOM     25  C   UNL     1       5.067  -0.168  -0.401  0.00  0.00    +0.045 C 
ATOM     26  C   UNL     1       4.953  -0.870   0.801  0.00  0.00    +0.050 C 
ATOM     27  C   UNL     1       2.648  -0.107  -0.520  0.00  0.00    +0.173 C 
ATOM     28  C   UNL     1       3.891   0.221  -1.073  0.00  0.00    +0.176 C 
ATOM     29  C   UNL     1       7.147  -0.608   0.366  0.00  0.00    +0.026 C 
ATOM     30  C   UNL     1       6.457  -0.009  -0.662  0.00  0.00    +0.014 C 
ATOM     31  C   UNL     1       3.718  -1.206   1.365  0.00  0.00    +0.018 C 
ATOM     32  C   UNL     1       2.565  -0.809   0.681  0.00  0.00    +0.041 C 
ATOM     33  C   UNL     1       8.596  -0.741   0.605  0.00  0.00    +0.047 C 
ATOM     34  H   UNL     1       6.456  -1.608   2.072  0.00  0.00    +0.152 HD
ENDBRANCH  22  27
ENDBRANCH   8  22
TORSDOF 7
