REMARK  Name = 46216796
REMARK  4 active torsions:
REMARK  status: ('A' for Active; 'I' for Inactive)
REMARK    1  A    between atoms: C_6  and  O_29
REMARK    2  A    between atoms: O_29  and  C_30
REMARK    3  A    between atoms: C_30  and  C_31
REMARK    4  A    between atoms: C_31  and  N_32
REMARK                            x       y       z     vdW  Elec       q    Type
REMARK                         _______ _______ _______ _____ _____    ______ ____
ROOT
ATOM      1  O   UNL     1      -2.255  -1.111   0.596  0.00  0.00    -0.344 OA
ATOM      2  O   UNL     1       1.801  -3.497  -0.986  0.00  0.00    -0.344 OA
ATOM      3  N   UNL     1       1.365   3.344  -0.379  0.00  0.00    -0.247 N 
ATOM      4  N   UNL     1       2.951   1.542  -0.171  0.00  0.00    -0.337 NA
ATOM      5  N   UNL     1       3.601   3.669  -0.993  0.00  0.00    -0.170 NA
ATOM      6  C   UNL     1      -2.385   1.886   0.933  0.00  0.00    +0.137 C 
ATOM      7  C   UNL     1      -1.278   1.032   0.985  0.00  0.00    +0.043 C 
ATOM      8  C   UNL     1      -2.243   3.185   0.457  0.00  0.00    +0.038 C 
ATOM      9  C   UNL     1      -0.025   1.501   0.551  0.00  0.00    +0.016 C 
ATOM     10  C   UNL     1      -1.436  -0.372   1.503  0.00  0.00    +0.172 C 
ATOM     11  C   UNL     1       0.142   2.808   0.070  0.00  0.00    +0.058 C 
ATOM     12  C   UNL     1      -0.994   3.638   0.032  0.00  0.00    +0.018 C 
ATOM     13  C   UNL     1      -2.442  -2.466   1.000  0.00  0.00    +0.169 C 
ATOM     14  C   UNL     1       2.666   2.821  -0.508  0.00  0.00    +0.149 C 
ATOM     15  C   UNL     1       4.443  -0.328   0.058  0.00  0.00    +0.030 C 
ATOM     16  C   UNL     1       3.575  -2.615   0.351  0.00  0.00    +0.007 C 
ATOM     17  C   UNL     1       4.221   1.082  -0.325  0.00  0.00    +0.146 C 
ATOM     18  C   UNL     1       3.392  -1.266   0.002  0.00  0.00    +0.001 C 
ATOM     19  C   UNL     1       2.417  -3.575   0.300  0.00  0.00    +0.169 C 
ATOM     20  C   UNL     1       5.694  -0.794   0.497  0.00  0.00    +0.003 C 
ATOM     21  C   UNL     1      -1.413  -3.402   0.434  0.00  0.00    +0.004 C 
ATOM     22  C   UNL     1       4.832  -3.038   0.786  0.00  0.00    -0.002 C 
ATOM     23  C   UNL     1       5.220   1.901  -0.820  0.00  0.00    +0.055 C 
ATOM     24  C   UNL     1       5.886  -2.131   0.857  0.00  0.00    -0.000 C 
ATOM     25  C   UNL     1       0.503  -4.091  -1.022  0.00  0.00    +0.169 C 
ATOM     26  C   UNL     1      -0.521  -3.115  -0.526  0.00  0.00    +0.004 C 
ATOM     27  C   UNL     1       4.851   3.189  -1.137  0.00  0.00    +0.114 C 
ATOM     28  H   UNL     1       1.294   4.284  -0.663  0.00  0.00    +0.165 HD
ENDROOT
BRANCH   6  29
ATOM     29  O   UNL     1      -3.620   1.472   1.334  0.00  0.00    -0.478 OA
BRANCH  29  30
ATOM     30  C   UNL     1      -4.744   2.060   0.683  0.00  0.00    +0.183 C 
BRANCH  30  31
ATOM     31  C   UNL     1      -5.875   1.045   0.646  0.00  0.00    -0.029 C 
BRANCH  31  32
ATOM     32  N   UNL     1      -5.476  -0.141  -0.096  0.00  0.00    +0.389 N 
ATOM     33  C   UNL     1      -6.551  -1.129  -0.192  0.00  0.00    -0.077 C 
ATOM     34  C   UNL     1      -5.115   0.162  -1.481  0.00  0.00    -0.077 C 
ATOM     35  C   UNL     1      -6.067  -2.056  -1.296  0.00  0.00    -0.025 C 
ATOM     36  C   UNL     1      -5.120  -1.209  -2.142  0.00  0.00    -0.025 C 
ATOM     37  H   UNL     1      -4.680  -0.505   0.427  0.00  0.00    -0.080 HD
ENDBRANCH  31  32
ENDBRANCH  30  31
ENDBRANCH  29  30
ENDBRANCH   6  29
TORSDOF 4
