10288191
  -OEChem-10051722383D

 42 44  0     0  0  0  0  0  0999 V2000
    6.9225   -1.6704   -0.7126 Br  0  0  0  0  0  0  0  0  0  0  0  0
    2.0663    1.8113    0.7086 F   0  0  0  0  0  0  0  0  0  0  0  0
    2.3912   -2.6462    1.6763 F   0  0  0  0  0  0  0  0  0  0  0  0
   -3.6924   -2.3519   -0.3489 O   0  0  0  0  0  0  0  0  0  0  0  0
   -1.1076   -1.8870   -0.8921 O   0  0  0  0  0  0  0  0  0  0  0  0
   -5.0001   -4.6432    0.5304 O   0  0  0  0  0  0  0  0  0  0  0  0
   -1.8635    3.9975   -0.0636 N   0  0  0  0  0  0  0  0  0  0  0  0
    0.9902   -0.6999    0.2633 N   0  0  0  0  0  0  0  0  0  0  0  0
    0.2878    4.1817    0.4635 N   0  0  0  0  0  0  0  0  0  0  0  0
   -3.1236   -1.0859   -0.1081 N   0  0  0  0  0  0  0  0  0  0  0  0
   -1.3800    2.7144   -0.0449 C   0  0  0  0  0  0  0  0  0  0  0  0
   -0.0355    2.8560    0.2865 C   0  0  0  0  0  0  0  0  0  0  0  0
    0.1823    0.4581    0.1577 C   0  0  0  0  0  0  0  0  0  0  0  0
   -1.1702    0.3481   -0.1734 C   0  0  0  0  0  0  0  0  0  0  0  0
   -1.9851    1.4798   -0.2824 C   0  0  0  0  0  0  0  0  0  0  0  0
    0.7683    1.7084    0.3918 C   0  0  0  0  0  0  0  0  0  0  0  0
   -0.8301    4.8374    0.2462 C   0  0  0  0  0  0  0  0  0  0  0  0
   -3.2178    4.4040   -0.3559 C   0  0  0  0  0  0  0  0  0  0  0  0
   -1.7777   -0.9555   -0.4157 C   0  0  0  0  0  0  0  0  0  0  0  0
    2.3585   -0.9252    0.0397 C   0  0  0  0  0  0  0  0  0  0  0  0
    3.0387   -1.9092    0.7625 C   0  0  0  0  0  0  0  0  0  0  0  0
    3.0479   -0.1651   -0.9092 C   0  0  0  0  0  0  0  0  0  0  0  0
    4.3973   -2.1315    0.5382 C   0  0  0  0  0  0  0  0  0  0  0  0
    4.4064   -0.3873   -1.1335 C   0  0  0  0  0  0  0  0  0  0  0  0
    5.0812   -1.3705   -0.4099 C   0  0  0  0  0  0  0  0  0  0  0  0
   -5.0640   -2.3053    0.0197 C   0  0  0  0  0  0  0  0  0  0  0  0
   -5.6911   -3.6626   -0.2341 C   0  0  0  0  0  0  0  0  0  0  0  0
   -3.0310    1.4343   -0.5633 H   0  0  0  0  0  0  0  0  0  0  0  0
    0.4959   -1.5147    0.6154 H   0  0  0  0  0  0  0  0  0  0  0  0
   -0.9477    5.9113    0.2991 H   0  0  0  0  0  0  0  0  0  0  0  0
   -3.2965    5.4918   -0.2859 H   0  0  0  0  0  0  0  0  0  0  0  0
   -3.4648    4.0782   -1.3694 H   0  0  0  0  0  0  0  0  0  0  0  0
   -3.8839    3.9360    0.3734 H   0  0  0  0  0  0  0  0  0  0  0  0
    2.5439    0.5882   -1.5089 H   0  0  0  0  0  0  0  0  0  0  0  0
   -3.7138   -0.3777    0.3145 H   0  0  0  0  0  0  0  0  0  0  0  0
    4.9080   -2.9012    1.1109 H   0  0  0  0  0  0  0  0  0  0  0  0
    4.9235    0.2102   -1.8801 H   0  0  0  0  0  0  0  0  0  0  0  0
   -5.1360   -2.0618    1.0867 H   0  0  0  0  0  0  0  0  0  0  0  0
   -5.5851   -1.5395   -0.5661 H   0  0  0  0  0  0  0  0  0  0  0  0
   -5.6114   -3.9441   -1.2887 H   0  0  0  0  0  0  0  0  0  0  0  0
   -6.7447   -3.6702    0.0583 H   0  0  0  0  0  0  0  0  0  0  0  0
   -4.0651   -4.6155    0.2642 H   0  0  0  0  0  0  0  0  0  0  0  0
  1 25  1  0  0  0  0
  2 16  1  0  0  0  0
  3 21  1  0  0  0  0
  4 10  1  0  0  0  0
  4 26  1  0  0  0  0
  5 19  2  0  0  0  0
  6 27  1  0  0  0  0
  6 42  1  0  0  0  0
  7 11  1  0  0  0  0
  7 17  1  0  0  0  0
  7 18  1  0  0  0  0
  8 13  1  0  0  0  0
  8 20  1  0  0  0  0
  8 29  1  0  0  0  0
  9 12  1  0  0  0  0
  9 17  2  0  0  0  0
 10 19  1  0  0  0  0
 10 35  1  0  0  0  0
 11 12  2  0  0  0  0
 11 15  1  0  0  0  0
 12 16  1  0  0  0  0
 13 14  1  0  0  0  0
 13 16  2  0  0  0  0
 14 15  2  0  0  0  0
 14 19  1  0  0  0  0
 15 28  1  0  0  0  0
 17 30  1  0  0  0  0
 18 31  1  0  0  0  0
 18 32  1  0  0  0  0
 18 33  1  0  0  0  0
 20 21  2  0  0  0  0
 20 22  1  0  0  0  0
 21 23  1  0  0  0  0
 22 24  2  0  0  0  0
 22 34  1  0  0  0  0
 23 25  2  0  0  0  0
 23 36  1  0  0  0  0
 24 25  1  0  0  0  0
 24 37  1  0  0  0  0
 26 27  1  0  0  0  0
 26 38  1  0  0  0  0
 26 39  1  0  0  0  0
 27 40  1  0  0  0  0
 27 41  1  0  0  0  0
M  END
> <DATABASE_ID>
DB11967

> <DATABASE_NAME>
drugbank

> <ORIGINAL_SOURCE>
PUBCHEM

> <ORIGINAL_SOURCE_URL>
https://pubchem.ncbi.nlm.nih.gov/rest/pug/compound/inchikey/ACWZRVQXLIRSDF-UHFFFAOYSA-N/SDF?record_type=3d

> <SMILES>
CN1C=NC2=C(F)C(NC3=CC=C(Br)C=C3F)=C(C=C12)C(=O)NOCCO

> <INCHI_IDENTIFIER>
InChI=1S/C17H15BrF2N4O3/c1-24-8-21-16-13(24)7-10(17(26)23-27-5-4-25)15(14(16)20)22-12-3-2-9(18)6-11(12)19/h2-3,6-8,22,25H,4-5H2,1H3,(H,23,26)

> <INCHI_KEY>
ACWZRVQXLIRSDF-UHFFFAOYSA-N

> <FORMULA>
C17H15BrF2N4O3

> <MOLECULAR_WEIGHT>
441.233

> <EXACT_MASS>
440.02956

> <JCHEM_ACCEPTOR_COUNT>
5

> <JCHEM_ATOM_COUNT>
42

> <JCHEM_AVERAGE_POLARIZABILITY>
38.55413298009003

> <JCHEM_BIOAVAILABILITY>
1

> <JCHEM_DONOR_COUNT>
3

> <JCHEM_FORMAL_CHARGE>
0

> <JCHEM_GHOSE_FILTER>
1

> <JCHEM_IUPAC>
5-[(4-bromo-2-fluorophenyl)amino]-4-fluoro-N-(2-hydroxyethoxy)-1-methyl-1H-1,3-benzodiazole-6-carboxamide

> <ALOGPS_LOGP>
3.00

> <JCHEM_LOGP>
3.8125796156666665

> <ALOGPS_LOGS>
-3.95

> <JCHEM_MDDR_LIKE_RULE>
1

> <JCHEM_NUMBER_OF_RINGS>
3

> <JCHEM_PHYSIOLOGICAL_CHARGE>
0

> <JCHEM_PKA>
14.280310577011278

> <JCHEM_PKA_STRONGEST_ACIDIC>
10.260148711013084

> <JCHEM_PKA_STRONGEST_BASIC>
5.298529505570586

> <JCHEM_POLAR_SURFACE_AREA>
88.41000000000001

> <JCHEM_REFRACTIVITY>
98.02459999999999

> <JCHEM_ROTATABLE_BOND_COUNT>
6

> <JCHEM_RULE_OF_FIVE>
1

> <ALOGPS_SOLUBILITY>
4.99e-02 g/l

> <JCHEM_TRADITIONAL_IUPAC>
6-[(4-bromo-2-fluorophenyl)amino]-7-fluoro-N-(2-hydroxyethoxy)-3-methyl-1,3-benzodiazole-5-carboxamide

> <JCHEM_VEBER_RULE>
0

> <DRUGBANK_ID>
DB11967

> <SECONDARY_ACCESSION_NUMBERS>
DB05985

> <DRUG_GROUPS>
approved; investigational

> <GENERIC_NAME>
Binimetinib

> <SYNONYMS>
Binimetinib

> <PRODUCTS>
Mektovi

$$$$
