REMARK  Name = 24986635
REMARK  5 active torsions:
REMARK  status: ('A' for Active; 'I' for Inactive)
REMARK    1  A    between atoms: C_1  and  C_8
REMARK    2  A    between atoms: C_4  and  S_18
REMARK    3  A    between atoms: C_8  and  C_15
REMARK    4  A    between atoms: S_18  and  C_19
REMARK    5  A    between atoms: C_20  and  C_27
REMARK                            x       y       z     vdW  Elec       q    Type
REMARK                         _______ _______ _______ _____ _____    ______ ____
ROOT
ATOM      1  C   UNL     1      -2.744  -0.797  -0.287  0.00  0.00    -0.014 C 
ATOM      2  C   UNL     1      -1.702  -1.306   0.487  0.00  0.00    +0.003 C 
ATOM      3  C   UNL     1      -3.368  -1.608  -1.236  0.00  0.00    -0.004 C 
ATOM      4  C   UNL     1      -1.283  -2.625   0.313  0.00  0.00    +0.029 C 
ATOM      5  C   UNL     1      -2.950  -2.927  -1.410  0.00  0.00    +0.000 C 
ATOM      6  C   UNL     1      -1.907  -3.436  -0.636  0.00  0.00    +0.006 C 
ENDROOT
BRANCH   1   8
ATOM      7  O   UNL     1      -5.379   2.479   0.655  0.00  0.00    -0.354 OA
ATOM      8  C   UNL     1      -3.207   0.656  -0.096  0.00  0.00    +0.092 C 
ATOM      9  C   UNL     1      -3.675   0.891   1.364  0.00  0.00    +0.045 C 
ATOM     10  C   UNL     1      -4.355   1.086  -1.045  0.00  0.00    +0.045 C 
ATOM     11  C   UNL     1      -4.311   2.264   1.571  0.00  0.00    +0.143 C 
ATOM     12  C   UNL     1      -4.929   2.457  -0.695  0.00  0.00    +0.143 C 
BRANCH   8  15
ATOM     13  O   UNL     1      -1.563   2.327   0.447  0.00  0.00    -0.275 OA
ATOM     14  N   UNL     1      -1.522   1.413  -1.664  0.00  0.00    -0.329 N 
ATOM     15  C   UNL     1      -2.017   1.549  -0.388  0.00  0.00    +0.222 C 
ATOM     16  H   UNL     1      -0.748   1.950  -1.952  0.00  0.00    +0.145 HD
ATOM     17  H   UNL     1      -1.941   0.779  -2.290  0.00  0.00    +0.145 HD
ENDBRANCH   8  15
ENDBRANCH   1   8
BRANCH   4  18
ATOM     18  S   UNL     1       0.049  -3.276   1.302  0.00  0.00    -0.087 S 
BRANCH  18  19
ATOM     19  C   UNL     1       1.385  -2.176   0.856  0.00  0.00    +0.029 C 
ATOM     20  C   UNL     1       3.470  -0.458   0.161  0.00  0.00    +0.015 C 
ATOM     21  C   UNL     1       1.803  -2.089  -0.472  0.00  0.00    +0.007 C 
ATOM     22  C   UNL     1       2.009  -1.404   1.836  0.00  0.00    +0.007 C 
ATOM     23  C   UNL     1       2.845  -1.230  -0.819  0.00  0.00    +0.002 C 
ATOM     24  C   UNL     1       3.051  -0.545   1.489  0.00  0.00    +0.002 C 
BRANCH  20  27
ATOM     25  N   UNL     1       4.519   1.781  -0.010  0.00  0.00    -0.210 N 
ATOM     26  N   UNL     1       5.632   2.411  -0.423  0.00  0.00    -0.176 NA
ATOM     27  C   UNL     1       4.548   0.430  -0.199  0.00  0.00    +0.071 C 
ATOM     28  C   UNL     1       5.764   0.158  -0.776  0.00  0.00    +0.039 C 
ATOM     29  C   UNL     1       3.447   2.560   0.567  0.00  0.00    +0.140 C 
ATOM     30  C   UNL     1       6.389   1.414  -0.890  0.00  0.00    +0.119 C 
ENDBRANCH  20  27
ENDBRANCH  18  19
ENDBRANCH   4  18
TORSDOF 5
