REMARK  Name = 6
REMARK  2 active torsions:
REMARK  status: ('A' for Active; 'I' for Inactive)
REMARK    1  A    between atoms: C_2  and  N_10
REMARK    2  A    between atoms: C_3  and  N_13
REMARK                            x       y       z     vdW  Elec       q    Type
REMARK                         _______ _______ _______ _____ _____    ______ ____
ROOT
ATOM      1 CL   UNL     1      -2.781  -1.847  -0.001  0.00  0.00    -0.081 Cl
ATOM      2  C   UNL     1      -0.987   0.216  -0.001  0.00  0.00    +0.155 C 
ATOM      3  C   UNL     1       1.403  -0.140   0.000  0.00  0.00    +0.145 C 
ATOM      4  C   UNL     1       0.311   0.728  -0.001  0.00  0.00    +0.049 C 
ATOM      5  C   UNL     1      -1.193  -1.164   0.000  0.00  0.00    +0.080 C 
ATOM      6  C   UNL     1       1.197  -1.520   0.001  0.00  0.00    +0.025 C 
ATOM      7  C   UNL     1      -0.101  -2.031   0.000  0.00  0.00    +0.015 C 
ENDROOT
BRANCH   2  10
ATOM      8  O   UNL     1      -1.831   2.362   0.001  0.00  0.00    -0.126 OA
ATOM      9  O   UNL     1      -3.245   0.683   0.000  0.00  0.00    -0.126 OA
ATOM     10  N   UNL     1      -2.076   1.133   0.000  0.00  0.00    +0.059 N 
ENDBRANCH   2  10
BRANCH   3  13
ATOM     11  O   UNL     1       3.691  -0.420   0.000  0.00  0.00    -0.126 OA
ATOM     12  O   UNL     1       2.889   1.623  -0.001  0.00  0.00    -0.126 OA
ATOM     13  N   UNL     1       2.724   0.379   0.000  0.00  0.00    +0.058 N 
ENDBRANCH   3  13
TORSDOF 2
