REMARK  Name = 11347535
REMARK  5 active torsions:
REMARK  status: ('A' for Active; 'I' for Inactive)
REMARK    1  A    between atoms: C_5  and  C_12
REMARK    2  A    between atoms: C_7  and  C_21
REMARK    3  A    between atoms: C_12  and  C_13
REMARK    4  A    between atoms: C_12  and  O_19
REMARK    5  A    between atoms: C_21  and  C_23
REMARK                            x       y       z     vdW  Elec       q    Type
REMARK                         _______ _______ _______ _____ _____    ______ ____
ROOT
ATOM      1  O   UNL     1       1.754   1.413   0.709  0.00  0.00    -0.452 OA
ATOM      2  O   UNL     1       0.050   1.796   2.234  0.00  0.00    -0.248 OA
ATOM      3  O   UNL     1       1.470  -2.909   0.473  0.00  0.00    -0.275 OA
ATOM      4  N   UNL     1       0.015  -1.074   0.498  0.00  0.00    -0.294 N 
ATOM      5  C   UNL     1       0.043   0.334   0.128  0.00  0.00    +0.206 C 
ATOM      6  C   UNL     1       1.417   0.617  -0.466  0.00  0.00    +0.171 C 
ATOM      7  C   UNL     1       2.095  -0.759  -0.522  0.00  0.00    +0.116 C 
ATOM      8  C   UNL     1       0.500   1.297   1.228  0.00  0.00    +0.339 C 
ATOM      9  C   UNL     1       1.198  -1.747   0.213  0.00  0.00    +0.226 C 
ATOM     10  C   UNL     1       1.552   1.443  -1.720  0.00  0.00    +0.047 C 
ATOM     11  H   UNL     1      -0.767  -1.508   0.910  0.00  0.00    +0.150 HD
ENDROOT
BRANCH   5  12
ATOM     12  C   UNL     1      -1.206   0.728  -0.640  0.00  0.00    +0.144 C 
BRANCH  12  13
ATOM     13  C   UNL     1      -2.406   0.827   0.304  0.00  0.00    +0.051 C 
ATOM     14  C   UNL     1      -3.670   1.305  -0.435  0.00  0.00    +0.007 C 
ATOM     15  C   UNL     1      -2.619  -0.493   0.999  0.00  0.00    -0.029 C 
ATOM     16  C   UNL     1      -4.368   0.167  -1.179  0.00  0.00    +0.005 C 
ATOM     17  C   UNL     1      -4.743  -0.973  -0.230  0.00  0.00    +0.026 C 
ATOM     18  C   UNL     1      -3.672  -1.290   0.769  0.00  0.00    -0.031 C 
ENDBRANCH  12  13
BRANCH  12  19
ATOM     19  O   UNL     1      -1.473  -0.250  -1.635  0.00  0.00    -0.382 OA
ATOM     20  H   UNL     1      -0.714  -0.315  -2.236  0.00  0.00    +0.210 HD
ENDBRANCH  12  19
ENDBRANCH   5  12
BRANCH   7  21
ATOM     21  C   UNL     1       3.506  -0.744   0.041  0.00  0.00    +0.030 C 
BRANCH  21  23
ATOM     22 CL   UNL     1       6.100   0.140  -0.045  0.00  0.00    -0.114 Cl
ATOM     23  C   UNL     1       4.457   0.171  -0.724  0.00  0.00    +0.095 C 
ENDBRANCH  21  23
ENDBRANCH   7  21
TORSDOF 5
