REMARK  Name = 2998
REMARK  11 active torsions:
REMARK  status: ('A' for Active; 'I' for Inactive)
REMARK    1  A    between atoms: N_2  and  C_13
REMARK    2  A    between atoms: C_3  and  C_5
REMARK    3  A    between atoms: C_5  and  C_6
REMARK    4  A    between atoms: C_6  and  C_7
REMARK    5  A    between atoms: C_7  and  C_8
REMARK    6  A    between atoms: C_8  and  C_9
REMARK    7  A    between atoms: C_9  and  C_10
REMARK    8  A    between atoms: C_10  and  C_11
REMARK    9  A    between atoms: C_13  and  C_14
REMARK   10  A    between atoms: C_17  and  O_20
REMARK   11  A    between atoms: C_19  and  O_22
REMARK                            x       y       z     vdW  Elec       q    Type
REMARK                         _______ _______ _______ _____ _____    ______ ____
ROOT
ATOM      1  O   UNL     1      -0.249   0.622  -1.701  0.00  0.00    -0.275 OA
ATOM      2  N   UNL     1      -1.144   2.097  -0.144  0.00  0.00    -0.300 N 
ATOM      3  C   UNL     1      -0.132   1.333  -0.707  0.00  0.00    +0.223 C 
ATOM      4  H   UNL     1      -0.936   2.631   0.656  0.00  0.00    +0.150 HD
ENDROOT
BRANCH   3   5
ATOM      5  C   UNL     1       1.170   1.478   0.062  0.00  0.00    +0.085 C 
BRANCH   5   6
ATOM      6  C   UNL     1       2.300   0.645  -0.540  0.00  0.00    +0.010 C 
BRANCH   6   7
ATOM      7  C   UNL     1       3.606   0.841   0.234  0.00  0.00    +0.001 C 
BRANCH   7   8
ATOM      8  C   UNL     1       4.756  -0.027  -0.284  0.00  0.00    +0.000 C 
BRANCH   8   9
ATOM      9  C   UNL     1       6.040   0.113   0.536  0.00  0.00    +0.000 C 
BRANCH   9  10
ATOM     10  C   UNL     1       7.131  -0.828   0.021  0.00  0.00    +0.000 C 
BRANCH  10  11
ATOM     11  C   UNL     1       8.403  -0.719   0.863  0.00  0.00    +0.000 C 
ATOM     12  C   UNL     1       9.500  -1.628   0.334  0.00  0.00    +0.000 C 
ENDBRANCH  10  11
ENDBRANCH   9  10
ENDBRANCH   8   9
ENDBRANCH   7   8
ENDBRANCH   6   7
ENDBRANCH   5   6
ENDBRANCH   3   5
BRANCH   2  13
ATOM     13  C   UNL     1      -2.487   2.147  -0.673  0.00  0.00    +0.116 C 
BRANCH  13  14
ATOM     14  C   UNL     1      -3.369   1.093  -0.069  0.00  0.00    +0.001 C 
ATOM     15  C   UNL     1      -3.462  -0.165  -0.665  0.00  0.00    +0.037 C 
ATOM     16  C   UNL     1      -4.096   1.371   1.089  0.00  0.00    +0.001 C 
ATOM     17  C   UNL     1      -4.281  -1.144  -0.103  0.00  0.00    +0.172 C 
ATOM     18  C   UNL     1      -4.915   0.392   1.650  0.00  0.00    +0.040 C 
ATOM     19  C   UNL     1      -5.008  -0.866   1.054  0.00  0.00    +0.168 C 
BRANCH  17  20
ATOM     20  O   UNL     1      -4.363  -2.369  -0.694  0.00  0.00    -0.468 OA
ATOM     21  C   UNL     1      -3.589  -2.572  -1.875  0.00  0.00    +0.253 C 
ENDBRANCH  17  20
BRANCH  19  22
ATOM     22  O   UNL     1      -5.811  -1.814   1.613  0.00  0.00    -0.503 OA
ATOM     23  H   UNL     1      -5.879  -2.661   1.219  0.00  0.00    +0.292 HD
ENDBRANCH  19  22
ENDBRANCH  13  14
ENDBRANCH   2  13
TORSDOF 11
