REMARK  Name = 91617630
REMARK  6 active torsions:
REMARK  status: ('A' for Active; 'I' for Inactive)
REMARK    1  A    between atoms: N_4  and  C_10
REMARK    2  A    between atoms: N_5  and  C_16
REMARK    3  A    between atoms: C_7  and  C_24
REMARK    4  A    between atoms: N_23  and  C_26
REMARK    5  A    between atoms: C_26  and  C_28
REMARK    6  A    between atoms: C_28  and  O_29
REMARK                            x       y       z     vdW  Elec       q    Type
REMARK                         _______ _______ _______ _____ _____    ______ ____
ROOT
ATOM      1  O   UNL     1       2.038  -2.400  -0.534  0.00  0.00    -0.252 OA
ATOM      2  O   UNL     1      -2.147  -0.613   0.407  0.00  0.00    -0.273 OA
ATOM      3  O   UNL     1       1.529   2.133   0.364  0.00  0.00    -0.273 OA
ATOM      4  N   UNL     1      -0.088  -1.541  -0.167  0.00  0.00    -0.215 N 
ATOM      5  N   UNL     1       1.825  -0.114  -0.179  0.00  0.00    -0.215 N 
ATOM      6  C   UNL     1       1.311  -1.422  -0.328  0.00  0.00    +0.319 C 
ATOM      7  C   UNL     1      -0.405   0.878  -0.273  0.00  0.00    +0.229 C 
ATOM      8  C   UNL     1      -0.977  -0.481   0.046  0.00  0.00    +0.250 C 
ATOM      9  C   UNL     1       1.065   1.043   0.026  0.00  0.00    +0.250 C 
ENDROOT
BRANCH   4  10
ATOM     10  C   UNL     1      -0.620  -2.882  -0.129  0.00  0.00    +0.084 C 
ATOM     11  C   UNL     1      -1.661  -3.077  -1.234  0.00  0.00    +0.020 C 
ATOM     12  C   UNL     1      -1.206  -3.193   1.250  0.00  0.00    +0.020 C 
ATOM     13  C   UNL     1      -1.824  -4.589   1.296  0.00  0.00    +0.002 C 
ATOM     14  C   UNL     1      -2.280  -4.472  -1.184  0.00  0.00    +0.002 C 
ATOM     15  C   UNL     1      -2.860  -4.782   0.193  0.00  0.00    +0.000 C 
ENDBRANCH   4  10
BRANCH   5  16
ATOM     16  C   UNL     1       3.263   0.011  -0.154  0.00  0.00    +0.084 C 
ATOM     17  C   UNL     1       3.745   0.943  -1.270  0.00  0.00    +0.020 C 
ATOM     18  C   UNL     1       3.735   0.495   1.218  0.00  0.00    +0.020 C 
ATOM     19  C   UNL     1       5.249   0.688   1.257  0.00  0.00    +0.002 C 
ATOM     20  C   UNL     1       5.259   1.133  -1.228  0.00  0.00    +0.002 C 
ATOM     21  C   UNL     1       5.728   1.613   0.142  0.00  0.00    +0.000 C 
ENDBRANCH   5  16
BRANCH   7  24
ATOM     22  O   UNL     1      -1.323   2.128   1.545  0.00  0.00    -0.274 OA
ATOM     23  N   UNL     1      -1.845   2.760  -0.634  0.00  0.00    -0.294 N 
ATOM     24  C   UNL     1      -1.226   1.982   0.329  0.00  0.00    +0.240 C 
ATOM     25  H   UNL     1      -1.690   2.544  -1.582  0.00  0.00    +0.150 HD
BRANCH  23  26
ATOM     26  C   UNL     1      -2.710   3.873  -0.316  0.00  0.00    +0.200 C 
BRANCH  26  28
ATOM     27  O   UNL     1      -5.050   4.266   0.088  0.00  0.00    -0.248 OA
ATOM     28  C   UNL     1      -4.155   3.471  -0.172  0.00  0.00    +0.334 C 
BRANCH  28  29
ATOM     29  O   UNL     1      -4.370   2.147  -0.356  0.00  0.00    -0.479 OA
ATOM     30  H   UNL     1      -3.651   1.579  -0.553  0.00  0.00    +0.295 HD
ENDBRANCH  28  29
ENDBRANCH  26  28
ENDBRANCH  23  26
ENDBRANCH   7  24
TORSDOF 6
