REMARK  Name = 6880
REMARK  6 active torsions:
REMARK  status: ('A' for Active; 'I' for Inactive)
REMARK    1  A    between atoms: C_1  and  C_10
REMARK    2  A    between atoms: C_2  and  O_7
REMARK    3  A    between atoms: C_10  and  O_11
REMARK    4  A    between atoms: O_11  and  C_12
REMARK    5  A    between atoms: C_12  and  C_13
REMARK    6  A    between atoms: C_13  and  O_14
REMARK                            x       y       z     vdW  Elec       q    Type
REMARK                         _______ _______ _______ _____ _____    ______ ____
ROOT
ATOM      1  C   UNL     1      -0.736   0.068   0.107  0.00  0.00    +0.109 C 
ATOM      2  C   UNL     1      -1.922   0.760  -0.136  0.00  0.00    +0.140 C 
ATOM      3  C   UNL     1      -0.754  -1.320   0.245  0.00  0.00    +0.009 C 
ATOM      4  C   UNL     1      -3.127   0.064  -0.242  0.00  0.00    +0.037 C 
ATOM      5  C   UNL     1      -1.958  -2.016   0.139  0.00  0.00    +0.000 C 
ATOM      6  C   UNL     1      -3.144  -1.324  -0.104  0.00  0.00    +0.003 C 
ENDROOT
BRANCH   2   7
ATOM      7  O   UNL     1      -1.925   2.116  -0.273  0.00  0.00    -0.505 OA
ATOM      8  H   UNL     1      -1.123   2.596  -0.204  0.00  0.00    +0.292 HD
ENDBRANCH   2   7
BRANCH   1  10
ATOM      9  O   UNL     1       0.627   1.929   0.644  0.00  0.00    -0.245 OA
ATOM     10  C   UNL     1       0.532   0.775   0.224  0.00  0.00    +0.344 C 
BRANCH  10  11
ATOM     11  O   UNL     1       1.610   0.030  -0.182  0.00  0.00    -0.443 OA
BRANCH  11  12
ATOM     12  C   UNL     1       2.890   0.666  -0.094  0.00  0.00    +0.240 C 
BRANCH  12  13
ATOM     13  C   UNL     1       3.956  -0.297  -0.579  0.00  0.00    +0.185 C 
BRANCH  13  14
ATOM     14  O   UNL     1       3.951  -1.452   0.252  0.00  0.00    -0.378 OA
ATOM     15  H   UNL     1       4.631  -2.073  -0.054  0.00  0.00    +0.211 HD
ENDBRANCH  13  14
ENDBRANCH  12  13
ENDBRANCH  11  12
ENDBRANCH  10  11
ENDBRANCH   1  10
TORSDOF 6
