REMARK  Name = 3092
REMARK  3 active torsions:
REMARK  status: ('A' for Active; 'I' for Inactive)
REMARK    1  A    between atoms: C_2  and  C_10
REMARK    2  A    between atoms: C_3  and  N_15
REMARK    3  A    between atoms: C_5  and  N_18
REMARK                            x       y       z     vdW  Elec       q    Type
REMARK                         _______ _______ _______ _____ _____    ______ ____
ROOT
ATOM      1  C   UNL     1      -1.172   0.343  -0.016  0.00  0.00    +0.005 C 
ATOM      2  C   UNL     1      -0.830  -1.009  -0.024  0.00  0.00    +0.052 C 
ATOM      3  C   UNL     1      -0.172   1.316  -0.002  0.00  0.00    +0.141 C 
ATOM      4  C   UNL     1       0.512  -1.388  -0.018  0.00  0.00    +0.028 C 
ATOM      5  C   UNL     1       1.512  -0.415  -0.004  0.00  0.00    +0.145 C 
ATOM      6  C   UNL     1       1.170   0.937   0.004  0.00  0.00    +0.048 C 
ATOM      7  C   UNL     1      -2.615   0.745  -0.023  0.00  0.00    +0.033 C 
ENDROOT
BRANCH   2  10
ATOM      8  O   UNL     1      -2.284  -2.512  -1.107  0.00  0.00    -0.270 OA
ATOM      9  N   UNL     1      -2.311  -2.517   1.187  0.00  0.00    -0.325 N 
ATOM     10  C   UNL     1      -1.851  -2.048  -0.039  0.00  0.00    +0.243 C 
ATOM     11  H   UNL     1      -3.001  -3.219   1.217  0.00  0.00    +0.145 HD
ATOM     12  H   UNL     1      -1.947  -2.148   2.023  0.00  0.00    +0.145 HD
ENDBRANCH   2  10
BRANCH   3  15
ATOM     13  O   UNL     1       0.434   3.541   0.019  0.00  0.00    -0.126 OA
ATOM     14  O   UNL     1      -1.703   3.041   0.001  0.00  0.00    -0.126 OA
ATOM     15  N   UNL     1      -0.496   2.701   0.007  0.00  0.00    +0.057 N 
ENDBRANCH   3  15
BRANCH   5  18
ATOM     16  O   UNL     1       3.165  -2.023  -0.005  0.00  0.00    -0.126 OA
ATOM     17  O   UNL     1       3.762   0.089   0.015  0.00  0.00    -0.126 OA
ATOM     18  N   UNL     1       2.879  -0.802   0.003  0.00  0.00    +0.058 N 
ENDBRANCH   5  18
TORSDOF 3
