REMARK  Name = 68712
REMARK  3 active torsions:
REMARK  status: ('A' for Active; 'I' for Inactive)
REMARK    1  A    between atoms: N_2  and  C_8
REMARK    2  A    between atoms: C_8  and  C_9
REMARK    3  A    between atoms: C_8  and  C_12
REMARK                            x       y       z     vdW  Elec       q    Type
REMARK                         _______ _______ _______ _____ _____    ______ ____
ROOT
ATOM      1  O   UNL     1       2.408   0.137   1.080  0.00  0.00    -0.448 OA
ATOM      2  N   UNL     1       0.161   0.160   0.679  0.00  0.00    -0.291 N 
ATOM      3  N   UNL     1       1.730  -0.462  -1.016  0.00  0.00    -0.220 NA
ATOM      4  C   UNL     1       1.406  -0.072   0.178  0.00  0.00    +0.280 C 
ATOM      5  C   UNL     1       3.575  -0.369   0.452  0.00  0.00    +0.235 C 
ATOM      6  C   UNL     1       3.196  -0.471  -1.004  0.00  0.00    +0.177 C 
ATOM      7  H   UNL     1       0.074   0.470   1.609  0.00  0.00    +0.151 HD
ENDROOT
BRANCH   2   8
ATOM      8  C   UNL     1      -1.052  -0.034  -0.115  0.00  0.00    +0.073 C 
BRANCH   8   9
ATOM      9  C   UNL     1      -1.813   1.282  -0.248  0.00  0.00    +0.018 C 
ATOM     10  C   UNL     1      -1.110   2.426  -0.870  0.00  0.00    +0.002 C 
ATOM     11  C   UNL     1      -1.389   2.414   0.605  0.00  0.00    +0.002 C 
ENDBRANCH   8   9
BRANCH   8  12
ATOM     12  C   UNL     1      -1.919  -1.106   0.536  0.00  0.00    +0.018 C 
ATOM     13  C   UNL     1      -3.181  -1.481  -0.142  0.00  0.00    +0.002 C 
ATOM     14  C   UNL     1      -2.012  -2.422  -0.135  0.00  0.00    +0.002 C 
ENDBRANCH   8  12
ENDBRANCH   2   8
TORSDOF 3
