REMARK  Name = 9896434
REMARK  8 active torsions:
REMARK  status: ('A' for Active; 'I' for Inactive)
REMARK    1  A    between atoms: C_1  and  N_17
REMARK    2  A    between atoms: C_9  and  O_21
REMARK    3  A    between atoms: C_12  and  O_23
REMARK    4  A    between atoms: C_13  and  O_25
REMARK    5  A    between atoms: C_14  and  O_27
REMARK    6  A    between atoms: O_27  and  P_28
REMARK    7  A    between atoms: P_28  and  O_30
REMARK    8  A    between atoms: P_28  and  O_32
REMARK                            x       y       z     vdW  Elec       q    Type
REMARK                         _______ _______ _______ _____ _____    ______ ____
ROOT
ATOM      1  C   UNL     1       0.780   1.696   0.768  0.00  0.00    +0.094 C 
ATOM      2  C   UNL     1       0.144   1.859   2.163  0.00  0.00    +0.029 C 
ATOM      3  C   UNL     1      -0.751   0.715   2.655  0.00  0.00    +0.029 C 
ATOM      4  C   UNL     1       1.217   0.273   0.467  0.00  0.00    -0.001 C 
ATOM      5  C   UNL     1      -1.683   0.167   1.603  0.00  0.00    -0.016 C 
ATOM      6  C   UNL     1       0.282  -0.786   0.330  0.00  0.00    +0.000 C 
ATOM      7  C   UNL     1      -1.174  -0.568   0.505  0.00  0.00    +0.033 C 
ATOM      8  C   UNL     1       2.590   0.013   0.309  0.00  0.00    +0.035 C 
ATOM      9  C   UNL     1      -2.090  -1.068  -0.440  0.00  0.00    +0.175 C 
ATOM     10  C   UNL     1      -3.064   0.380   1.728  0.00  0.00    +0.036 C 
ATOM     11  C   UNL     1       0.772  -2.074   0.038  0.00  0.00    +0.003 C 
ATOM     12  C   UNL     1      -3.462  -0.851  -0.304  0.00  0.00    +0.206 C 
ATOM     13  C   UNL     1      -3.949  -0.127   0.778  0.00  0.00    +0.175 C 
ATOM     14  C   UNL     1       3.046  -1.272   0.019  0.00  0.00    +0.149 C 
ATOM     15  C   UNL     1       2.138  -2.314  -0.117  0.00  0.00    +0.037 C 
ENDROOT
BRANCH   1  17
ATOM     16  O   UNL     1       1.597   2.965  -1.714  0.00  0.00    -0.275 OA
ATOM     17  N   UNL     1      -0.076   2.216  -0.280  0.00  0.00    -0.302 N 
ATOM     18  C   UNL     1       0.412   2.806  -1.431  0.00  0.00    +0.223 C 
ATOM     19  C   UNL     1      -0.690   3.235  -2.362  0.00  0.00    +0.095 C 
ATOM     20  H   UNL     1      -1.052   2.145  -0.166  0.00  0.00    +0.150 HD
ENDBRANCH   1  17
BRANCH   9  21
ATOM     21  O   UNL     1      -1.661  -1.731  -1.558  0.00  0.00    -0.468 OA
ATOM     22  C   UNL     1      -1.409  -0.942  -2.715  0.00  0.00    +0.253 C 
ENDBRANCH   9  21
BRANCH  12  23
ATOM     23  O   UNL     1      -4.328  -1.337  -1.239  0.00  0.00    -0.465 OA
ATOM     24  C   UNL     1      -5.327  -2.247  -0.783  0.00  0.00    +0.253 C 
ENDBRANCH  12  23
BRANCH  13  25
ATOM     25  O   UNL     1      -5.285   0.096   0.922  0.00  0.00    -0.468 OA
ATOM     26  C   UNL     1      -5.814   1.276   0.319  0.00  0.00    +0.253 C 
ENDBRANCH  13  25
BRANCH  14  27
ATOM     27  O   UNL     1       4.378  -1.505  -0.130  0.00  0.00    -0.403 OA
BRANCH  27  28
ATOM     28  P   UNL     1       5.542  -0.386   0.001  0.00  0.00    +0.528 P 
ATOM     29  O   UNL     1       5.444   0.756  -0.968  0.00  0.00    -0.216 OA
BRANCH  28  30
ATOM     30  O   UNL     1       6.896  -1.262  -0.132  0.00  0.00    -0.293 OA
ATOM     31  H   UNL     1       6.885  -1.977   0.524  0.00  0.00    +0.223 HD
ENDBRANCH  28  30
BRANCH  28  32
ATOM     32  O   UNL     1       5.525   0.019   1.567  0.00  0.00    -0.293 OA
ATOM     33  H   UNL     1       5.592  -0.783   2.109  0.00  0.00    +0.223 HD
ENDBRANCH  28  32
ENDBRANCH  27  28
ENDBRANCH  14  27
TORSDOF 8
