REMARK  Name = 3086576
REMARK  3 active torsions:
REMARK  status: ('A' for Active; 'I' for Inactive)
REMARK    1  A    between atoms: C_4  and  N_16
REMARK    2  A    between atoms: C_5  and  O_22
REMARK    3  A    between atoms: N_16  and  C_19
REMARK                            x       y       z     vdW  Elec       q    Type
REMARK                         _______ _______ _______ _____ _____    ______ ____
ROOT
ATOM      1  O   UNL     1      -1.740  -3.386   0.371  0.00  0.00    -0.247 OA
ATOM      2  N   UNL     1      -0.754  -1.214   0.415  0.00  0.00    -0.280 N 
ATOM      3  N   UNL     1      -2.891  -1.455  -0.320  0.00  0.00    -0.305 N 
ATOM      4  C   UNL     1       1.811   0.655   0.642  0.00  0.00    -0.028 C 
ATOM      5  C   UNL     1       0.686   1.696   0.630  0.00  0.00    +0.115 C 
ATOM      6  C   UNL     1       1.473  -0.600   1.454  0.00  0.00    +0.006 C 
ATOM      7  C   UNL     1       0.590  -1.610   0.742  0.00  0.00    +0.109 C 
ATOM      8  C   UNL     1      -0.646   1.321   0.043  0.00  0.00    +0.020 C 
ATOM      9  C   UNL     1      -1.221   0.060   0.030  0.00  0.00    +0.078 A 
ATOM     10  C   UNL     1      -2.538  -0.112  -0.426  0.00  0.00    +0.076 A 
ATOM     11  C   UNL     1      -1.790  -2.177   0.189  0.00  0.00    +0.328 A 
ATOM     12  C   UNL     1      -1.451   2.379  -0.450  0.00  0.00    -0.000 C 
ATOM     13  C   UNL     1      -3.326   0.911  -0.907  0.00  0.00    +0.019 C 
ATOM     14  C   UNL     1      -2.761   2.179  -0.922  0.00  0.00    +0.001 C 
ATOM     15  H   UNL     1      -3.766  -1.838  -0.560  0.00  0.00    +0.170 HD
ENDROOT
BRANCH   4  16
ATOM     16  N   UNL     1       2.255   0.342  -0.716  0.00  0.00    +0.388 N 
ATOM     17  H   UNL     1       2.469   1.211  -1.206  0.00  0.00    -0.084 HD
ATOM     18  H   UNL     1       1.510  -0.161  -1.197  0.00  0.00    -0.084 HD
BRANCH  16  19
ATOM     19  C   UNL     1       3.443  -0.496  -0.688  0.00  0.00    -0.062 C 
ATOM     20  C   UNL     1       4.572   0.211   0.057  0.00  0.00    -0.023 C 
ATOM     21  C   UNL     1       3.858  -0.837  -2.116  0.00  0.00    -0.023 C 
ENDBRANCH  16  19
ENDBRANCH   4  16
BRANCH   5  22
ATOM     22  O   UNL     1       0.432   2.131   1.972  0.00  0.00    -0.382 OA
ATOM     23  H   UNL     1       1.268   2.385   2.393  0.00  0.00    +0.211 HD
ENDBRANCH   5  22
TORSDOF 3
