REMARK  Name = 155815
REMARK  9 active torsions:
REMARK  status: ('A' for Active; 'I' for Inactive)
REMARK    1  A    between atoms: N_1  and  C_25
REMARK    2  A    between atoms: C_2  and  C_17
REMARK    3  A    between atoms: C_5  and  C_11
REMARK    4  A    between atoms: C_6  and  O_19
REMARK    5  A    between atoms: C_11  and  C_14
REMARK    6  A    between atoms: O_19  and  C_20
REMARK    7  A    between atoms: C_20  and  C_22
REMARK    8  A    between atoms: C_22  and  O_23
REMARK    9  A    between atoms: C_25  and  C_26
REMARK                            x       y       z     vdW  Elec       q    Type
REMARK                         _______ _______ _______ _____ _____    ______ ____
ROOT
ATOM      1  N   UNL     1       1.431  -0.043  -1.052  0.00  0.00    -0.326 N 
ATOM      2  C   UNL     1       0.808   1.126  -0.708  0.00  0.00    +0.041 A 
ATOM      3  C   UNL     1       0.522  -1.076  -1.076  0.00  0.00    +0.063 A 
ATOM      4  C   UNL     1      -0.721  -0.538  -0.734  0.00  0.00    +0.054 A 
ATOM      5  C   UNL     1      -0.525   0.852  -0.505  0.00  0.00    +0.060 A 
ATOM      6  C   UNL     1      -1.839  -1.394  -0.684  0.00  0.00    +0.141 C 
ATOM      7  C   UNL     1       0.703  -2.432  -1.372  0.00  0.00    +0.017 C 
ATOM      8  C   UNL     1      -1.674  -2.752  -0.977  0.00  0.00    +0.037 C 
ATOM      9  C   UNL     1      -0.421  -3.262  -1.315  0.00  0.00    +0.005 C 
ENDROOT
BRANCH   5  11
ATOM     10  O   UNL     1      -2.705   1.792  -0.445  0.00  0.00    -0.282 OA
ATOM     11  C   UNL     1      -1.505   1.833  -0.128  0.00  0.00    +0.249 C 
BRANCH  11  14
ATOM     12  O   UNL     1      -1.346   4.157   0.224  0.00  0.00    -0.267 OA
ATOM     13  N   UNL     1      -0.660   2.731   1.935  0.00  0.00    -0.323 N 
ATOM     14  C   UNL     1      -1.160   3.049   0.699  0.00  0.00    +0.282 C 
ATOM     15  H   UNL     1      -0.401   3.446   2.560  0.00  0.00    +0.145 HD
ATOM     16  H   UNL     1      -0.560   1.787   2.197  0.00  0.00    +0.145 HD
ENDBRANCH  11  14
ENDBRANCH   5  11
BRANCH   2  17
ATOM     17  C   UNL     1       1.547   2.404  -0.604  0.00  0.00    +0.044 C 
ATOM     18  C   UNL     1       1.579   3.177  -1.926  0.00  0.00    +0.007 C 
ENDBRANCH   2  17
BRANCH   6  19
ATOM     19  O   UNL     1      -3.086  -0.930  -0.355  0.00  0.00    -0.464 OA
BRANCH  19  20
ATOM     20  C   UNL     1      -3.700  -1.504   0.793  0.00  0.00    +0.314 C 
BRANCH  20  22
ATOM     21  O   UNL     1      -5.566  -0.024   0.309  0.00  0.00    -0.246 OA
ATOM     22  C   UNL     1      -5.061  -0.897   0.998  0.00  0.00    +0.359 C 
BRANCH  22  23
ATOM     23  O   UNL     1      -5.667  -1.460   2.073  0.00  0.00    -0.478 OA
ATOM     24  H   UNL     1      -5.227  -2.127   2.563  0.00  0.00    +0.295 HD
ENDBRANCH  22  23
ENDBRANCH  20  22
ENDBRANCH  19  20
ENDBRANCH   6  19
BRANCH   1  25
ATOM     25  C   UNL     1       2.843  -0.177  -1.348  0.00  0.00    +0.132 C 
BRANCH  25  26
ATOM     26  C   UNL     1       3.637  -0.487  -0.107  0.00  0.00    +0.000 C 
ATOM     27  C   UNL     1       3.171  -1.447   0.780  0.00  0.00    -0.002 C 
ATOM     28  C   UNL     1       4.824   0.192   0.132  0.00  0.00    -0.002 C 
ATOM     29  C   UNL     1       3.907  -1.734   1.930  0.00  0.00    -0.000 C 
ATOM     30  C   UNL     1       5.560  -0.095   1.282  0.00  0.00    -0.000 C 
ATOM     31  C   UNL     1       5.101  -1.058   2.181  0.00  0.00    -0.000 C 
ENDBRANCH  25  26
ENDBRANCH   1  25
TORSDOF 9
