11697697
  -OEChem-10051722373D

 55 58  0     0  0  0  0  0  0999 V2000
    6.4204   -2.7631   -0.3636 F   0  0  0  0  0  0  0  0  0  0  0  0
    4.7391   -2.5430    0.9887 F   0  0  0  0  0  0  0  0  0  0  0  0
    4.4090   -2.5455   -1.1607 F   0  0  0  0  0  0  0  0  0  0  0  0
   -3.3156   -0.8704    0.6290 O   0  0  0  0  0  0  0  0  0  0  0  0
    2.7697   -1.3960    0.0884 O   0  0  0  0  0  0  0  0  0  0  0  0
   -7.9527    0.2675   -0.2019 N   0  0  0  0  0  0  0  0  0  0  0  0
    1.9841    0.8193    0.2447 N   0  0  0  0  0  0  0  0  0  0  0  0
    3.5414    2.6067    0.0413 N   0  0  0  0  0  0  0  0  0  0  0  0
   -8.9573    0.7765   -1.1352 C   0  0  0  0  0  0  0  0  0  0  0  0
   -8.4612   -1.0338    0.2307 C   0  0  0  0  0  0  0  0  0  0  0  0
  -10.2694    0.4228   -0.4507 C   0  0  0  0  0  0  0  0  0  0  0  0
   -9.9425   -0.7646    0.4497 C   0  0  0  0  0  0  0  0  0  0  0  0
   -6.6310    0.1754   -0.8041 C   0  0  0  0  0  0  0  0  0  0  0  0
   -5.6167   -0.3256    0.2191 C   0  0  0  0  0  0  0  0  0  0  0  0
   -4.2180   -0.4118   -0.3766 C   0  0  0  0  0  0  0  0  0  0  0  0
   -2.0221   -0.4581    0.5353 C   0  0  0  0  0  0  0  0  0  0  0  0
    0.6180    0.3845    0.3440 C   0  0  0  0  0  0  0  0  0  0  0  0
    4.3502    0.3036   -0.0796 C   0  0  0  0  0  0  0  0  0  0  0  0
    2.9679   -0.1836    0.1116 C   0  0  0  0  0  0  0  0  0  0  0  0
    2.3341    2.1717    0.2346 C   0  0  0  0  0  0  0  0  0  0  0  0
    4.5737    1.6795   -0.1312 C   0  0  0  0  0  0  0  0  0  0  0  0
   -1.4642   -0.1904   -0.7148 C   0  0  0  0  0  0  0  0  0  0  0  0
   -1.2543   -0.3025    1.6895 C   0  0  0  0  0  0  0  0  0  0  0  0
    5.4098   -0.5986   -0.2322 C   0  0  0  0  0  0  0  0  0  0  0  0
   -0.1385    0.2325   -0.8109 C   0  0  0  0  0  0  0  0  0  0  0  0
    0.0713    0.1208    1.5933 C   0  0  0  0  0  0  0  0  0  0  0  0
    5.8769    2.1469   -0.3378 C   0  0  0  0  0  0  0  0  0  0  0  0
    6.7030   -0.1197   -0.4368 C   0  0  0  0  0  0  0  0  0  0  0  0
    1.2889    3.2313    0.5180 C   0  0  0  0  0  0  0  0  0  0  0  0
    6.9368    1.2523   -0.4909 C   0  0  0  0  0  0  0  0  0  0  0  0
    5.2493   -2.0845   -0.1908 C   0  0  0  0  0  0  0  0  0  0  0  0
   -8.9005    0.2728   -2.1087 H   0  0  0  0  0  0  0  0  0  0  0  0
   -8.8641    1.8553   -1.2948 H   0  0  0  0  0  0  0  0  0  0  0  0
   -8.0035   -1.3875    1.1595 H   0  0  0  0  0  0  0  0  0  0  0  0
   -8.3342   -1.8020   -0.5429 H   0  0  0  0  0  0  0  0  0  0  0  0
  -10.6301    1.2607    0.1572 H   0  0  0  0  0  0  0  0  0  0  0  0
  -11.0484    0.1767   -1.1793 H   0  0  0  0  0  0  0  0  0  0  0  0
  -10.1413   -0.5018    1.4954 H   0  0  0  0  0  0  0  0  0  0  0  0
  -10.5508   -1.6405    0.2022 H   0  0  0  0  0  0  0  0  0  0  0  0
   -6.3218    1.1696   -1.1502 H   0  0  0  0  0  0  0  0  0  0  0  0
   -6.6352   -0.4852   -1.6810 H   0  0  0  0  0  0  0  0  0  0  0  0
   -5.8751   -1.3222    0.5957 H   0  0  0  0  0  0  0  0  0  0  0  0
   -5.5970    0.3338    1.0967 H   0  0  0  0  0  0  0  0  0  0  0  0
   -4.2075   -1.1184   -1.2147 H   0  0  0  0  0  0  0  0  0  0  0  0
   -3.9434    0.5881   -0.7372 H   0  0  0  0  0  0  0  0  0  0  0  0
   -2.0180   -0.3252   -1.6392 H   0  0  0  0  0  0  0  0  0  0  0  0
   -1.6836   -0.5090    2.6660 H   0  0  0  0  0  0  0  0  0  0  0  0
    0.2905    0.4331   -1.7889 H   0  0  0  0  0  0  0  0  0  0  0  0
    0.6622    0.2395    2.4974 H   0  0  0  0  0  0  0  0  0  0  0  0
    6.0749    3.2155   -0.3773 H   0  0  0  0  0  0  0  0  0  0  0  0
    7.5483   -0.7913   -0.5587 H   0  0  0  0  0  0  0  0  0  0  0  0
    0.8563    3.0670    1.5088 H   0  0  0  0  0  0  0  0  0  0  0  0
    1.7316    4.2312    0.4884 H   0  0  0  0  0  0  0  0  0  0  0  0
    0.4936    3.1783   -0.2304 H   0  0  0  0  0  0  0  0  0  0  0  0
    7.9438    1.6267   -0.6502 H   0  0  0  0  0  0  0  0  0  0  0  0
  1 31  1  0  0  0  0
  2 31  1  0  0  0  0
  3 31  1  0  0  0  0
  4 15  1  0  0  0  0
  4 16  1  0  0  0  0
  5 19  2  0  0  0  0
  6  9  1  0  0  0  0
  6 10  1  0  0  0  0
  6 13  1  0  0  0  0
  7 17  1  0  0  0  0
  7 19  1  0  0  0  0
  7 20  1  0  0  0  0
  8 20  2  0  0  0  0
  8 21  1  0  0  0  0
  9 11  1  0  0  0  0
  9 32  1  0  0  0  0
  9 33  1  0  0  0  0
 10 12  1  0  0  0  0
 10 34  1  0  0  0  0
 10 35  1  0  0  0  0
 11 12  1  0  0  0  0
 11 36  1  0  0  0  0
 11 37  1  0  0  0  0
 12 38  1  0  0  0  0
 12 39  1  0  0  0  0
 13 14  1  0  0  0  0
 13 40  1  0  0  0  0
 13 41  1  0  0  0  0
 14 15  1  0  0  0  0
 14 42  1  0  0  0  0
 14 43  1  0  0  0  0
 15 44  1  0  0  0  0
 15 45  1  0  0  0  0
 16 22  2  0  0  0  0
 16 23  1  0  0  0  0
 17 25  2  0  0  0  0
 17 26  1  0  0  0  0
 18 19  1  0  0  0  0
 18 21  1  0  0  0  0
 18 24  2  0  0  0  0
 20 29  1  0  0  0  0
 21 27  2  0  0  0  0
 22 25  1  0  0  0  0
 22 46  1  0  0  0  0
 23 26  2  0  0  0  0
 23 47  1  0  0  0  0
 24 28  1  0  0  0  0
 24 31  1  0  0  0  0
 25 48  1  0  0  0  0
 26 49  1  0  0  0  0
 27 30  1  0  0  0  0
 27 50  1  0  0  0  0
 28 30  2  0  0  0  0
 28 51  1  0  0  0  0
 29 52  1  0  0  0  0
 29 53  1  0  0  0  0
 29 54  1  0  0  0  0
 30 55  1  0  0  0  0
M  END
> <DATABASE_ID>
DB11910

> <DATABASE_NAME>
drugbank

> <ORIGINAL_SOURCE>
PUBCHEM

> <ORIGINAL_SOURCE_URL>
https://pubchem.ncbi.nlm.nih.gov/rest/pug/compound/inchikey/DDDZBLNULGDPGA-UHFFFAOYSA-N/SDF?record_type=3d

> <SMILES>
CC1=NC2=CC=CC(=C2C(=O)N1C1=CC=C(OCCCN2CCCC2)C=C1)C(F)(F)F

> <INCHI_IDENTIFIER>
InChI=1S/C23H24F3N3O2/c1-16-27-20-7-4-6-19(23(24,25)26)21(20)22(30)29(16)17-8-10-18(11-9-17)31-15-5-14-28-12-2-3-13-28/h4,6-11H,2-3,5,12-15H2,1H3

> <INCHI_KEY>
DDDZBLNULGDPGA-UHFFFAOYSA-N

> <FORMULA>
C23H24F3N3O2

> <MOLECULAR_WEIGHT>
431.459

> <EXACT_MASS>
431.182061514

> <JCHEM_ACCEPTOR_COUNT>
4

> <JCHEM_ATOM_COUNT>
55

> <JCHEM_AVERAGE_POLARIZABILITY>
44.04150400782153

> <JCHEM_BIOAVAILABILITY>
1

> <JCHEM_DONOR_COUNT>
0

> <JCHEM_FORMAL_CHARGE>
0

> <JCHEM_GHOSE_FILTER>
1

> <JCHEM_IUPAC>
2-methyl-3-{4-[3-(pyrrolidin-1-yl)propoxy]phenyl}-5-(trifluoromethyl)-3,4-dihydroquinazolin-4-one

> <ALOGPS_LOGP>
4.31

> <JCHEM_LOGP>
3.8596539596666677

> <ALOGPS_LOGS>
-5.14

> <JCHEM_MDDR_LIKE_RULE>
1

> <JCHEM_NUMBER_OF_RINGS>
4

> <JCHEM_PHYSIOLOGICAL_CHARGE>
1

> <JCHEM_PKA_STRONGEST_BASIC>
9.373819778950349

> <JCHEM_POLAR_SURFACE_AREA>
45.14000000000001

> <JCHEM_REFRACTIVITY>
114.9266

> <JCHEM_ROTATABLE_BOND_COUNT>
7

> <JCHEM_RULE_OF_FIVE>
1

> <ALOGPS_SOLUBILITY>
3.12e-03 g/l

> <JCHEM_TRADITIONAL_IUPAC>
2-methyl-3-{4-[3-(pyrrolidin-1-yl)propoxy]phenyl}-5-(trifluoromethyl)quinazolin-4-one

> <JCHEM_VEBER_RULE>
0

> <DRUGBANK_ID>
DB11910

> <DRUG_GROUPS>
investigational

> <GENERIC_NAME>
MK-0249

$$$$
