REMARK  Name = 5284529
REMARK  7 active torsions:
REMARK  status: ('A' for Active; 'I' for Inactive)
REMARK    1  A    between atoms: N_2  and  CA_9
REMARK    2  A    between atoms: C_3  and  CA_20
REMARK    3  A    between atoms: CA_11  and  C_17
REMARK    4  A    between atoms: C_13  and  O_14
REMARK    5  A    between atoms: C_17  and  O_18
REMARK    6  A    between atoms: CA_20  and  C_21
REMARK    7  A    between atoms: CA_20  and  N_27
REMARK                            x       y       z     vdW  Elec       q    Type
REMARK                         _______ _______ _______ _____ _____    ______ ____
ROOT
ATOM      1  O   UNL     1       2.444   1.931  -1.668  0.00  0.00    -0.277 OA
ATOM      2  N   UNL     1       0.906   1.483   0.008  0.00  0.00    -0.298 N 
ATOM      3  C   UNL     1       2.196   1.639  -0.499  0.00  0.00    +0.206 C 
ATOM      4  H   UNL     1       0.798   1.248   0.958  0.00  0.00    +0.150 HD
ENDROOT
BRANCH   2   9
ATOM      5  S   UNL     1      -0.316  -1.205  -0.851  0.00  0.00    -0.110 S 
ATOM      6  O   UNL     1      -1.965   2.872   0.715  0.00  0.00    -0.273 OA
ATOM      7  N   UNL     1      -2.048   0.735  -0.272  0.00  0.00    -0.240 N 
ATOM      8  C   UNL     1      -1.055   0.392  -1.276  0.00  0.00    +0.155 C 
ATOM      9  CA  UNL     1      -0.294   1.653  -0.810  0.00  0.00    +0.178 C 
ATOM     10  C   UNL     1      -1.574   1.964   0.020  0.00  0.00    +0.251 C 
ATOM     11  CA  UNL     1      -3.060  -0.091   0.088  0.00  0.00    +0.162 C 
ATOM     12  C   UNL     1      -1.908  -2.103  -0.946  0.00  0.00    +0.124 C 
ATOM     13  C   UNL     1      -3.048  -1.401  -0.233  0.00  0.00    +0.147 C 
BRANCH  13  14
ATOM     14  O   UNL     1      -4.098  -2.232   0.122  0.00  0.00    -0.473 OA
ATOM     15  C   UNL     1      -4.691  -2.802  -1.026  0.00  0.00    +0.252 C 
ENDBRANCH  13  14
BRANCH  11  17
ATOM     16  OXT UNL     1      -4.783  -0.176   1.723  0.00  0.00    -0.244 OA
ATOM     17  C   UNL     1      -4.160   0.456   0.892  0.00  0.00    +0.355 C 
BRANCH  17  18
ATOM     18  O   UNL     1      -4.358   1.748   0.563  0.00  0.00    -0.476 OA
ATOM     19  H   UNL     1      -3.824   2.151  -0.093  0.00  0.00    +0.295 HD
ENDBRANCH  17  18
ENDBRANCH  11  17
ENDBRANCH   2   9
BRANCH   3  20
ATOM     20  CA  UNL     1       3.286   1.411   0.540  0.00  0.00    +0.036 C 
BRANCH  20  21
ATOM     21  C   UNL     1       3.649  -0.036   0.538  0.00  0.00    -0.034 C 
ATOM     22  C   UNL     1       4.148  -0.594  -0.774  0.00  0.00    -0.006 C 
ATOM     23  C   UNL     1       3.538  -0.799   1.640  0.00  0.00    -0.006 C 
ATOM     24  C   UNL     1       3.891  -2.258   1.682  0.00  0.00    -0.000 C 
ATOM     25  C   UNL     1       4.501  -2.052  -0.730  0.00  0.00    -0.000 C 
ATOM     26  C   UNL     1       4.386  -2.801   0.375  0.00  0.00    -0.000 C 
ENDBRANCH  20  21
BRANCH  20  27
ATOM     27  N   UNL     1       4.413   2.268   0.180  0.00  0.00    +0.390 N 
ATOM     28  H1  UNL     1       4.116   3.244   0.195  0.00  0.00    -0.088 HD
ATOM     29  H2  UNL     1       4.739   2.026  -0.756  0.00  0.00    -0.088 HD
ATOM     30  H3  UNL     1       5.170   2.132   0.850  0.00  0.00    -0.088 HD
ENDBRANCH  20  27
ENDBRANCH   3  20
TORSDOF 7
