REMARK  Name = 46906075
REMARK  6 active torsions:
REMARK  status: ('A' for Active; 'I' for Inactive)
REMARK    1  A    between atoms: C_1  and  C_2
REMARK    2  A    between atoms: C_1  and  C_11
REMARK    3  A    between atoms: C_2  and  CA_3
REMARK    4  A    between atoms: CA_3  and  N_4
REMARK    5  A    between atoms: CA_3  and  C_10
REMARK    6  A    between atoms: C_11  and  N_12
REMARK                            x       y       z     vdW  Elec       q    Type
REMARK                         _______ _______ _______ _____ _____    ______ ____
ROOT
ATOM      1  C   UNL     1       0.489   0.190  -0.175  0.00  0.00    +0.022 C 
ENDROOT
BRANCH   1   2
ATOM      2  C   UNL     1       1.525   1.007   0.613  0.00  0.00    -0.009 C 
BRANCH   2   3
ATOM      3  CA  UNL     1       2.974   0.808   0.148  0.00  0.00    +0.040 C 
BRANCH   3   4
ATOM      4  N   UNL     1       3.087   1.378  -1.232  0.00  0.00    +0.389 N 
ATOM      5  H1  UNL     1       2.700   2.322  -1.242  0.00  0.00    -0.088 HD
ATOM      6  H2  UNL     1       2.568   0.791  -1.886  0.00  0.00    -0.088 HD
ATOM      7  H3  UNL     1       4.068   1.410  -1.508  0.00  0.00    -0.088 HD
ENDBRANCH   3   4
BRANCH   3  10
ATOM      8  O   UNL     1       4.428  -0.947  -0.534  0.00  0.00    -0.248 OA
ATOM      9  OXT UNL     1       3.034  -1.296   1.237  0.00  0.00    -0.248 OA
ATOM     10  C   UNL     1       3.528  -0.621   0.290  0.00  0.00    +0.345 C 
ENDBRANCH   3  10
ENDBRANCH   2   3
ENDBRANCH   1   2
BRANCH   1  11
ATOM     11  C   UNL     1      -0.941   0.458   0.288  0.00  0.00    +0.100 C 
BRANCH  11  12
ATOM     12  N   UNL     1      -1.883  -0.323  -0.478  0.00  0.00    -0.347 N 
ATOM     13  N   UNL     1      -3.884  -1.158  -1.179  0.00  0.00    -0.371 N 
ATOM     14  N   UNL     1      -3.825   0.437   0.608  0.00  0.00    -0.345 N 
ATOM     15  C   UNL     1      -3.256  -0.306  -0.295  0.00  0.00    +0.170 C 
ATOM     16  C   UNL     1      -5.277   0.373   0.709  0.00  0.00    +0.124 C 
ATOM     17  H   UNL     1      -1.523  -0.910  -1.182  0.00  0.00    +0.163 HD
ATOM     18  H   UNL     1      -3.352  -1.676  -1.826  0.00  0.00    +0.159 HD
ATOM     19  H   UNL     1      -4.864  -1.248  -1.165  0.00  0.00    +0.159 HD
ATOM     20  H   UNL     1      -3.296   1.020   1.200  0.00  0.00    +0.163 HD
ENDBRANCH  11  12
ENDBRANCH   1  11
TORSDOF 6
