204
  -OEChem-01211818373D

 17 17  0     1  0  0  0  0  0999 V2000
    0.0265   -2.0993   -0.2487 O   0  0  0  0  0  0  0  0  0  0  0  0
   -3.4262    0.9195   -0.1674 O   0  0  0  0  0  0  0  0  0  0  0  0
    2.7700   -0.4036    0.9314 O   0  0  0  0  0  0  0  0  0  0  0  0
   -1.1874    1.0662    0.4956 N   0  0  0  0  0  0  0  0  0  0  0  0
    1.0614    0.6471   -0.2505 N   0  0  0  0  0  0  0  0  0  0  0  0
   -1.9378   -0.8619   -0.3284 N   0  0  0  0  0  0  0  0  0  0  0  0
    3.2651    0.8679   -0.9147 N   0  0  0  0  0  0  0  0  0  0  0  0
   -0.0389    0.2034    0.5448 C   0  0  2  0  0  0  0  0  0  0  0  0
   -0.6093   -1.0745   -0.0456 C   0  0  0  0  0  0  0  0  0  0  0  0
   -2.3167    0.4261   -0.0192 C   0  0  0  0  0  0  0  0  0  0  0  0
    2.3933    0.3091    0.0026 C   0  0  0  0  0  0  0  0  0  0  0  0
    0.2518    0.0411    1.5868 H   0  0  0  0  0  0  0  0  0  0  0  0
   -1.1851    2.0303    0.8129 H   0  0  0  0  0  0  0  0  0  0  0  0
    0.8597    1.2189   -1.0647 H   0  0  0  0  0  0  0  0  0  0  0  0
   -2.5550   -1.5576   -0.7311 H   0  0  0  0  0  0  0  0  0  0  0  0
    2.9351    1.4540   -1.6741 H   0  0  0  0  0  0  0  0  0  0  0  0
    4.2650    0.7077   -0.8544 H   0  0  0  0  0  0  0  0  0  0  0  0
  1  9  2  0  0  0  0
  2 10  2  0  0  0  0
  3 11  2  0  0  0  0
  4  8  1  0  0  0  0
  4 10  1  0  0  0  0
  4 13  1  0  0  0  0
  5  8  1  0  0  0  0
  5 11  1  0  0  0  0
  5 14  1  0  0  0  0
  6  9  1  0  0  0  0
  6 10  1  0  0  0  0
  6 15  1  0  0  0  0
  7 11  1  0  0  0  0
  7 16  1  0  0  0  0
  7 17  1  0  0  0  0
  8  9  1  0  0  0  0
  8 12  1  0  0  0  0
M  END
> <DATABASE_ID>
DB11100

> <DATABASE_NAME>
drugbank

> <ORIGINAL_SOURCE>
PUBCHEM

> <ORIGINAL_SOURCE_URL>
https://pubchem.ncbi.nlm.nih.gov/rest/pug/compound/inchikey/POJWUDADGALRAB-UHFFFAOYSA-N/SDF?record_type=3d

> <SMILES>
NC(=O)NC1NC(=O)NC1=O

> <INCHI_IDENTIFIER>
InChI=1S/C4H6N4O3/c5-3(10)6-1-2(9)8-4(11)7-1/h1H,(H3,5,6,10)(H2,7,8,9,11)

> <INCHI_KEY>
POJWUDADGALRAB-UHFFFAOYSA-N

> <FORMULA>
C4H6N4O3

> <MOLECULAR_WEIGHT>
158.1154

> <EXACT_MASS>
158.043990078

> <JCHEM_ACCEPTOR_COUNT>
3

> <JCHEM_ATOM_COUNT>
17

> <JCHEM_AVERAGE_POLARIZABILITY>
12.894797417541849

> <JCHEM_BIOAVAILABILITY>
1

> <JCHEM_DONOR_COUNT>
4

> <JCHEM_FORMAL_CHARGE>
0

> <JCHEM_GHOSE_FILTER>
0

> <JCHEM_IUPAC>
(2,5-dioxoimidazolidin-4-yl)urea

> <ALOGPS_LOGP>
-1.95

> <JCHEM_LOGP>
-2.360540882

> <ALOGPS_LOGS>
-1.52

> <JCHEM_MDDR_LIKE_RULE>
0

> <JCHEM_NUMBER_OF_RINGS>
1

> <JCHEM_PHYSIOLOGICAL_CHARGE>
0

> <JCHEM_PKA>
12.41419987137925

> <JCHEM_PKA_STRONGEST_ACIDIC>
7.948848806915678

> <JCHEM_PKA_STRONGEST_BASIC>
-3.3762243606061957

> <JCHEM_POLAR_SURFACE_AREA>
113.32

> <JCHEM_REFRACTIVITY>
32.0225

> <JCHEM_ROTATABLE_BOND_COUNT>
1

> <JCHEM_RULE_OF_FIVE>
1

> <ALOGPS_SOLUBILITY>
4.73e+00 g/l

> <JCHEM_TRADITIONAL_IUPAC>
allantoin

> <JCHEM_VEBER_RULE>
0

> <DRUGBANK_ID>
DB11100

> <DRUG_GROUPS>
approved

> <GENERIC_NAME>
Allantoin

> <SYNONYMS>
(2,5-Dioxo-4-imidazolidinyl)urea; 2,5-Dioxo-4-imidazolidinyl-urea; 4-ureido-2,5-imidazolidinedione; 5-Ureido-2,4-imidazolidindione; 5-Ureidohydantoin; AlantoÃ­na; Allantoin; Glyoxyldiureide; N-(2,5-Dioxo-4-imidazolidinyl)urea

> <PRODUCTS>
12 Hour Healing; 12 Hour Miracle; 28 Remedy Aqua Brightening Peeling; 3M Nexcare Cold Sore Treatment; 3ce Fixer and Mascara Black; 3ce Fixer and Mascara Brown; 4Jointz; 911; 911 Balm-C; A.H.c Cotton 100 Mask Multi Peptide; A.H.c Cotton 100 Mask Skin Ceramide; A.H.c Cotton 100 Mask Soy Isoflavone; A.H.c Cotton 100 Mask Triple Hyaluronic; AAFX Hair; AAFX Skin; AAPE Hair Ampoule; AAPE Skin Ampoule; AC Control Serum; AL0040600 Alba Cooling Aloe Burn Relief; ALOE PROPOLIS SOOTHING 30mL; ARC Skin Protectant; ATOMU 17 Plus; ATOMU Essence A; ATOMU Natural; Actifirm Recovery Eye Gowoonsesang Expert; Actinac Pwr; Actinac Pws; Ahc Radiance Gommage Peeling; Alegria Neo; Allantoin; Allegra Cooling Relief Anti-Itch; Allegra Intensive Relief Anti-Itch; Aloe Propolis Soothing; Aloe Propolis Soothing Ge L; Alphosyl Cream; Alphosyl Lotion; Alra Therapy; An12; Anbesol Cold Sore Therapy; Anti Chafe Balm; Anti-Chafe Stick Pro Series; Antiscar; Any Mi Natural Magic BB No.5; Any Mi Natural Magic BB No.7; Aqua Bab Modeling Mask; Aqua Rush Fluid; Ashwagandha Ferment Mask; Aspiera Wound Care and Antiseptic; Atobos; Atobos Baby Aqua Soothing; Atobos Centella Baby; Atobos Centella Baby Aqua Soothing; Atobos Centella and Wash; Atobos Wash; Atomu; Atomu Skin; Atorak Ampoule; Aubio Life Sciences Lip; Avance Cure Barrier; Avance Cure Incontinence; Avance Cure Moisturizing Incontinence Cream; Avapta; Avon Beyond Color Lip Recovery Cream SPF 15; BABOR CLEANSING Rose Toning; BABOR Collagen Booster; BEYOND THE SHAVE For Men; BK Cell 2STEP AQUA TOKTOK MASK; BL Vital; BL Vital Essence; BL Vital Serum; BL Vital Skin; Baby Wipes with Allantoin; Balzarol Ont; Beauticontrol Balancing Moisturizer Eml 0.6%; Beauty Fox Atoclinic; Beevenom Mask Sheet; BerbereX Wound Cleanser; Biowhite Beauty Serum; Bioxidea Element 48 Natura Diamond Mask; Bioxidea Element 48 Natura Gold Mask; Bioxidea Miracle 48 Excellence Diamond Mask; Bioxidea Miracle 48 Excellence Gold Mask; Black Cavidiol Mask; Blemish; Blister Armour Anti-Friction Mission; Body Armor; Bodyglide For Her; Bodyglide anti chafe balm; Botaneth Pronoxin Hair Regainer Fs2 Activator 2-A 2-B; Botanic Twenty Hypercare Plumping Formula; Botanic Twenty Recharging Toner; Breast Essence II; Brtc Vitalizer C10 Ampoule; Burn Relief; Burn Relief Cream; Burn-B Gone OTC; By Pharmicell Lab Luxury Cell Performance Emulsion; By Pharmicell Lab Luxury Cell Performance Serum; By Pharmicell Lab Luxury Cell Performance Toner; By Pharmicell Lab Moisturizing Face Toning Mist; By Pharmicell Lab The Prestige Essence; Bye Bye Burn Lot; CBDMEDIC Itch and Rash; CVS Health Advanced Scar Gel; Caftan Polygonum Foot Cream; Careline Antigravity; Careline Perfect Care BB; Cell Power Boosting Essence; Cellapy MGF Hydro Gel Intense Mask; Cellpium vampire cleansing mask; Cellzyme Ampoule; Cellzyme Secret Therapy; Cellzyme Secret Therapy 3845; Ceviangs Ultra Bio Cellulose Mask; Ceviangs Ultra Intensive Repair Treatment Mist; Chamois Glide; Coats Aloe; Cold Sore Relief; Cold Sore Support; Cold Sore TREATMENT; Cold Sore Treatment; Colliginix; Cool Melon; Correct Essential Activator; D-Care; DR DEEP AQUA WRINKLEcream; DR DEEP MULTIemulsion; Daily Lip Maintenance; De LA Cruz Diaper Rash; Dermaheal Ultimatum PTx Sports; Dermoessential Super Enzyme; Dermovix; Diabetic Bruise Defense; Diabetic Dry Skin Defense; Diabetic Foot Defense; Diabetic Ulcer Defense; Dimethicone, Allantoin Biofrequency Chip Bandage; Dio Pororo Kids Foaming; Dr Ciel Mineral Emulsion; Dr Ciel Mineral Skin; Dr Deep Acpa Tea TreeLotion; Dr Deep Aqua Wrinkle; Dr Deep Brightening FacialEmulsion; Dr Deep Multi Emulsion Mini; Dr Deep Pure Snail Moisture Essence Mask Sheet; Dr Deep SkinToner Mini; Dr Deep Skintoner; Dr MEDECEAN Return Whitening Essence; Dr Young 2p Blemish Base SPF35 PA; Dr. Oberon Natural Baby; Dr. Young 2P Pearl Brightening Balm SPF35 PA; Dr.G BRIGHTENING PEELING; Dr.G CLEANSING WATER; Dr.G DEEP PEELING; Dr.G Hydra Intensive Emulsion; Dr.G Hydra Intensive Essence; Dr.G Hydra Intensive Toner; Dr.G Revital Enhancer Ampoule; Dr.g Dewrinkle Fortifier By Egf; Dr.g Whitening Fortifier By Egf; Dual Treatment - Cold Sore Therapy and Daily Lip Maintenance; EGF Premium Antiaging Eye; EGF Premium Antiaging Special; EGF Premium Whitening Milk; EGF Premium Whitening Skin; Easydew Daily 2 Step Vita Toning Mask; Eco Face 9; Eczema Fast Healing; Eczema Relief; Elite; Elite PAIN RELIEF; Elta Dermal Gel for Wound Dressing; Elta Dermal Wound Cleanser; Emp Collagen Boost; Energy Booster Essence; Equate Scar Topical; Essential Solution Coenzyme Q10 Mask Sheet; Essential Solution Collagen Mask Sheet; Essential Solution Hyaluronic Acid Mask Sheet; Essential Solution Vita A Mask Sheet; Essential Solution Vita C Mask Sheet; Facial Lifting; Fast Results Genital Herpes Treatment; Fikia Marine Delight Soothing Mist; Fruit of the Earth Cool Blue Aloe Vera Cooling; Fucoidan Essence; Fucoidan Hair Tonic; Fucoidan Skincure; GMDANSU Eye Serum; GMDANSU Herbal Mask Sheet; GMDANSU Skin; GMDANSU Snail Blemish Balm; Gene 16 Whitening Factor; Ginseng Stemvesicle; Goojin Bio Serum; Goong Secret Calming Bath; Goongsecret Calming Bath; Grahams Natural Eczema Gel; Green; Gujin Bio Serum; Hahalady; Hairfill Scalp Hair Essential Booster; Hairfill Scalp Hair Essential Tonic Plus; Hairjoy Hair Essence; Hairjoy Msm Scalp Essence; Hairjoy Tonic; Hands First 4 in 1; Hasol Revitalizing Scalp Ampoule; Healing CVS; Healing Foot and Leg Balm; Herbal Skin Toner; Herpetino Cold Sore Relief Terry Naturally Brand; HydroGold 9; Hyundae Meditech Bio Hair Solu Tion Erua Do; Infinite Aloe All-IN-one Skin Care; Infinite Aloe Skin Care; Inflammation OTC Radiation Relief; Inked; Inked Aftercare Tattoo Balm; Inner Cell Serum- Serum; Iontophoresis Anti Aging Solution I; Itch Relief; Itch relief Cream; Jabon Shelo Nabel Con Alantoina Baba de Caracol; Jasmine 3D Moist Pact; Jayjun Baby Pure Shining Mask Step2 Baby Pure Shining Mask; Jayjun Real Water Brightening Black Mask Step2 Jayjun Vita Snow Essence; Jayjun Real Water Brightening Black Mask Step3 Real Water Brightening Black Mask; Jeju Sparkling Cleansing Tissue; Jenacell Supercell Serum; Jilgyungyi; Jilgyungyi (10 Tablets); Jilgyungyi (20 Tablets); Jilgyungyi (6 Tablets); Kaewoon; Kaewoon for Men; Kaewoon for Women; Kenaf wet wipe; Kenaf wet wipe kids; Lbio Block Spf50; Lbio Block Tinted 30spf; Le Stick A Levres Onybel; Leaders Mediu Calming Peppermint Pack; Leaders Mediu Pore Cleaning Carbonated Pack; Leaders Mediu Purifying Salt Pack; Leaders Mediu Soothing Aloe Pack; Livelashes; Luminant Umbrella Mask Pack; Luxury Cell Performance Emulsion; Luxury Cell Performance Serum; Luxury Cell Performance Toner; Lycoris RUBUS Whitening Fluid; Lycoris rubus whitening; Lycoris rubus whitening moisturizing; M-Rose Seaweed Essence Serum; M-Rose Seaweed Hydrogel Mask; M-Rose Seaweed Lifting Revitalizing; Macoma Senior Premium Cleanser; Mandelic 2 Peel Gel; Marine Purifying; Mederma Advanced Scar; Mederma for Kids; Medi Hydro DP Cleanser; Medi Wrinkle Cream; Medi Wrinkle Serum; Melano Out Cream; Melano Out Mask; Micro Dust Detox; Miracle GYN (10 Tablets); Miracle GYN (2 Tablets); Miracle GYN (4 Tablets); Miracle Gyn; Miracle Heel Repair; Miracle Of Skin; Moisture Extreme SPF 15; Moistursil; Mons; Mulberry Emulsion; Mulberry Serum; Mulberry Toner; Mycellcare All in One Serum; Mycellcare Feminine Cleanser; Mycellcare Feminine Mist; Mycellcare iT s; NANOMIX NANO CLEAN Skin Protectant Antibacterial Function; NEWSTEM Rx Ceramide; NEWSTEM Rx Fractional; NEWSTEM Rx Intensive; NMC Magic Serum; Naaman; Nano Gold Bio Mask Pack; Natural Ginseng Emulsion; Natural Ginseng Serum; Natural Ginseng Toner; Natural Ice Healer; Neutracett All Purpose; Neutracett Tattoo; Neutracett Ulcer; NoTS Soothing Multi Ge l Mask; NoblRose Foam Cleanser; Noblesse Manz Grooming So Clean Care; OLP Scar Cream; OZ TREE HandMade by Dorothy; Ohl O2; Orajel Cold Sore Moisturelock; Orajel Multi-action Cold Sore Medicine; Orajel for Codl Sores Relief and Concealer; Orajel for Cold Sores Maximum Strength; Original Power Refirming Ampoule; Original Power Whitening and Lineless Ampoule; PHS Hair Science Adv Revitalizing Scalp Ampoule; PORE CARE Lotus Mask; PURE SELECT Purifying Anti-Aging; PUREFORET Skin balancing Toner; Parma Anus Skin Premium Cleanser; Pelo Baum Brow Brow; Pelo Baum Hair Revitalizing; Pelo Baum Lash Lash; Peony Acmella Antioxidant Serum; Perfect Calming BB Remover; Perfect Calming Serum; Perfect Wrinkle Serum; Phen-oris - Ont Top; Phenoris Ont; Phyton Therapy Cleansing Bar; Plagentra Baby Bubble Wash; Plagentra Mothers Belly; Plant Stemcell VEGF bFGF Tonic; Platinum clean; Plu Refresh Peeling Facial Scrub; Plu Soft Peeling Facial Scrub; Polyactil N; Polysporin Lip Treatment; Post Care; Power Aqua Balancing Toner; Power Defence Smart; Preginot; Premium Scar Patch; Psoriasis Cream; Psoricare Crm 3%; Pure C Serum; Pure Red Red Ginseng Cleansing; Puriface Spirulina Eye Gel Masks; Purple; QYO QYO Tangerine Bright Moist; QYO QYO Tangerine Bright Moist All In One Cream; QYO QYO Tangerine Bright Moist Mask Pack; Queen Perfume Hair Conditioner; REVAGAIN Scalp Tonic; REVERDIR AMPOULE 7mL; REVERDIR PTD Black Diamond Mask; RODAN and FIELDS SOOTHE; Ramosu The Witches Cream Pack Gold; Raphagen Powde R; Rash Guard Baby Wipes; Rayderm Hydrating Mask; Reborncell Aqua Rich Pure Skin; Reborncell Aqua Rich Soft; Reborncell Cleansing; Red Ginseng Pure Red Lively Water; Red Ginseng Snail Ferment Mask; Red Ginseng Snail Gold Serum; Renokin Hair Revitalizing; Renokin Lash Lash; Renuu NL; Renuu Patch; Repairing and Soothing Treatment Essence; Reverdir Ptd Energy Serum; Reverdir Ptd Renew Essence; Rg1; Roezit; Rps Care; Rs85; Ruby Cell 4u Bio Cellulose Mask; Ruby Cell 4u Carbonated Beauty Water; Ruby Cell 4u Carbonated Mist; Run Guard Original; Run Guard Sensitive; SBS 40 Medicated Cream; SBS 41 Medicated Cream; SBS Care; SL Mineral Aqua Cream; SL Mineral Multi Emulsion; SL Mineral Toner; SOOTHE Regimen for Sensitive Skin; SOOTHE Regimen for Sensitive Skin Travel Size; SOOTHE Sensitive Skin Treatment; STACEYS LAB ActiGen; STACEYS LAB ActiGen Ampoule; Salicylic 2 Peel Gel; Sallys Box Delight Collagen Hydrogel Mask; Sallys Box Loverecipe Carrot Mask; Sallys Box Loverecipe Paprika Mask; Sallys Box Loverecipe Peach Mask; Sallys Box Loverecipe Pomegranate Mask; Sallys Box Secret Garden Lemon Oil Ampoule Mask; Sallys Box Secret Garden Tea Tree Oil Ampoule Mask; Sang Leaf Ginseng Collagen; Sarene Soothing Skin; Sbs 40; Sbs 40 Medicated Skin Cream; Sbs 40 Medicated Skin Lotion; Sbs 41; Sbs 41 Medicated Skin Lotion; Scadexe; Scar; Scar CVS; Scar Care; Scar Cream; Scar Equate; Scar Gel Advanced Formula; Scar Patch; Scarderm; Seaweed Aqua Massage; Secret Gyno (10 Tablets); Secretipss Scalp Hair Essential Booster; Secretipss Scalp Hair Essential Booster Intense Care for Damaged Scalps and Hairs; Secretipss Scalp Hair Essential Tonic Plus; Secretipss Scalp Hair Essential Tonic Plus Hair Regrowth Treatment With Natural Ingredients and Vitamin Complex; Sella Classic Natural Facial Essence; Sella Natural Body; Sella Premium Natural Facial Essence; Sella Premium Natural Gold Serum; Seniorclean Bio; Seuk; Shelo NABEL Baba de Caracol; Shelo NABEL Baba de Caracol Locion Corporal; Shelo NABEL CACAO Skin Protectan; Shelo NABEL Crema Baba de Caracol; Shelo NABEL D B T Cream; Shelo NABEL Jabon Baba Car; Siseundeusi Bless Body; Skin Barista Rice Bran Cleansing Foam; Skin Protectant; Skin Strategies for Men-soothing Moisturizer; Smart Brushing Tooth; Smart Choice Barrier; Snow White Ampoule; Softlips Lip Relief; Solie Toner; Soosul Essence; Soothex - Crm Top 1%; Sun Burn Relief Cream; Super Aqua Max Deep Moisture Hydrogel Mask Sheet; Supreme 1st Essence; T2 Serum; TRUEplus diabetics foot care; Tamnamo Vital Hair Treatment; Tanac Medicated Gel; Tegrin Cream; Terrasil Cold Sore Treatment; Terrasil Cold Sore Treatment MAX; Terrasil Cold Sore Treatment Max; Terrasil Itch, Rash and Pain Relief; Terrasil Itch, Rash and Pain Relief MAX; Terrasil Itch, Rash and Pain Relief Maximum Strength; Terrasil Skin Repair; Terrasil Skin Repair MAX; Terrasil Wound Care; Terrasil Wound Care MAX; Thanks 12 Rich Caviar Mask; Thanks 12 Rich Caviar Mist; The Bamboo Of Damyang Moisture Essence; The Barafu Intensive Serum; The First Ampoule Essence; The Prestige Essence; Theraworx Patented Foam Formulation; Theraworx pre-moistened cloths; Tourcia Body Wash; Tourcia Nutri; Tourcia Nutri Essence; Tourcia Nutri Eye; Tourcia Nutri Toner; TriDerma Stubborn Diaper Rash Relief; Triderma Protect and Heal Non- Greasy Barrier; U-max Multi BB; U-max Whitening Functional Essence; ULRUE The True Rich Cream - Lifting Hydrogel Mask; ULRUE The True Rich Cream - Revitalizing Hydrogel Mask; ULTRUE The True Rich Cream - Lifting Hydrogel Mask; ULTRUE The True Rich Cream - Revitalizing Hydrogel Mask; Ultra Soothing Toner; Up and Up Advanced Scar; V10 Multi-lift Sleeping Pack; VITACILINA Bebe Diaper Rash; Vashti; Velvet On The Ground; Version X Scalp Tonic; Vesen Lab Nano Solution Repairing Soothing Toner; Vesen Lab Nano Solution Repairing and Soothing Treatment Essence; Vexa; Vionex Skin Protectant Cream; Vitabrid C12 ATOSIS; Vitabrid C12 DOCTOR Sensitive Face Powder; Vitabrid C12 FACE 4g; Vitabrid C12 FACE BRIGHTENING; Vitabrid C12 FACE Pow der 2g; Vitabrid C12 FACE Pow der 3g; Vitabrid C12 Face Brightening; Vitabrid C12 Face Sensitive; Vitabrid C12 HAIR POW DER PROFESSIONAL; Vitabrid C12 Hair; Vitabrid C12 Hair Powder Professional; Vitabrid C12 Hair Powder Scalp Relief; Vitabrid C12 Spot; Vitabrid C12 Spot Acne Ampoule; Vitabrid C12 Spot Essence; Vitabrid C12 Spot Sensitive Solution; Vitacilina; Vital Fluid I Platinum Anti Wrinkle Serum; Vital Fluid II EGF and FGF Whitening Serum; Vital Fluid IV Nano Gold Serum; Vitalizer Fluid; Vitamin C Liquid; W-Care; W15883-CS; Whitening Foaming; Whitening Foaming-Toothpaste; Whitening Repairing BB; Whitening Repairing Cover Cushion; YES to coconut; Yellow; ZAREE All Kii Coconut Water; Zims Advanced Acemannan and Arnica; Zzip Cold Sore Treatment; bdr Re-fresh gel mask face; bdr Re-lax 3 multiple level serum highly-potential youth; fast Results Genital Herpes Treatment; shing-Releev

$$$$
