REMARK  Name = 49806720
REMARK  4 active torsions:
REMARK  status: ('A' for Active; 'I' for Inactive)
REMARK    1  A    between atoms: C_4  and  N_22
REMARK    2  A    between atoms: C_9  and  C_37
REMARK    3  A    between atoms: C_20  and  C_36
REMARK    4  A    between atoms: C_23  and  N_29
REMARK                            x       y       z     vdW  Elec       q    Type
REMARK                         _______ _______ _______ _____ _____    ______ ____
ROOT
ATOM      1  O   UNL     1      -3.069   2.610  -0.116  0.00  0.00    -0.287 OA
ATOM      2  N   UNL     1      -4.401  -1.749   0.035  0.00  0.00    -0.356 N 
ATOM      3  C   UNL     1      -1.863  -1.478   0.015  0.00  0.00    +0.052 C 
ATOM      4  C   UNL     1       1.453   0.481  -0.061  0.00  0.00    +0.043 C 
ATOM      5  C   UNL     1      -0.867  -0.300  -0.027  0.00  0.00    -0.013 C 
ATOM      6  C   UNL     1      -3.279  -0.963   0.004  0.00  0.00    +0.040 A 
ATOM      7  C   UNL     1       0.519  -0.557  -0.024  0.00  0.00    +0.010 C 
ATOM      8  C   UNL     1      -1.285   1.052  -0.070  0.00  0.00    +0.035 C 
ATOM      9  C   UNL     1       1.024   1.802  -0.102  0.00  0.00    -0.009 C 
ATOM     10  C   UNL     1      -3.684   0.352  -0.037  0.00  0.00    +0.052 A 
ATOM     11  C   UNL     1      -1.640  -2.299   1.305  0.00  0.00    +0.010 C 
ATOM     12  C   UNL     1      -1.651  -2.381  -1.221  0.00  0.00    +0.010 C 
ATOM     13  C   UNL     1      -0.339   2.089  -0.107  0.00  0.00    -0.000 C 
ATOM     14  C   UNL     1      -2.728   1.434  -0.078  0.00  0.00    +0.196 C 
ATOM     15  C   UNL     1      -5.111   0.367  -0.030  0.00  0.00    +0.020 A 
ATOM     16  C   UNL     1      -5.531  -0.964   0.015  0.00  0.00    +0.057 A 
ATOM     17  C   UNL     1      -6.092   1.381  -0.058  0.00  0.00    +0.002 C 
ATOM     18  C   UNL     1      -6.881  -1.333   0.035  0.00  0.00    +0.027 C 
ATOM     19  C   UNL     1      -7.446   1.027  -0.039  0.00  0.00    +0.010 C 
ATOM     20  C   UNL     1      -7.833  -0.310   0.007  0.00  0.00    +0.070 C 
ATOM     21  H   UNL     1      -4.399  -2.733   0.067  0.00  0.00    +0.166 HD
ENDROOT
BRANCH   4  22
ATOM     22  N   UNL     1       2.818   0.171  -0.055  0.00  0.00    -0.308 N 
ATOM     23  C   UNL     1       5.604  -0.591  -0.128  0.00  0.00    -0.054 C 
ATOM     24  C   UNL     1       4.976   0.245  -1.245  0.00  0.00    +0.001 C 
ATOM     25  C   UNL     1       4.887  -0.311   1.194  0.00  0.00    +0.001 C 
ATOM     26  C   UNL     1       3.384  -0.571   1.077  0.00  0.00    +0.089 C 
ATOM     27  C   UNL     1       3.474  -0.022  -1.356  0.00  0.00    +0.089 C 
BRANCH  23  29
ATOM     28  O   UNL     1       9.782  -0.983  -0.024  0.00  0.00    -0.358 OA
ATOM     29  N   UNL     1       7.025  -0.273  -0.004  0.00  0.00    +0.392 N 
ATOM     30  C   UNL     1       7.736  -0.560  -1.258  0.00  0.00    -0.045 C 
ATOM     31  C   UNL     1       7.634  -1.025   1.102  0.00  0.00    -0.045 C 
ATOM     32  C   UNL     1       9.218  -0.232  -1.101  0.00  0.00    +0.119 C 
ATOM     33  C   UNL     1       9.118  -0.685   1.204  0.00  0.00    +0.119 C 
ATOM     34  H   UNL     1       7.106   0.724   0.196  0.00  0.00    -0.079 HD
ENDBRANCH  23  29
ENDBRANCH   4  22
BRANCH  20  36
ATOM     35  N   UNL     1     -10.351  -0.915   0.040  0.00  0.00    -0.191 NA
ATOM     36  C   UNL     1      -9.223  -0.644   0.025  0.00  0.00    +0.100 C 
ENDBRANCH  20  36
BRANCH   9  37
ATOM     37  C   UNL     1       2.000   2.932  -0.141  0.00  0.00    +0.028 C 
ATOM     38  C   UNL     1       2.623   3.204   1.224  0.00  0.00    +0.005 C 
ENDBRANCH   9  37
TORSDOF 4
