REMARK  Name = 11442891
REMARK  5 active torsions:
REMARK  status: ('A' for Active; 'I' for Inactive)
REMARK    1  A    between atoms: C_12  and  C_30
REMARK    2  A    between atoms: C_13  and  C_19
REMARK    3  A    between atoms: C_16  and  N_22
REMARK    4  A    between atoms: C_30  and  C_31
REMARK    5  A    between atoms: C_30  and  O_37
REMARK                            x       y       z     vdW  Elec       q    Type
REMARK                         _______ _______ _______ _____ _____    ______ ____
ROOT
ATOM      1  O   UNL     1       4.142   1.732   0.554  0.00  0.00    -0.271 OA
ATOM      2  O   UNL     1      -2.294  -3.597  -0.523  0.00  0.00    -0.270 OA
ATOM      3  N   UNL     1       3.532  -0.467   0.177  0.00  0.00    -0.231 N 
ATOM      4  N   UNL     1       1.951  -3.645  -0.395  0.00  0.00    -0.273 N 
ATOM      5  N   UNL     1       0.598  -3.556  -0.445  0.00  0.00    -0.157 NA
ATOM      6  N   UNL     1      -0.920  -1.711  -0.226  0.00  0.00    -0.264 N 
ATOM      7  C   UNL     1       2.060  -0.180   0.153  0.00  0.00    +0.077 C 
ATOM      8  C   UNL     1       1.527  -1.522  -0.083  0.00  0.00    +0.067 A 
ATOM      9  C   UNL     1       3.874  -1.914  -0.034  0.00  0.00    +0.091 C 
ATOM     10  C   UNL     1       2.522  -2.444  -0.181  0.00  0.00    +0.093 A 
ATOM     11  C   UNL     1       0.351  -2.247  -0.251  0.00  0.00    +0.157 A 
ATOM     12  C   UNL     1       4.450   0.552   0.382  0.00  0.00    +0.265 C 
ATOM     13  C   UNL     1      -2.137  -2.392  -0.359  0.00  0.00    +0.251 C 
ATOM     14  H   UNL     1       2.454  -4.484  -0.503  0.00  0.00    +0.189 HD
ATOM     15  H   UNL     1      -0.979  -0.736  -0.101  0.00  0.00    +0.157 HD
ENDROOT
BRANCH  13  19
ATOM     16  C   UNL     1      -5.638   0.048  -0.077  0.00  0.00    +0.048 C 
ATOM     17  C   UNL     1      -4.436   0.601  -0.519  0.00  0.00    +0.015 C 
ATOM     18  C   UNL     1      -5.698  -1.301   0.273  0.00  0.00    +0.015 C 
ATOM     19  C   UNL     1      -3.354  -1.544  -0.261  0.00  0.00    +0.054 C 
ATOM     20  C   UNL     1      -3.294  -0.195  -0.611  0.00  0.00    +0.006 C 
ATOM     21  C   UNL     1      -4.556  -2.097   0.181  0.00  0.00    +0.006 C 
BRANCH  16  22
ATOM     22  N   UNL     1      -6.783   0.846   0.017  0.00  0.00    -0.312 N 
ATOM     23  N   UNL     1      -8.982   2.637   0.358  0.00  0.00    +0.388 N 
ATOM     24  C   UNL     1      -6.955   1.980  -0.897  0.00  0.00    +0.068 C 
ATOM     25  C   UNL     1      -7.420   0.988   1.332  0.00  0.00    +0.068 C 
ATOM     26  C   UNL     1      -8.429   2.385  -0.979  0.00  0.00    -0.056 C 
ATOM     27  C   UNL     1      -8.879   1.423   1.177  0.00  0.00    -0.056 C 
ATOM     28  C   UNL     1     -10.374   3.075   0.263  0.00  0.00    -0.101 C 
ATOM     29  H   UNL     1      -8.445   3.381   0.802  0.00  0.00    -0.080 HD
ENDBRANCH  16  22
ENDBRANCH  13  19
BRANCH  12  30
ATOM     30  C   UNL     1       5.898   0.130   0.384  0.00  0.00    +0.214 C 
BRANCH  30  31
ATOM     31  C   UNL     1       6.787   1.256  -0.061  0.00  0.00    +0.013 C 
ATOM     32  C   UNL     1       7.095   1.409  -1.413  0.00  0.00    -0.001 C 
ATOM     33  C   UNL     1       7.305   2.149   0.877  0.00  0.00    -0.001 C 
ATOM     34  C   UNL     1       7.920   2.454  -1.827  0.00  0.00    -0.000 C 
ATOM     35  C   UNL     1       8.131   3.194   0.464  0.00  0.00    -0.000 C 
ATOM     36  C   UNL     1       8.439   3.347  -0.888  0.00  0.00    -0.000 C 
ENDBRANCH  30  31
BRANCH  30  37
ATOM     37  O   UNL     1       6.215  -0.271   1.703  0.00  0.00    -0.340 OA
ATOM     38  C   UNL     1       7.355  -1.124   1.736  0.00  0.00    +0.175 C 
ENDBRANCH  30  37
ENDBRANCH  12  30
TORSDOF 5
