REMARK  Name = 6212
REMARK  0 active torsions:
REMARK  status: ('A' for Active; 'I' for Inactive)
REMARK                            x       y       z     vdW  Elec       q    Type
REMARK                         _______ _______ _______ _____ _____    ______ ____
ROOT
ATOM      1 CL   UNL     1      -0.096  -1.679   0.139  0.00  0.00    -0.079 Cl
ATOM      2 CL   UNL     1      -1.406   0.923   0.139  0.00  0.00    -0.079 Cl
ATOM      3 CL   UNL     1       1.502   0.756   0.139  0.00  0.00    -0.079 Cl
ATOM      4  C   UNL     1       0.000   0.000  -0.418  0.00  0.00    +0.236 C 
ENDROOT
TORSDOF 0
