REMARK  Name = 65957
REMARK  4 active torsions:
REMARK  status: ('A' for Active; 'I' for Inactive)
REMARK    1  A    between atoms: C_5  and  C_17
REMARK    2  A    between atoms: C_16  and  C_25
REMARK    3  A    between atoms: C_17  and  N_20
REMARK    4  A    between atoms: C_25  and  O_26
REMARK                            x       y       z     vdW  Elec       q    Type
REMARK                         _______ _______ _______ _____ _____    ______ ____
ROOT
ATOM      1  F   UNL     1      -2.589   2.794   0.241  0.00  0.00    -0.204 F 
ATOM      2  O   UNL     1      -1.744  -1.847  -0.124  0.00  0.00    -0.473 OA
ATOM      3  O   UNL     1       2.447   2.473   0.007  0.00  0.00    -0.286 OA
ATOM      4  N   UNL     1       1.088  -1.363  -0.115  0.00  0.00    -0.281 N 
ATOM      5  C   UNL     1      -2.157   0.467   0.070  0.00  0.00    +0.022 C 
ATOM      6  C   UNL     1      -1.234  -0.574  -0.045  0.00  0.00    +0.148 C 
ATOM      7  C   UNL     1       0.146  -0.317  -0.055  0.00  0.00    +0.089 C 
ATOM      8  C   UNL     1      -1.712   1.786   0.140  0.00  0.00    +0.137 C 
ATOM      9  C   UNL     1       0.548  -2.724  -0.049  0.00  0.00    +0.121 C 
ATOM     10  C   UNL     1       0.576   1.022   0.004  0.00  0.00    +0.058 C 
ATOM     11  C   UNL     1      -0.821  -2.757  -0.730  0.00  0.00    +0.225 C 
ATOM     12  C   UNL     1      -0.347   2.069   0.100  0.00  0.00    +0.034 C 
ATOM     13  C   UNL     1       2.437  -1.068  -0.134  0.00  0.00    +0.075 C 
ATOM     14  C   UNL     1       2.032   1.321  -0.028  0.00  0.00    +0.204 C 
ATOM     15  C   UNL     1       0.478  -3.191   1.407  0.00  0.00    +0.026 C 
ATOM     16  C   UNL     1       2.963   0.163  -0.102  0.00  0.00    +0.129 C 
ENDROOT
BRANCH   5  17
ATOM     17  C   UNL     1      -3.624   0.191   0.110  0.00  0.00    -0.024 C 
ATOM     18  C   UNL     1      -4.244  -0.500  -1.064  0.00  0.00    -0.018 C 
ATOM     19  C   UNL     1      -4.511   0.957  -0.822  0.00  0.00    -0.018 C 
BRANCH  17  20
ATOM     20  N   UNL     1      -4.115  -0.123   1.457  0.00  0.00    +0.385 N 
ATOM     21  H   UNL     1      -5.118  -0.301   1.420  0.00  0.00    -0.089 HD
ATOM     22  H   UNL     1      -3.931   0.665   2.078  0.00  0.00    -0.089 HD
ATOM     23  H   UNL     1      -3.635  -0.951   1.809  0.00  0.00    -0.089 HD
ENDBRANCH  17  20
ENDBRANCH   5  17
BRANCH  16  25
ATOM     24  O   UNL     1       5.176  -0.486  -0.678  0.00  0.00    -0.245 OA
ATOM     25  C   UNL     1       4.420   0.297  -0.130  0.00  0.00    +0.342 C 
BRANCH  25  26
ATOM     26  O   UNL     1       4.787   1.411   0.538  0.00  0.00    -0.477 OA
ATOM     27  H   UNL     1       4.135   1.958   0.931  0.00  0.00    +0.295 HD
ENDBRANCH  25  26
ENDBRANCH  16  25
TORSDOF 4
