REMARK  Name = 56944144
REMARK  5 active torsions:
REMARK  status: ('A' for Active; 'I' for Inactive)
REMARK    1  A    between atoms: C_1  and  C_16
REMARK    2  A    between atoms: C_1  and  C_22
REMARK    3  A    between atoms: C_2  and  C_8
REMARK    4  A    between atoms: C_22  and  O_23
REMARK    5  A    between atoms: O_23  and  C_26
REMARK                            x       y       z     vdW  Elec       q    Type
REMARK                         _______ _______ _______ _____ _____    ______ ____
ROOT
ATOM      1  C   UNL     1       1.903   0.974  -1.176  0.00  0.00    +0.068 C 
ATOM      2  C   UNL     1       1.085   2.225  -1.041  0.00  0.00    +0.084 C 
ATOM      3  C   UNL     1       1.900   1.991  -2.280  0.00  0.00    +0.018 C 
ENDROOT
BRANCH   2   8
ATOM      4  F   UNL     1      -6.391   1.526   1.010  0.00  0.00    -0.203 F 
ATOM      5  O   UNL     1      -0.898   2.372  -2.236  0.00  0.00    -0.275 OA
ATOM      6  N   UNL     1      -1.006   1.926   0.069  0.00  0.00    -0.269 N 
ATOM      7  N   UNL     1      -2.809   1.563   1.578  0.00  0.00    -0.227 NA
ATOM      8  C   UNL     1      -0.385   2.183  -1.141  0.00  0.00    +0.227 C 
ATOM      9  C   UNL     1      -2.396   1.821   0.317  0.00  0.00    +0.134 C 
ATOM     10  C   UNL     1      -3.251   1.992  -0.760  0.00  0.00    +0.037 C 
ATOM     11  C   UNL     1      -4.618   1.890  -0.527  0.00  0.00    +0.034 C 
ATOM     12  C   UNL     1      -4.145   1.471   1.765  0.00  0.00    +0.130 C 
ATOM     13  C   UNL     1      -5.082   1.625   0.756  0.00  0.00    +0.159 C 
ATOM     14  H   UNL     1      -0.414   1.802   0.846  0.00  0.00    +0.156 HD
ENDBRANCH   2   8
BRANCH   1  16
ATOM     15  F   UNL     1       4.270   1.057   3.076  0.00  0.00    -0.204 F 
ATOM     16  C   UNL     1       3.146   0.793  -0.374  0.00  0.00    -0.017 C 
ATOM     17  C   UNL     1       3.126   1.013   1.003  0.00  0.00    +0.025 C 
ATOM     18  C   UNL     1       4.330   0.404  -1.001  0.00  0.00    -0.004 C 
ATOM     19  C   UNL     1       4.289   0.844   1.754  0.00  0.00    +0.140 C 
ATOM     20  C   UNL     1       5.494   0.235  -0.250  0.00  0.00    +0.002 C 
ATOM     21  C   UNL     1       5.473   0.455   1.127  0.00  0.00    +0.030 C 
ENDBRANCH   1  16
BRANCH   1  22
ATOM     22  C   UNL     1       1.155  -0.294  -1.426  0.00  0.00    +0.210 C 
BRANCH  22  23
ATOM     23  O   UNL     1       0.783  -0.874  -0.185  0.00  0.00    -0.471 OA
BRANCH  23  26
ATOM     24  N   UNL     1      -1.049  -3.872   0.859  0.00  0.00    -0.356 NA
ATOM     25  N   UNL     1      -0.953  -3.786  -1.548  0.00  0.00    -0.183 NA
ATOM     26  C   UNL     1       0.075  -2.048  -0.237  0.00  0.00    +0.184 C 
ATOM     27  C   UNL     1      -0.351  -2.718   0.891  0.00  0.00    +0.156 C 
ATOM     28  C   UNL     1      -0.257  -2.634  -1.441  0.00  0.00    +0.149 C 
ATOM     29  C   UNL     1      -0.047  -2.173   2.247  0.00  0.00    +0.071 C 
ATOM     30  C   UNL     1      -1.311  -4.343  -0.375  0.00  0.00    +0.064 C 
ATOM     31  C   UNL     1      -2.080  -5.618  -0.453  0.00  0.00    +0.129 C 
ENDBRANCH  23  26
ENDBRANCH  22  23
ENDBRANCH   1  22
TORSDOF 5
