REMARK  Name = 52918384
REMARK  7 active torsions:
REMARK  status: ('A' for Active; 'I' for Inactive)
REMARK    1  A    between atoms: N_1  and  N_23
REMARK    2  A    between atoms: C_24  and  C_26
REMARK    3  A    between atoms: C_26  and  C_27
REMARK    4  A    between atoms: C_26  and  C_33
REMARK    5  A    between atoms: C_27  and  C_28
REMARK    6  A    between atoms: C_33  and  N_35
REMARK    7  A    between atoms: N_35  and  O_37
REMARK                            x       y       z     vdW  Elec       q    Type
REMARK                         _______ _______ _______ _____ _____    ______ ____
ROOT
ATOM      1  N   UNL     1       1.022  -1.167  -1.009  0.00  0.00    -0.238 N 
ATOM      2  H   UNL     1       0.686  -2.088  -1.096  0.00  0.00    +0.172 HD
ATOM      3  F   UNL     1      -1.658  -1.592  -0.561  0.00  0.00    -0.219 F 
ATOM      4  O   UNL     1      -7.035  -1.882   1.751  0.00  0.00    -0.358 OA
ATOM      5  N   UNL     1      -6.194   0.251   0.062  0.00  0.00    +0.394 N 
ATOM      6  N   UNL     1      -3.409   0.517  -0.504  0.00  0.00    -0.288 N 
ATOM      7  N   UNL     1      -1.630   2.018  -0.920  0.00  0.00    -0.330 NA
ATOM      8  N   UNL     1       0.612   1.171  -1.176  0.00  0.00    -0.329 NA
ATOM      9  C   UNL     1      -5.235  -0.749   0.568  0.00  0.00    -0.008 C 
ATOM     10  C   UNL     1      -3.840  -0.128   0.741  0.00  0.00    +0.075 C 
ATOM     11  C   UNL     1      -5.747   0.776  -1.232  0.00  0.00    -0.055 C 
ATOM     12  C   UNL     1      -4.375   1.443  -1.107  0.00  0.00    +0.070 C 
ATOM     13  C   UNL     1      -5.736  -1.308   1.905  0.00  0.00    +0.123 C 
ATOM     14  C   UNL     1      -7.534  -0.343  -0.053  0.00  0.00    -0.044 C 
ATOM     15  C   UNL     1      -7.970  -0.904   1.296  0.00  0.00    +0.119 C 
ATOM     16  C   UNL     1      -2.048   0.750  -0.731  0.00  0.00    +0.213 C 
ATOM     17  C   UNL     1      -1.209  -0.345  -0.751  0.00  0.00    +0.295 C 
ATOM     18  C   UNL     1       0.124  -0.072  -0.980  0.00  0.00    +0.226 C 
ATOM     19  C   UNL     1      -0.307   2.155  -1.134  0.00  0.00    +0.117 C 
ATOM     20  C   UNL     1       0.193   3.543  -1.345  0.00  0.00    +0.143 C 
ATOM     21  H   UNL     1      -6.242   1.025   0.724  0.00  0.00    -0.079 HD
ENDROOT
BRANCH   1  23
ATOM     22  O   UNL     1       2.316  -1.075   1.399  0.00  0.00    -0.274 OA
ATOM     23  N   UNL     1       2.353  -0.923  -0.915  0.00  0.00    -0.234 N 
ATOM     24  C   UNL     1       2.923  -0.895   0.345  0.00  0.00    +0.239 C 
ATOM     25  H   UNL     1       2.898  -0.770  -1.721  0.00  0.00    +0.173 HD
BRANCH  24  26
ATOM     26  C   UNL     1       4.430  -0.630   0.290  0.00  0.00    +0.100 C 
BRANCH  26  27
ATOM     27  C   UNL     1       4.759   0.740  -0.329  0.00  0.00    +0.011 C 
BRANCH  27  28
ATOM     28  C   UNL     1       4.105   1.886   0.423  0.00  0.00    +0.001 C 
ATOM     29  C   UNL     1       4.598   2.021   1.861  0.00  0.00    +0.000 C 
ATOM     30  C   UNL     1       4.434   3.256  -0.163  0.00  0.00    +0.000 C 
ATOM     31  C   UNL     1       4.079   4.229   0.956  0.00  0.00    +0.000 C 
ATOM     32  C   UNL     1       4.196   3.438   2.260  0.00  0.00    +0.000 C 
ENDBRANCH  27  28
ENDBRANCH  26  27
BRANCH  26  33
ATOM     33  C   UNL     1       5.133  -1.769  -0.464  0.00  0.00    +0.133 C 
BRANCH  33  35
ATOM     34  O   UNL     1       3.906  -4.116  -1.622  0.00  0.00    -0.263 OA
ATOM     35  N   UNL     1       4.950  -3.055   0.154  0.00  0.00    -0.164 N 
ATOM     36  C   UNL     1       4.355  -4.107  -0.481  0.00  0.00    +0.327 C 
BRANCH  35  37
ATOM     37  O   UNL     1       5.438  -3.133   1.467  0.00  0.00    -0.291 OA
ATOM     38  H   UNL     1       5.820  -2.278   1.721  0.00  0.00    +0.242 HD
ENDBRANCH  35  37
ENDBRANCH  33  35
ENDBRANCH  26  33
ENDBRANCH  24  26
ENDBRANCH   1  23
TORSDOF 7
