REMARK  Name = 3071
REMARK  2 active torsions:
REMARK  status: ('A' for Active; 'I' for Inactive)
REMARK    1  A    between atoms: C_1  and  C_3
REMARK    2  A    between atoms: C_1  and  C_13
REMARK                            x       y       z     vdW  Elec       q    Type
REMARK                         _______ _______ _______ _____ _____    ______ ____
ROOT
ATOM      1  C   UNL     1      -0.002   0.001  -1.589  0.00  0.00    +0.055 C 
ENDROOT
BRANCH   1   3
ATOM      2  N   UNL     1      -2.263   2.110   0.352  0.00  0.00    -0.312 N 
ATOM      3  C   UNL     1      -1.078   0.621  -0.789  0.00  0.00    -0.002 C 
ATOM      4  C   UNL     1      -2.266  -0.014  -0.330  0.00  0.00    +0.011 C 
ATOM      5  C   UNL     1      -2.992   0.942   0.384  0.00  0.00    +0.048 C 
ATOM      6  C   UNL     1      -1.105   1.926  -0.354  0.00  0.00    +0.058 C 
ATOM      7  C   UNL     1      -2.794  -1.314  -0.452  0.00  0.00    +0.001 C 
ATOM      8  C   UNL     1      -4.225   0.662   0.983  0.00  0.00    +0.015 C 
ATOM      9  C   UNL     1      -4.027  -1.609   0.142  0.00  0.00    +0.000 C 
ATOM     10  C   UNL     1      -4.729  -0.634   0.848  0.00  0.00    +0.001 C 
ATOM     11  H   UNL     1      -2.536   2.956   0.777  0.00  0.00    +0.152 HD
ENDBRANCH   1   3
BRANCH   1  13
ATOM     12  N   UNL     1       2.260  -2.108   0.352  0.00  0.00    -0.312 N 
ATOM     13  C   UNL     1       1.107  -0.637  -0.765  0.00  0.00    -0.002 C 
ATOM     14  C   UNL     1       2.262   0.016  -0.330  0.00  0.00    +0.011 C 
ATOM     15  C   UNL     1       2.988  -0.941   0.384  0.00  0.00    +0.048 C 
ATOM     16  C   UNL     1       1.102  -1.924  -0.354  0.00  0.00    +0.058 C 
ATOM     17  C   UNL     1       2.791   1.316  -0.452  0.00  0.00    +0.001 C 
ATOM     18  C   UNL     1       4.222  -0.660   0.983  0.00  0.00    +0.015 C 
ATOM     19  C   UNL     1       4.024   1.611   0.142  0.00  0.00    +0.000 C 
ATOM     20  C   UNL     1       4.726   0.636   0.848  0.00  0.00    +0.001 C 
ATOM     21  H   UNL     1       2.533  -2.954   0.776  0.00  0.00    +0.152 HD
ENDBRANCH   1  13
TORSDOF 2
