REMARK  Name = 3845
REMARK  2 active torsions:
REMARK  status: ('A' for Active; 'I' for Inactive)
REMARK    1  A    between atoms: CA_5  and  C_14
REMARK    2  A    between atoms: C_14  and  O_15
REMARK                            x       y       z     vdW  Elec       q    Type
REMARK                         _______ _______ _______ _____ _____    ______ ____
ROOT
ATOM      1  O   UNL     1       0.507   2.831   0.002  0.00  0.00    -0.286 OA
ATOM      2  N   UNL     1      -0.629  -1.056   0.001  0.00  0.00    -0.307 N 
ATOM      3  C   UNL     1       0.744  -0.778   0.000  0.00  0.00    +0.052 C 
ATOM      4  C   UNL     1       1.188   0.557   0.000  0.00  0.00    +0.052 C 
ATOM      5  CA  UNL     1      -1.554  -0.046   0.000  0.00  0.00    +0.128 C 
ATOM      6  C   UNL     1       0.179   1.651   0.000  0.00  0.00    +0.198 C 
ATOM      7  C   UNL     1       1.690  -1.808   0.000  0.00  0.00    +0.015 C 
ATOM      8  C   UNL     1      -1.259   1.260   0.000  0.00  0.00    +0.063 C 
ATOM      9  C   UNL     1       2.553   0.857  -0.001  0.00  0.00    +0.004 C 
ATOM     10  C   UNL     1       3.054  -1.509   0.000  0.00  0.00    +0.001 C 
ATOM     11  C   UNL     1       3.483  -0.181  -0.001  0.00  0.00    +0.000 C 
ATOM     12  H   UNL     1      -0.933  -1.992   0.003  0.00  0.00    +0.152 HD
ENDROOT
BRANCH   5  14
ATOM     13  OXT UNL     1      -3.891   0.388  -0.002  0.00  0.00    -0.244 OA
ATOM     14  C   UNL     1      -2.973  -0.411   0.000  0.00  0.00    +0.352 C 
BRANCH  14  15
ATOM     15  O   UNL     1      -3.094  -1.755   0.001  0.00  0.00    -0.476 OA
ATOM     16  H   UNL     1      -2.328  -2.295   0.002  0.00  0.00    +0.295 HD
ENDBRANCH  14  15
ENDBRANCH   5  14
TORSDOF 2
