REMARK  Name = 5707
REMARK  1 active torsions:
REMARK  status: ('A' for Active; 'I' for Inactive)
REMARK    1  A    between atoms: N_2  and  C_9
REMARK                            x       y       z     vdW  Elec       q    Type
REMARK                         _______ _______ _______ _____ _____    ______ ____
ROOT
ATOM      1  S   UNL     1       2.742   0.248  -1.476  0.00  0.00    -0.080 S 
ATOM      2  N   UNL     1       0.175   0.128  -1.030  0.00  0.00    -0.294 N 
ATOM      3  N   UNL     1       1.450   0.049   0.914  0.00  0.00    -0.251 NA
ATOM      4  C   UNL     1       3.846  -0.586   0.886  0.00  0.00    +0.038 C 
ATOM      5  C   UNL     1       4.160   0.206  -0.365  0.00  0.00    +0.067 C 
ATOM      6  C   UNL     1       2.707   0.066   1.646  0.00  0.00    +0.128 C 
ATOM      7  C   UNL     1       1.376   0.132  -0.370  0.00  0.00    +0.155 C 
ATOM      8  H   UNL     1       0.212   0.195  -2.011  0.00  0.00    +0.154 HD
ENDROOT
BRANCH   2   9
ATOM      9  C   UNL     1      -1.094   0.038  -0.458  0.00  0.00    +0.042 C 
ATOM     10  C   UNL     1      -1.697  -1.213  -0.244  0.00  0.00    -0.009 C 
ATOM     11  C   UNL     1      -1.796   1.196  -0.086  0.00  0.00    -0.009 C 
ATOM     12  C   UNL     1      -2.967  -1.303   0.326  0.00  0.00    -0.003 C 
ATOM     13  C   UNL     1      -3.066   1.106   0.485  0.00  0.00    -0.003 C 
ATOM     14  C   UNL     1      -0.989  -2.472  -0.625  0.00  0.00    +0.032 C 
ATOM     15  C   UNL     1      -1.195   2.548  -0.294  0.00  0.00    +0.032 C 
ATOM     16  C   UNL     1      -3.651  -0.143   0.691  0.00  0.00    -0.001 C 
ENDBRANCH   2   9
TORSDOF 1
