REMARK  Name = 10090485
REMARK  3 active torsions:
REMARK  status: ('A' for Active; 'I' for Inactive)
REMARK    1  A    between atoms: C_7  and  C_10
REMARK    2  A    between atoms: C_8  and  C_25
REMARK    3  A    between atoms: C_16  and  C_21
REMARK                            x       y       z     vdW  Elec       q    Type
REMARK                         _______ _______ _______ _____ _____    ______ ____
ROOT
ATOM      1  N   UNL     1       2.345   2.290  -0.517  0.00  0.00    -0.255 N 
ATOM      2  N   UNL     1       2.833   1.113  -0.891  0.00  0.00    -0.167 NA
ATOM      3  C   UNL     1       1.277   2.254   0.316  0.00  0.00    +0.057 A 
ATOM      4  C   UNL     1       0.836   3.616   0.661  0.00  0.00    +0.048 C 
ATOM      5  C   UNL     1       1.593   4.471  -0.395  0.00  0.00    +0.033 C 
ATOM      6  C   UNL     1       2.789   3.621  -0.870  0.00  0.00    +0.127 C 
ATOM      7  C   UNL     1       1.012   0.931   0.526  0.00  0.00    +0.035 A 
ATOM      8  C   UNL     1       2.009   0.268  -0.247  0.00  0.00    +0.131 A 
ENDROOT
BRANCH   7  10
ATOM      9  N   UNL     1      -2.024  -0.515   3.070  0.00  0.00    -0.248 NA
ATOM     10  C   UNL     1      -0.048   0.438   1.358  0.00  0.00    +0.002 C 
ATOM     11  C   UNL     1      -1.333   0.173   0.866  0.00  0.00    -0.004 C 
ATOM     12  C   UNL     1       0.243   0.227   2.697  0.00  0.00    +0.020 C 
ATOM     13  C   UNL     1      -2.304  -0.309   1.769  0.00  0.00    +0.060 C 
ATOM     14  C   UNL     1      -1.660   0.376  -0.486  0.00  0.00    +0.058 C 
ATOM     15  C   UNL     1      -0.771  -0.246   3.504  0.00  0.00    +0.098 C 
ATOM     16  C   UNL     1      -2.945   0.104  -0.948  0.00  0.00    +0.031 C 
ATOM     17  C   UNL     1      -3.580  -0.573   1.280  0.00  0.00    +0.071 C 
ATOM     18  C   UNL     1      -3.906  -0.371  -0.064  0.00  0.00    -0.019 C 
BRANCH  16  21
ATOM     19  O   UNL     1      -2.435   0.723  -3.162  0.00  0.00    -0.271 OA
ATOM     20  N   UNL     1      -4.580   0.025  -2.752  0.00  0.00    -0.326 N 
ATOM     21  C   UNL     1      -3.280   0.315  -2.347  0.00  0.00    +0.239 C 
ATOM     22  H   UNL     1      -4.844   0.156  -3.692  0.00  0.00    +0.145 HD
ATOM     23  H   UNL     1      -5.236  -0.310  -2.099  0.00  0.00    +0.145 HD
ENDBRANCH  16  21
ENDBRANCH   7  10
BRANCH   8  25
ATOM     24  N   UNL     1       1.067  -1.897  -0.283  0.00  0.00    -0.409 NA
ATOM     25  C   UNL     1       2.190  -1.157  -0.383  0.00  0.00    +0.150 C 
ATOM     26  C   UNL     1       3.453  -1.674  -0.605  0.00  0.00    +0.029 C 
ATOM     27  C   UNL     1       1.222  -3.233  -0.415  0.00  0.00    +0.091 C 
ATOM     28  C   UNL     1       3.571  -3.053  -0.736  0.00  0.00    -0.016 C 
ATOM     29  C   UNL     1       2.439  -3.855  -0.640  0.00  0.00    +0.080 C 
ATOM     30  C   UNL     1      -0.014  -4.064  -0.305  0.00  0.00    +0.062 C 
ENDBRANCH   8  25
TORSDOF 3
