REMARK  Name = 21651
REMARK  9 active torsions:
REMARK  status: ('A' for Active; 'I' for Inactive)
REMARK    1  A    between atoms: C_3  and  O_18
REMARK    2  A    between atoms: C_4  and  O_23
REMARK    3  A    between atoms: C_10  and  C_14
REMARK    4  A    between atoms: C_14  and  O_15
REMARK    5  A    between atoms: O_15  and  C_16
REMARK    6  A    between atoms: O_18  and  C_19
REMARK    7  A    between atoms: C_19  and  C_20
REMARK    8  A    between atoms: O_23  and  C_24
REMARK    9  A    between atoms: C_24  and  C_25
REMARK                            x       y       z     vdW  Elec       q    Type
REMARK                         _______ _______ _______ _____ _____    ______ ____
ROOT
ATOM      1  O   UNL     1       2.621  -1.408   0.235  0.00  0.00    -0.286 OA
ATOM      2  N   UNL     1       1.649   2.501  -0.205  0.00  0.00    -0.311 N 
ATOM      3  C   UNL     1      -1.402  -0.370  -0.541  0.00  0.00    +0.172 C 
ATOM      4  C   UNL     1      -1.703   0.985  -0.686  0.00  0.00    +0.173 C 
ATOM      5  C   UNL     1       0.916   0.186  -0.174  0.00  0.00    +0.056 C 
ATOM      6  C   UNL     1       0.624   1.555  -0.319  0.00  0.00    +0.055 C 
ATOM      7  C   UNL     1      -0.093  -0.775  -0.285  0.00  0.00    +0.044 C 
ATOM      8  C   UNL     1      -0.695   1.945  -0.575  0.00  0.00    +0.055 C 
ATOM      9  C   UNL     1       2.320  -0.228   0.100  0.00  0.00    +0.204 C 
ATOM     10  C   UNL     1       3.343   0.853   0.204  0.00  0.00    +0.129 C 
ATOM     11  C   UNL     1       2.938   2.120   0.046  0.00  0.00    +0.072 C 
ATOM     12  H   UNL     1       1.438   3.458  -0.306  0.00  0.00    +0.152 HD
ENDROOT
BRANCH  10  14
ATOM     13  O   UNL     1       5.489   1.387   1.058  0.00  0.00    -0.245 OA
ATOM     14  C   UNL     1       4.760   0.603   0.468  0.00  0.00    +0.346 C 
BRANCH  14  15
ATOM     15  O   UNL     1       5.093  -0.610  -0.045  0.00  0.00    -0.445 OA
BRANCH  15  16
ATOM     16  C   UNL     1       6.458  -1.000   0.136  0.00  0.00    +0.209 C 
ATOM     17  C   UNL     1       6.667  -2.365  -0.486  0.00  0.00    +0.051 C 
ENDBRANCH  15  16
ENDBRANCH  14  15
ENDBRANCH  10  14
BRANCH   3  18
ATOM     18  O   UNL     1      -2.383  -1.310  -0.649  0.00  0.00    -0.472 OA
BRANCH  18  19
ATOM     19  C   UNL     1      -2.611  -2.141   0.487  0.00  0.00    +0.205 C 
BRANCH  19  20
ATOM     20  C   UNL     1      -3.728  -3.143   0.185  0.00  0.00    +0.044 C 
ATOM     21  C   UNL     1      -3.358  -4.054  -0.988  0.00  0.00    +0.004 C 
ATOM     22  C   UNL     1      -4.046  -3.977   1.425  0.00  0.00    +0.004 C 
ENDBRANCH  19  20
ENDBRANCH  18  19
ENDBRANCH   3  18
BRANCH   4  23
ATOM     23  O   UNL     1      -2.981   1.385  -0.937  0.00  0.00    -0.472 OA
BRANCH  23  24
ATOM     24  C   UNL     1      -3.586   2.256   0.016  0.00  0.00    +0.205 C 
BRANCH  24  25
ATOM     25  C   UNL     1      -5.098   2.016   0.056  0.00  0.00    +0.044 C 
ATOM     26  C   UNL     1      -5.770   3.006   1.005  0.00  0.00    +0.004 C 
ATOM     27  C   UNL     1      -5.423   0.579   0.470  0.00  0.00    +0.004 C 
ENDBRANCH  24  25
ENDBRANCH  23  24
ENDBRANCH   4  23
TORSDOF 9
