REMARK  Name = 9795056
REMARK  2 active torsions:
REMARK  status: ('A' for Active; 'I' for Inactive)
REMARK    1  A    between atoms: C_5  and  C_13
REMARK    2  A    between atoms: C_5  and  O_19
REMARK                            x       y       z     vdW  Elec       q    Type
REMARK                         _______ _______ _______ _____ _____    ______ ____
ROOT
ATOM      1  O   UNL     1       0.888  -0.166  -1.310  0.00  0.00    -0.335 OA
ATOM      2  N   UNL     1       2.505   0.257   0.988  0.00  0.00    +0.393 N 
ATOM      3  C   UNL     1       2.987  -0.575  -0.127  0.00  0.00    -0.018 C 
ATOM      4  C   UNL     1       1.035   0.285   1.093  0.00  0.00    -0.005 C 
ATOM      5  C   UNL     1       0.378   0.681  -0.261  0.00  0.00    +0.186 C 
ATOM      6  C   UNL     1       2.309  -0.121  -1.426  0.00  0.00    +0.125 C 
ATOM      7  C   UNL     1       2.721  -2.067   0.144  0.00  0.00    -0.019 C 
ATOM      8  C   UNL     1       4.506  -0.365  -0.245  0.00  0.00    -0.019 C 
ATOM      9  C   UNL     1       0.682   1.234   2.245  0.00  0.00    -0.018 C 
ATOM     10  H   UNL     1       2.839   1.211   0.849  0.00  0.00    -0.084 HD
ATOM     11  H   UNL     1       2.864  -0.151   1.851  0.00  0.00    -0.084 HD
ENDROOT
BRANCH   5  13
ATOM     12 CL   UNL     1      -3.629  -2.623   0.384  0.00  0.00    -0.082 Cl
ATOM     13  C   UNL     1      -1.136   0.447  -0.206  0.00  0.00    +0.027 C 
ATOM     14  C   UNL     1      -1.633  -0.832   0.036  0.00  0.00    +0.012 C 
ATOM     15  C   UNL     1      -2.011   1.515  -0.397  0.00  0.00    +0.000 C 
ATOM     16  C   UNL     1      -3.011  -1.044   0.087  0.00  0.00    +0.058 C 
ATOM     17  C   UNL     1      -3.389   1.302  -0.346  0.00  0.00    +0.001 C 
ATOM     18  C   UNL     1      -3.889   0.023  -0.104  0.00  0.00    +0.011 C 
ENDBRANCH   5  13
BRANCH   5  19
ATOM     19  O   UNL     1       0.687   2.049  -0.556  0.00  0.00    -0.362 OA
ATOM     20  H   UNL     1       1.650   2.164  -0.584  0.00  0.00    +0.213 HD
ENDBRANCH   5  19
TORSDOF 2
