REMARK  Name = 50905713
REMARK  3 active torsions:
REMARK  status: ('A' for Active; 'I' for Inactive)
REMARK    1  A    between atoms: N_3  and  C_13
REMARK    2  A    between atoms: C_4  and  C_19
REMARK    3  A    between atoms: C_19  and  N_21
REMARK                            x       y       z     vdW  Elec       q    Type
REMARK                         _______ _______ _______ _____ _____    ______ ____
ROOT
ATOM      1 CL   UNL     1      -4.724  -0.532   2.293  0.00  0.00    -0.082 Cl
ATOM      2  O   UNL     1      -2.900   1.137   1.297  0.00  0.00    -0.269 OA
ATOM      3  N   UNL     1      -1.230   0.842  -0.340  0.00  0.00    -0.236 N 
ATOM      4  C   UNL     1      -0.652  -0.032  -1.280  0.00  0.00    +0.054 C 
ATOM      5  C   UNL     1      -1.121  -1.280  -1.456  0.00  0.00    +0.013 C 
ATOM      6  C   UNL     1      -2.245  -1.776  -0.678  0.00  0.00    +0.006 C 
ATOM      7  C   UNL     1      -2.828  -0.954   0.286  0.00  0.00    +0.065 C 
ATOM      8  C   UNL     1      -2.318   0.427   0.476  0.00  0.00    +0.257 C 
ATOM      9  C   UNL     1      -2.735  -3.074  -0.869  0.00  0.00    +0.000 C 
ATOM     10  C   UNL     1      -3.899  -1.425   1.057  0.00  0.00    +0.062 C 
ATOM     11  C   UNL     1      -3.802  -3.542  -0.102  0.00  0.00    +0.001 C 
ATOM     12  C   UNL     1      -4.382  -2.719   0.860  0.00  0.00    +0.012 C 
ENDROOT
BRANCH   3  13
ATOM     13  C   UNL     1      -0.777   2.199  -0.160  0.00  0.00    +0.058 C 
ATOM     14  C   UNL     1      -0.307   2.618   1.085  0.00  0.00    +0.015 C 
ATOM     15  C   UNL     1      -0.809   3.093  -1.230  0.00  0.00    +0.015 C 
ATOM     16  C   UNL     1       0.131   3.931   1.260  0.00  0.00    +0.001 C 
ATOM     17  C   UNL     1      -0.371   4.406  -1.055  0.00  0.00    +0.001 C 
ATOM     18  C   UNL     1       0.099   4.825   0.189  0.00  0.00    +0.000 C 
ENDBRANCH   3  13
BRANCH   4  19
ATOM     19  C   UNL     1       0.590   0.369  -2.037  0.00  0.00    +0.107 C 
ATOM     20  C   UNL     1       0.390   0.252  -3.537  0.00  0.00    +0.027 C 
BRANCH  19  21
ATOM     21  N   UNL     1       1.665  -0.492  -1.615  0.00  0.00    -0.317 N 
ATOM     22  N   UNL     1       3.961  -2.283  -0.651  0.00  0.00    -0.270 NA
ATOM     23  N   UNL     1       2.030   0.648   0.445  0.00  0.00    -0.232 NA
ATOM     24  N   UNL     1       5.023  -1.996   1.288  0.00  0.00    -0.307 N 
ATOM     25  N   UNL     1       3.753  -0.058   2.022  0.00  0.00    -0.232 NA
ATOM     26  C   UNL     1       2.349  -0.344  -0.416  0.00  0.00    +0.124 C 
ATOM     27  C   UNL     1       3.373  -1.200  -0.063  0.00  0.00    +0.164 C 
ATOM     28  C   UNL     1       4.049  -1.042   1.139  0.00  0.00    +0.125 C 
ATOM     29  C   UNL     1       4.944  -2.725   0.195  0.00  0.00    +0.163 C 
ATOM     30  C   UNL     1       2.742   0.729   1.595  0.00  0.00    +0.252 C 
ATOM     31  H   UNL     1       1.931  -1.229  -2.212  0.00  0.00    +0.148 HD
ATOM     32  H   UNL     1       3.723  -2.674  -1.523  0.00  0.00    +0.126 HD
ATOM     33  H   UNL     1       5.644  -2.110   2.043  0.00  0.00    +0.149 HD
ENDBRANCH  19  21
ENDBRANCH   4  19
TORSDOF 3
