REMARK  Name = 46196517
REMARK  2 active torsions:
REMARK  status: ('A' for Active; 'I' for Inactive)
REMARK    1  A    between atoms: N_2  and  C_17
REMARK    2  A    between atoms: C_3  and  C_7
REMARK                            x       y       z     vdW  Elec       q    Type
REMARK                         _______ _______ _______ _____ _____    ______ ____
ROOT
ATOM      1  O   UNL     1      -0.717   2.457  -0.204  0.00  0.00    -0.270 OA
ATOM      2  N   UNL     1      -1.329   0.225  -0.356  0.00  0.00    -0.304 N 
ATOM      3  C   UNL     1      -0.420   1.265  -0.226  0.00  0.00    +0.252 C 
ATOM      4  H   UNL     1      -0.992  -0.700  -0.363  0.00  0.00    +0.150 HD
ENDROOT
BRANCH   3   7
ATOM      5 CL   UNL     1       3.897  -3.075  -0.125  0.00  0.00    -0.082 Cl
ATOM      6  S   UNL     1       1.423  -0.781  -0.194  0.00  0.00    -0.082 S 
ATOM      7  C   UNL     1       1.009   0.872  -0.135  0.00  0.00    +0.083 C 
ATOM      8  C   UNL     1       2.116   1.676  -0.003  0.00  0.00    +0.012 C 
ATOM      9  C   UNL     1       3.343   0.933   0.055  0.00  0.00    +0.007 C 
ATOM     10  C   UNL     1       3.107  -0.442  -0.040  0.00  0.00    +0.040 C 
ATOM     11  C   UNL     1       4.681   1.375   0.187  0.00  0.00    +0.001 C 
ATOM     12  C   UNL     1       4.162  -1.374  -0.008  0.00  0.00    +0.064 C 
ATOM     13  C   UNL     1       5.731   0.453   0.220  0.00  0.00    +0.001 C 
ATOM     14  C   UNL     1       5.472  -0.907   0.123  0.00  0.00    +0.012 C 
ENDBRANCH   3   7
BRANCH   2  17
ATOM     15  N   UNL     1      -4.650  -1.162  -0.695  0.00  0.00    +0.388 N 
ATOM     16  C   UNL     1      -3.447   0.511   0.893  0.00  0.00    +0.012 C 
ATOM     17  C   UNL     1      -2.749   0.447  -0.481  0.00  0.00    +0.051 C 
ATOM     18  C   UNL     1      -3.493  -0.901   1.503  0.00  0.00    -0.021 C 
ATOM     19  C   UNL     1      -4.902   0.940   0.636  0.00  0.00    -0.021 C 
ATOM     20  C   UNL     1      -3.423  -0.641  -1.341  0.00  0.00    -0.057 C 
ATOM     21  C   UNL     1      -5.545  -0.030  -0.369  0.00  0.00    -0.077 C 
ATOM     22  C   UNL     1      -4.264  -1.840   0.561  0.00  0.00    -0.077 C 
ATOM     23  H   UNL     1      -5.128  -1.812  -1.320  0.00  0.00    -0.080 HD
ENDBRANCH   2  17
TORSDOF 2
