REMARK  Name = 688009
REMARK  5 active torsions:
REMARK  status: ('A' for Active; 'I' for Inactive)
REMARK    1  A    between atoms: C_1  and  C_2
REMARK    2  A    between atoms: C_1  and  O_10
REMARK    3  A    between atoms: C_1  and  C_12
REMARK    4  A    between atoms: C_7  and  O_8
REMARK    5  A    between atoms: C_12  and  N_14
REMARK                            x       y       z     vdW  Elec       q    Type
REMARK                         _______ _______ _______ _____ _____    ______ ____
ROOT
ATOM      1  C   UNL     1       1.240   0.219   0.539  0.00  0.00    +0.113 C 
ENDROOT
BRANCH   1   2
ATOM      2  C   UNL     1      -0.254   0.171   0.297  0.00  0.00    +0.002 C 
ATOM      3  C   UNL     1      -0.918   1.334  -0.051  0.00  0.00    +0.001 C 
ATOM      4  C   UNL     1      -0.920  -1.034   0.432  0.00  0.00    +0.001 C 
ATOM      5  C   UNL     1      -2.295   1.290  -0.272  0.00  0.00    +0.036 C 
ATOM      6  C   UNL     1      -2.297  -1.077   0.210  0.00  0.00    +0.036 C 
ATOM      7  C   UNL     1      -2.984   0.084  -0.141  0.00  0.00    +0.134 C 
BRANCH   7   8
ATOM      8  O   UNL     1      -4.327   0.042  -0.359  0.00  0.00    -0.506 OA
ATOM      9  H   UNL     1      -4.788   0.823  -0.595  0.00  0.00    +0.292 HD
ENDBRANCH   7   8
ENDBRANCH   1   2
BRANCH   1  10
ATOM     10  O   UNL     1       1.519  -0.717   1.584  0.00  0.00    -0.382 OA
ATOM     11  H   UNL     1       2.471  -0.718   1.771  0.00  0.00    +0.211 HD
ENDBRANCH   1  10
BRANCH   1  12
ATOM     12  C   UNL     1       2.082  -0.119  -0.713  0.00  0.00    -0.030 C 
ATOM     13  C   UNL     1       1.833  -1.540  -1.223  0.00  0.00    -0.021 C 
BRANCH  12  14
ATOM     14  N   UNL     1       3.510   0.004  -0.393  0.00  0.00    +0.385 N 
ATOM     15  C   UNL     1       3.811   1.341   0.089  0.00  0.00    -0.105 C 
ATOM     16  H   UNL     1       4.059  -0.181  -1.232  0.00  0.00    -0.084 HD
ATOM     17  H   UNL     1       3.744  -0.669   0.337  0.00  0.00    -0.084 HD
ENDBRANCH  12  14
ENDBRANCH   1  12
TORSDOF 5
