REMARK  Name = 24958200
REMARK  3 active torsions:
REMARK  status: ('A' for Active; 'I' for Inactive)
REMARK    1  A    between atoms: N_1  and  C_13
REMARK    2  A    between atoms: C_6  and  C_26
REMARK    3  A    between atoms: C_10  and  C_17
REMARK                            x       y       z     vdW  Elec       q    Type
REMARK                         _______ _______ _______ _____ _____    ______ ____
ROOT
ATOM      1  N   UNL     1      -1.167  -0.702   0.004  0.00  0.00    -0.189 N 
ATOM      2  N   UNL     1      -1.911   0.421   0.002  0.00  0.00    -0.174 NA
ATOM      3  C   UNL     1      -3.189  -1.457  -0.003  0.00  0.00    +0.036 C 
ATOM      4  C   UNL     1      -1.884  -1.863   0.001  0.00  0.00    +0.091 C 
ATOM      5  C   UNL     1      -3.184  -0.014  -0.002  0.00  0.00    +0.105 C 
ATOM      6  C   UNL     1      -4.393   0.706  -0.006  0.00  0.00    +0.072 C 
ATOM      7  C   UNL     1      -4.297  -2.294  -0.006  0.00  0.00    +0.003 C 
ATOM      8  C   UNL     1      -5.540  -0.118  -0.010  0.00  0.00    +0.006 C 
ATOM      9  C   UNL     1      -5.492  -1.548  -0.010  0.00  0.00    +0.000 C 
ENDROOT
BRANCH   1  13
ATOM     10  C   UNL     1       2.998  -0.448   0.011  0.00  0.00    -0.024 C 
ATOM     11  C   UNL     1       2.375  -1.696   0.009  0.00  0.00    -0.003 C 
ATOM     12  C   UNL     1       2.228   0.716   0.010  0.00  0.00    -0.003 C 
ATOM     13  C   UNL     1       0.213  -0.618   0.007  0.00  0.00    +0.074 C 
ATOM     14  C   UNL     1       0.983  -1.781   0.007  0.00  0.00    +0.016 C 
ATOM     15  C   UNL     1       0.836   0.631   0.008  0.00  0.00    +0.016 C 
BRANCH  10  17
ATOM     16  N   UNL     1       6.517   0.399  -1.239  0.00  0.00    +0.384 N 
ATOM     17  C   UNL     1       4.513  -0.355   0.015  0.00  0.00    +0.001 C 
ATOM     18  C   UNL     1       5.039   0.335   1.284  0.00  0.00    +0.000 C 
ATOM     19  C   UNL     1       5.053   0.344  -1.247  0.00  0.00    -0.077 C 
ATOM     20  C   UNL     1       6.560   0.456   1.231  0.00  0.00    -0.023 C 
ATOM     21  C   UNL     1       7.020   1.115  -0.067  0.00  0.00    -0.082 C 
ATOM     22  H   UNL     1       6.835   0.877  -2.082  0.00  0.00    -0.085 HD
ATOM     23  H   UNL     1       6.873  -0.557  -1.208  0.00  0.00    -0.085 HD
ENDBRANCH  10  17
ENDBRANCH   1  13
BRANCH   6  26
ATOM     24  O   UNL     1      -5.553   2.755   0.009  0.00  0.00    -0.270 OA
ATOM     25  N   UNL     1      -3.263   2.864  -0.002  0.00  0.00    -0.325 N 
ATOM     26  C   UNL     1      -4.462   2.151  -0.005  0.00  0.00    +0.244 C 
ATOM     27  H   UNL     1      -3.275   3.849  -0.001  0.00  0.00    +0.145 HD
ATOM     28  H   UNL     1      -2.404   2.383   0.000  0.00  0.00    +0.145 HD
ENDBRANCH   6  26
TORSDOF 3
