REMARK  Name = 12450
REMARK  9 active torsions:
REMARK  status: ('A' for Active; 'I' for Inactive)
REMARK    1  A    between atoms: N_1  and  C_4
REMARK    2  A    between atoms: N_1  and  C_26
REMARK    3  A    between atoms: N_1  and  C_28
REMARK    4  A    between atoms: C_2  and  C_3
REMARK    5  A    between atoms: C_2  and  C_9
REMARK    6  A    between atoms: C_2  and  C_20
REMARK    7  A    between atoms: C_10  and  N_15
REMARK    8  A    between atoms: N_15  and  C_16
REMARK    9  A    between atoms: N_15  and  C_18
REMARK                            x       y       z     vdW  Elec       q    Type
REMARK                         _______ _______ _______ _____ _____    ______ ____
ROOT
ATOM      1  C   UNL     1      -0.071   1.105  -0.004  0.00  0.00    +0.067 C 
ENDROOT
BRANCH   1   2
ATOM      2  C   UNL     1      -1.182   0.352   0.015  0.00  0.00    -0.014 C 
ATOM      3  C   UNL     1      -3.523  -1.235   0.058  0.00  0.00    +0.048 C 
ATOM      4  C   UNL     1      -1.082  -1.100   0.018  0.00  0.00    -0.002 C 
ATOM      5  C   UNL     1      -2.494   0.982   0.033  0.00  0.00    -0.002 C 
ATOM      6  C   UNL     1      -2.178  -1.870   0.038  0.00  0.00    +0.014 C 
ATOM      7  C   UNL     1      -3.615   0.249   0.054  0.00  0.00    +0.014 C 
BRANCH   3   8
ATOM      8  N   UNL     1      -4.585  -1.956   0.076  0.00  0.00    -0.307 N 
BRANCH   8   9
ATOM      9  C   UNL     1      -4.517  -3.440   0.079  0.00  0.00    +0.091 C 
ATOM     10  C   UNL     1      -4.447  -3.934   1.508  0.00  0.00    +0.023 C 
ENDBRANCH   8   9
BRANCH   8  11
ATOM     11  C   UNL     1      -5.939  -1.344   0.096  0.00  0.00    +0.091 C 
ATOM     12  C   UNL     1      -6.406  -1.119  -1.326  0.00  0.00    +0.023 C 
ENDBRANCH   8  11
ENDBRANCH   3   8
ENDBRANCH   1   2
BRANCH   1  13
ATOM     13  C   UNL     1       1.246   0.416  -0.021  0.00  0.00    -0.014 C 
ATOM     14  C   UNL     1       3.690  -0.862  -0.053  0.00  0.00    +0.048 C 
ATOM     15  C   UNL     1       1.853   0.112   1.179  0.00  0.00    -0.002 C 
ATOM     16  C   UNL     1       1.818   0.104  -1.237  0.00  0.00    -0.002 C 
ATOM     17  C   UNL     1       3.090  -0.534   1.163  0.00  0.00    +0.014 C 
ATOM     18  C   UNL     1       3.054  -0.542  -1.253  0.00  0.00    +0.014 C 
BRANCH  14  19
ATOM     19  N   UNL     1       4.939  -1.516  -0.069  0.00  0.00    -0.307 N 
BRANCH  19  20
ATOM     20  C   UNL     1       5.565  -1.872  -1.327  0.00  0.00    +0.091 C 
ATOM     21  C   UNL     1       4.989  -3.166  -1.879  0.00  0.00    +0.023 C 
ENDBRANCH  19  20
BRANCH  19  22
ATOM     22  C   UNL     1       5.608  -1.852   1.172  0.00  0.00    +0.091 C 
ATOM     23  C   UNL     1       6.350  -0.653   1.738  0.00  0.00    +0.023 C 
ENDBRANCH  19  22
ENDBRANCH  14  19
ENDBRANCH   1  13
BRANCH   1  24
ATOM     24  C   UNL     1      -0.222   2.584  -0.007  0.00  0.00    -0.014 C 
ATOM     25  C   UNL     1      -0.307   3.242  -1.216  0.00  0.00    -0.004 C 
ATOM     26  C   UNL     1      -0.272   3.250   1.200  0.00  0.00    -0.004 C 
ATOM     27  C   UNL     1      -0.449   4.630  -1.219  0.00  0.00    -0.000 C 
ATOM     28  C   UNL     1      -0.413   4.638   1.197  0.00  0.00    -0.000 C 
ATOM     29  C   UNL     1      -0.502   5.328  -0.012  0.00  0.00    -0.000 C 
ENDBRANCH   1  24
TORSDOF 9
