REMARK  Name = 5859
REMARK  6 active torsions:
REMARK  status: ('A' for Active; 'I' for Inactive)
REMARK    1  A    between atoms: C_1  and  S_7
REMARK    2  A    between atoms: C_4  and  O_13
REMARK    3  A    between atoms: S_7  and  N_10
REMARK    4  A    between atoms: O_13  and  P_15
REMARK    5  A    between atoms: P_15  and  O_16
REMARK    6  A    between atoms: P_15  and  O_18
REMARK                            x       y       z     vdW  Elec       q    Type
REMARK                         _______ _______ _______ _____ _____    ______ ____
ROOT
ATOM      1  C   UNL     1      -1.853   0.077  -0.557  0.00  0.00    +0.122 C 
ATOM      2  C   UNL     1      -0.960  -0.989  -0.455  0.00  0.00    +0.023 C 
ATOM      3  C   UNL     1      -1.373   1.386  -0.619  0.00  0.00    +0.023 C 
ATOM      4  C   UNL     1       0.886   0.560  -0.476  0.00  0.00    +0.147 C 
ATOM      5  C   UNL     1       0.414  -0.747  -0.414  0.00  0.00    +0.039 C 
ATOM      6  C   UNL     1       0.000   1.628  -0.579  0.00  0.00    +0.039 C 
ENDROOT
BRANCH   1   7
ATOM      7  S   UNL     1      -3.572  -0.225  -0.606  0.00  0.00    +0.063 S 
ATOM      8  O   UNL     1      -4.212   0.891  -1.295  0.00  0.00    -0.153 OA
ATOM      9  O   UNL     1      -3.783  -1.573  -1.123  0.00  0.00    -0.153 OA
BRANCH   7  10
ATOM     10  N   UNL     1      -4.033  -0.189   1.061  0.00  0.00    -0.153 NA
ATOM     11  C   UNL     1      -3.397  -1.174   1.972  0.00  0.00    +0.115 C 
ATOM     12  C   UNL     1      -4.185   1.143   1.702  0.00  0.00    +0.115 C 
ENDBRANCH   7  10
ENDBRANCH   1   7
BRANCH   4  13
ATOM     13  O   UNL     1       2.233   0.798  -0.436  0.00  0.00    -0.425 OA
BRANCH  13  15
ATOM     14  S   UNL     1       3.045  -0.488   2.207  0.00  0.00    +0.036 S 
ATOM     15  P   UNL     1       3.349  -0.104   0.319  0.00  0.00    +0.363 P 
BRANCH  15  16
ATOM     16  O   UNL     1       4.707   0.725  -0.028  0.00  0.00    -0.286 OA
ATOM     17  C   UNL     1       4.836   2.074   0.388  0.00  0.00    +0.185 C 
ENDBRANCH  15  16
BRANCH  15  18
ATOM     18  O   UNL     1       3.497  -1.374  -0.687  0.00  0.00    -0.286 OA
ATOM     19  C   UNL     1       4.402  -2.419  -0.374  0.00  0.00    +0.185 C 
ENDBRANCH  15  18
ENDBRANCH  13  15
ENDBRANCH   4  13
TORSDOF 6
