REMARK  Name = 68310
REMARK  6 active torsions:
REMARK  status: ('A' for Active; 'I' for Inactive)
REMARK    1  A    between atoms: CA_1  and  N_3
REMARK    2  A    between atoms: CA_1  and  C_8
REMARK    3  A    between atoms: CA_1  and  CB_11
REMARK    4  A    between atoms: C_8  and  O_9
REMARK    5  A    between atoms: CB_11  and  CG_12
REMARK    6  A    between atoms: CZ_17  and  OH_18
REMARK                            x       y       z     vdW  Elec       q    Type
REMARK                         _______ _______ _______ _____ _____    ______ ____
ROOT
ATOM      1  CA  TYR A   1      -1.614   0.485   0.181  0.00  0.00    +0.176 C 
ENDROOT
BRANCH   1   3
ATOM      2  O   UNK A   0      -1.085  -1.996   1.592  0.00  0.00    -0.275 OA
ATOM      3  N   TYR A   1      -1.521  -0.839  -0.381  0.00  0.00    -0.297 N 
ATOM      4  C   UNK A   0      -1.263  -1.970   0.377  0.00  0.00    +0.223 C 
ATOM      5  C   UNK A   0      -1.244  -3.225  -0.455  0.00  0.00    +0.095 C 
ATOM      6  H   TYR A   1      -1.647  -0.944  -1.352  0.00  0.00    +0.150 HD
ENDBRANCH   1   3
BRANCH   1   8
ATOM      7  OXT TYR A   1      -3.356   2.137   0.482  0.00  0.00    -0.248 OA
ATOM      8  C   TYR A   1      -3.014   1.057   0.011  0.00  0.00    +0.332 C 
BRANCH   8   9
ATOM      9  O   TYR A   1      -3.861   0.283  -0.709  0.00  0.00    -0.479 OA
ATOM     10  H   TYR A   1      -3.567  -0.537  -1.054  0.00  0.00    +0.295 HD
ENDBRANCH   8   9
ENDBRANCH   1   8
BRANCH   1  11
ATOM     11  CB  TYR A   1      -0.583   1.429  -0.452  0.00  0.00    +0.057 C 
BRANCH  11  12
ATOM     12  CG  TYR A   1       0.838   0.945  -0.286  0.00  0.00    -0.020 C 
ATOM     13  CD1 TYR A   1       1.562   1.333   0.829  0.00  0.00    -0.001 C 
ATOM     14  CD2 TYR A   1       1.391   0.121  -1.254  0.00  0.00    -0.001 C 
ATOM     15  CE1 TYR A   1       2.874   0.887   0.982  0.00  0.00    +0.036 C 
ATOM     16  CE2 TYR A   1       2.704  -0.326  -1.101  0.00  0.00    +0.036 C 
ATOM     17  CZ  TYR A   1       3.445   0.057   0.017  0.00  0.00    +0.134 C 
BRANCH  17  18
ATOM     18  OH  TYR A   1       4.726  -0.378   0.166  0.00  0.00    -0.506 OA
ATOM     19  HH  TYR A   1       5.224  -0.121   0.917  0.00  0.00    +0.292 HD
ENDBRANCH  17  18
ENDBRANCH  11  12
ENDBRANCH   1  11
TORSDOF 6
