REMARK  Name = 26105
REMARK  5 active torsions:
REMARK  status: ('A' for Active; 'I' for Inactive)
REMARK    1  A    between atoms: N_3  and  C_9
REMARK    2  A    between atoms: C_9  and  C_10
REMARK    3  A    between atoms: C_10  and  O_11
REMARK    4  A    between atoms: C_10  and  C_13
REMARK    5  A    between atoms: C_13  and  O_14
REMARK                            x       y       z     vdW  Elec       q    Type
REMARK                         _______ _______ _______ _____ _____    ______ ____
ROOT
ATOM      1  O   UNL     1      -2.212   2.564   0.009  0.00  0.00    -0.123 OA
ATOM      2  O   UNL     1      -0.189   1.924   0.586  0.00  0.00    -0.123 OA
ATOM      3  N   UNL     1      -0.868  -0.662  -0.431  0.00  0.00    -0.248 N 
ATOM      4  N   UNL     1      -2.938  -0.148   0.124  0.00  0.00    -0.207 NA
ATOM      5  N   UNL     1      -1.360   1.650   0.196  0.00  0.00    +0.091 N 
ATOM      6  C   UNL     1      -1.717   0.316  -0.030  0.00  0.00    +0.284 C 
ATOM      7  C   UNL     1      -1.563  -1.821  -0.544  0.00  0.00    +0.089 C 
ATOM      8  C   UNL     1      -2.848  -1.480  -0.194  0.00  0.00    +0.118 C 
ENDROOT
BRANCH   3   9
ATOM      9  C   UNL     1       0.563  -0.514  -0.695  0.00  0.00    +0.130 C 
BRANCH   9  10
ATOM     10  C   UNL     1       1.414  -0.756   0.553  0.00  0.00    +0.160 C 
BRANCH  10  11
ATOM     11  O   UNL     1       1.182  -2.091   1.008  0.00  0.00    -0.380 OA
ATOM     12  H   UNL     1       0.241  -2.204   1.212  0.00  0.00    +0.211 HD
ENDBRANCH  10  11
BRANCH  10  13
ATOM     13  C   UNL     1       2.899  -0.604   0.239  0.00  0.00    +0.173 C 
BRANCH  13  14
ATOM     14  O   UNL     1       3.132   0.707  -0.264  0.00  0.00    -0.348 OA
ATOM     15  C   UNL     1       4.505   0.914  -0.558  0.00  0.00    +0.174 C 
ENDBRANCH  13  14
ENDBRANCH  10  13
ENDBRANCH   9  10
ENDBRANCH   3   9
TORSDOF 5
