REMARK  Name = 54713659
REMARK  4 active torsions:
REMARK  status: ('A' for Active; 'I' for Inactive)
REMARK    1  A    between atoms: C_14  and  O_30
REMARK    2  A    between atoms: C_15  and  C_19
REMARK    3  A    between atoms: N_18  and  C_21
REMARK    4  A    between atoms: C_21  and  C_24
REMARK                            x       y       z     vdW  Elec       q    Type
REMARK                         _______ _______ _______ _____ _____    ______ ____
ROOT
ATOM      1  O   UNL     1      -5.810   1.890  -0.011  0.00  0.00    -0.334 OA
ATOM      2  O   UNL     1      -4.028  -2.275  -0.753  0.00  0.00    -0.268 OA
ATOM      3  O   UNL     1       0.891  -1.653   0.533  0.00  0.00    -0.283 OA
ATOM      4  N   UNL     1      -4.838  -0.187  -0.227  0.00  0.00    -0.251 N 
ATOM      5  N   UNL     1      -2.264   0.819  -0.097  0.00  0.00    -0.275 N 
ATOM      6  C   UNL     1      -4.627   1.139   0.292  0.00  0.00    +0.215 C 
ATOM      7  C   UNL     1      -6.222  -0.363  -0.591  0.00  0.00    +0.107 C 
ATOM      8  C   UNL     1      -3.386   1.734  -0.339  0.00  0.00    +0.147 C 
ATOM      9  C   UNL     1      -6.629   1.073  -0.872  0.00  0.00    +0.164 C 
ATOM     10  C   UNL     1      -3.834  -1.119  -0.383  0.00  0.00    +0.268 C 
ATOM     11  C   UNL     1      -2.446  -0.577  -0.113  0.00  0.00    +0.143 C 
ATOM     12  C   UNL     1      -7.018  -0.984   0.552  0.00  0.00    +0.024 C 
ATOM     13  C   UNL     1      -0.985   1.320   0.097  0.00  0.00    +0.074 C 
ATOM     14  C   UNL     1      -1.434  -1.448   0.087  0.00  0.00    +0.191 C 
ATOM     15  C   UNL     1       0.106   0.573   0.306  0.00  0.00    +0.110 C 
ATOM     16  C   UNL     1      -0.060  -0.904   0.329  0.00  0.00    +0.236 C 
ENDROOT
BRANCH  15  19
ATOM     17  O   UNL     1       1.623   2.334  -0.034  0.00  0.00    -0.270 OA
ATOM     18  N   UNL     1       2.256   0.543   1.317  0.00  0.00    -0.297 N 
ATOM     19  C   UNL     1       1.389   1.249   0.500  0.00  0.00    +0.251 C 
ATOM     20  H   UNL     1       1.952  -0.318   1.686  0.00  0.00    +0.150 HD
BRANCH  18  21
ATOM     21  C   UNL     1       3.584   1.002   1.657  0.00  0.00    +0.119 C 
BRANCH  21  24
ATOM     22  F   UNL     1       4.564  -1.648   1.512  0.00  0.00    -0.204 F 
ATOM     23  F   UNL     1       7.418  -0.640  -2.126  0.00  0.00    -0.204 F 
ATOM     24  C   UNL     1       4.606   0.563   0.649  0.00  0.00    +0.025 C 
ATOM     25  C   UNL     1       5.048  -0.760   0.632  0.00  0.00    +0.140 C 
ATOM     26  C   UNL     1       5.115   1.480  -0.272  0.00  0.00    +0.002 C 
ATOM     27  C   UNL     1       5.997  -1.167  -0.305  0.00  0.00    +0.059 C 
ATOM     28  C   UNL     1       6.065   1.073  -1.208  0.00  0.00    +0.030 C 
ATOM     29  C   UNL     1       6.506  -0.250  -1.226  0.00  0.00    +0.142 C 
ENDBRANCH  21  24
ENDBRANCH  18  21
ENDBRANCH  15  19
BRANCH  14  30
ATOM     30  O   UNL     1      -1.586  -2.816   0.094  0.00  0.00    -0.502 OA
ATOM     31  H   UNL     1      -2.430  -3.195  -0.053  0.00  0.00    +0.292 HD
ENDBRANCH  14  30
TORSDOF 4
