REMARK  Name = 25145656
REMARK  4 active torsions:
REMARK  status: ('A' for Active; 'I' for Inactive)
REMARK    1  A    between atoms: C_5  and  C_22
REMARK    2  A    between atoms: C_8  and  C_11
REMARK    3  A    between atoms: C_14  and  C_19
REMARK    4  A    between atoms: C_22  and  C_24
REMARK                            x       y       z     vdW  Elec       q    Type
REMARK                         _______ _______ _______ _____ _____    ______ ____
ROOT
ATOM      1  N   UNL     1       2.519   1.847  -0.282  0.00  0.00    -0.134 N 
ATOM      2  N   UNL     1       1.265   1.349  -0.354  0.00  0.00    -0.168 NA
ATOM      3  N   UNL     1       4.205   3.197   0.225  0.00  0.00    -0.178 NA
ATOM      4  N   UNL     1       1.972   3.814   0.926  0.00  0.00    -0.200 NA
ATOM      5  C   UNL     1       3.643   1.264  -0.802  0.00  0.00    +0.086 C 
ATOM      6  C   UNL     1       2.900   3.023   0.334  0.00  0.00    +0.114 C 
ATOM      7  C   UNL     1       4.669   2.115  -0.476  0.00  0.00    +0.124 C 
ATOM      8  C   UNL     1       0.364   2.082   0.228  0.00  0.00    +0.103 C 
ATOM      9  C   UNL     1       0.753   3.386   0.881  0.00  0.00    +0.184 C 
ENDROOT
BRANCH   8  11
ATOM     10  F   UNL     1      -3.357  -0.295  -1.786  0.00  0.00    -0.204 F 
ATOM     11  C   UNL     1      -1.052   1.647   0.245  0.00  0.00    +0.019 C 
ATOM     12  C   UNL     1      -1.553   0.866  -0.796  0.00  0.00    +0.031 C 
ATOM     13  C   UNL     1      -1.883   2.018   1.302  0.00  0.00    +0.002 C 
ATOM     14  C   UNL     1      -3.718   0.827   0.276  0.00  0.00    +0.081 C 
ATOM     15  C   UNL     1      -2.886   0.456  -0.780  0.00  0.00    +0.144 C 
ATOM     16  C   UNL     1      -3.216   1.608   1.317  0.00  0.00    +0.007 C 
BRANCH  14  19
ATOM     17  O   UNL     1      -5.702   0.235   1.377  0.00  0.00    -0.270 OA
ATOM     18  N   UNL     1      -5.734   0.215  -0.941  0.00  0.00    -0.299 N 
ATOM     19  C   UNL     1      -5.108   0.401   0.297  0.00  0.00    +0.248 C 
ATOM     20  C   UNL     1      -7.116  -0.183  -1.086  0.00  0.00    +0.111 C 
ATOM     21  H   UNL     1      -5.205   0.363  -1.758  0.00  0.00    +0.150 HD
ENDBRANCH  14  19
ENDBRANCH   8  11
BRANCH   5  22
ATOM     22  C   UNL     1       3.628  -0.049  -1.559  0.00  0.00    +0.068 C 
BRANCH  22  24
ATOM     23  N   UNL     1       1.376  -4.344   1.357  0.00  0.00    -0.248 NA
ATOM     24  C   UNL     1       3.026  -1.180  -0.796  0.00  0.00    -0.038 C 
ATOM     25  C   UNL     1       1.728  -1.599  -1.073  0.00  0.00    +0.050 C 
ATOM     26  C   UNL     1       1.157  -2.664  -0.357  0.00  0.00    -0.004 C 
ATOM     27  C   UNL     1       3.757  -1.822   0.196  0.00  0.00    -0.028 C 
ATOM     28  C   UNL     1       1.893  -3.321   0.652  0.00  0.00    +0.060 C 
ATOM     29  C   UNL     1       3.189  -2.881   0.908  0.00  0.00    +0.071 C 
ATOM     30  C   UNL     1      -0.147  -3.107  -0.616  0.00  0.00    -0.001 C 
ATOM     31  C   UNL     1      -0.683  -4.162   0.110  0.00  0.00    +0.020 C 
ATOM     32  C   UNL     1       0.113  -4.741   1.076  0.00  0.00    +0.098 C 
ENDBRANCH  22  24
ENDBRANCH   5  22
TORSDOF 4
