REMARK  Name = 11689883
REMARK  5 active torsions:
REMARK  status: ('A' for Active; 'I' for Inactive)
REMARK    1  A    between atoms: C_2  and  C_21
REMARK    2  A    between atoms: C_5  and  N_9
REMARK    3  A    between atoms: N_10  and  C_15
REMARK    4  A    between atoms: C_21  and  N_23
REMARK    5  A    between atoms: C_29  and  O_31
REMARK                            x       y       z     vdW  Elec       q    Type
REMARK                         _______ _______ _______ _____ _____    ______ ____
ROOT
ATOM      1  F   UNL     1      -0.206   0.596  -2.010  0.00  0.00    -0.203 F 
ATOM      2  C   UNL     1      -1.415   1.599  -0.236  0.00  0.00    -0.014 C 
ATOM      3  C   UNL     1      -0.243   1.066  -0.753  0.00  0.00    +0.147 C 
ATOM      4  C   UNL     1      -1.465   2.089   1.062  0.00  0.00    -0.004 C 
ATOM      5  C   UNL     1       0.902   1.021   0.043  0.00  0.00    +0.079 C 
ATOM      6  C   UNL     1      -0.321   2.044   1.858  0.00  0.00    +0.001 C 
ATOM      7  C   UNL     1       0.863   1.510   1.349  0.00  0.00    +0.017 C 
ENDROOT
BRANCH   5   9
ATOM      8  O   UNL     1       3.577   0.703   1.332  0.00  0.00    -0.252 OA
ATOM      9  N   UNL     1       2.087   0.487  -0.464  0.00  0.00    -0.266 N 
ATOM     10  N   UNL     1       4.268  -0.239  -0.694  0.00  0.00    -0.267 N 
ATOM     11  C   UNL     1       3.342   0.352   0.180  0.00  0.00    +0.308 C 
ATOM     12  H   UNL     1       2.047   0.161  -1.392  0.00  0.00    +0.156 HD
ATOM     13  H   UNL     1       3.931  -0.467  -1.591  0.00  0.00    +0.156 HD
BRANCH  10  15
ATOM     14  N   UNL     1       7.477  -0.535   1.081  0.00  0.00    -0.247 NA
ATOM     15  C   UNL     1       5.626  -0.548  -0.445  0.00  0.00    +0.071 C 
ATOM     16  C   UNL     1       6.397  -1.133  -1.427  0.00  0.00    +0.018 C 
ATOM     17  C   UNL     1       6.187  -0.267   0.778  0.00  0.00    +0.113 C 
ATOM     18  C   UNL     1       7.729  -1.425  -1.153  0.00  0.00    +0.016 C 
ATOM     19  C   UNL     1       8.216  -1.108   0.105  0.00  0.00    +0.059 C 
ATOM     20  C   UNL     1       9.641  -1.407   0.434  0.00  0.00    +0.052 C 
ENDBRANCH  10  15
ENDBRANCH   5   9
BRANCH   2  21
ATOM     21  C   UNL     1      -2.652   1.650  -1.092  0.00  0.00    -0.047 C 
BRANCH  21  23
ATOM     22  O   UNL     1      -8.196  -1.204  -0.592  0.00  0.00    -0.226 OA
ATOM     23  N   UNL     1      -3.839   1.205  -0.362  0.00  0.00    +0.392 N 
ATOM     24  N   UNL     1      -6.127  -0.436   0.135  0.00  0.00    -0.250 N 
ATOM     25  C   UNL     1      -5.038   1.326  -1.204  0.00  0.00    -0.055 C 
ATOM     26  C   UNL     1      -3.671  -0.181   0.100  0.00  0.00    -0.055 C 
ATOM     27  C   UNL     1      -6.287   0.900  -0.434  0.00  0.00    +0.074 C 
ATOM     28  C   UNL     1      -4.893  -0.643   0.896  0.00  0.00    +0.074 C 
ATOM     29  C   UNL     1      -7.158  -1.374   0.046  0.00  0.00    +0.405 C 
ATOM     30  H   UNL     1      -3.957   1.805   0.454  0.00  0.00    -0.079 HD
BRANCH  29  31
ATOM     31  O   UNL     1      -6.894  -2.517   0.753  0.00  0.00    -0.430 OA
ATOM     32  C   UNL     1      -7.906  -3.530   0.715  0.00  0.00    +0.257 C 
ENDBRANCH  29  31
ENDBRANCH  21  23
ENDBRANCH   2  21
TORSDOF 5
