REMARK  Name = 52918385
REMARK  4 active torsions:
REMARK  status: ('A' for Active; 'I' for Inactive)
REMARK    1  A    between atoms: C_3  and  C_11
REMARK    2  A    between atoms: C_3  and  C_14
REMARK    3  A    between atoms: C_11  and  O_12
REMARK    4  A    between atoms: C_14  and  O_15
REMARK                            x       y       z     vdW  Elec       q    Type
REMARK                         _______ _______ _______ _____ _____    ______ ____
ROOT
ATOM      1  O   UNL     1       0.482   1.840  -1.482  0.00  0.00    -0.298 OA
ATOM      2  N   UNL     1       0.367  -0.902   0.868  0.00  0.00    +0.397 N 
ATOM      3  C   UNL     1      -0.316   0.238   0.172  0.00  0.00    +0.066 C 
ATOM      4  C   UNL     1       2.088   0.210  -0.726  0.00  0.00    +0.052 C 
ATOM      5  C   UNL     1       2.552   0.300   0.731  0.00  0.00    -0.016 C 
ATOM      6  C   UNL     1       1.846  -1.251  -1.114  0.00  0.00    -0.016 C 
ATOM      7  C   UNL     1       0.877  -1.898  -0.108  0.00  0.00    -0.076 C 
ATOM      8  C   UNL     1       1.546  -0.431   1.639  0.00  0.00    -0.076 C 
ATOM      9  C   UNL     1       0.724   0.875  -0.763  0.00  0.00    +0.137 C 
ATOM     10  H   UNL     1      -0.331  -1.318   1.485  0.00  0.00    -0.079 HD
ENDROOT
BRANCH   3  11
ATOM     11  C   UNL     1      -1.519  -0.241  -0.659  0.00  0.00    +0.133 C 
BRANCH  11  12
ATOM     12  O   UNL     1      -2.452  -0.830   0.222  0.00  0.00    -0.353 OA
ATOM     13  C   UNL     1      -3.606  -1.305  -0.465  0.00  0.00    +0.174 C 
ENDBRANCH  11  12
ENDBRANCH   3  11
BRANCH   3  14
ATOM     14  C   UNL     1      -0.817   1.297   1.171  0.00  0.00    +0.128 C 
BRANCH  14  15
ATOM     15  O   UNL     1      -1.772   2.100   0.513  0.00  0.00    -0.384 OA
ATOM     16  H   UNL     1      -2.103   2.776   1.125  0.00  0.00    +0.210 HD
ENDBRANCH  14  15
ENDBRANCH   3  14
TORSDOF 4
