REMARK  Name = 51042438
REMARK  7 active torsions:
REMARK  status: ('A' for Active; 'I' for Inactive)
REMARK    1  A    between atoms: N_2  and  C_18
REMARK    2  A    between atoms: C_3  and  C_7
REMARK    3  A    between atoms: C_8  and  C_14
REMARK    4  A    between atoms: C_18  and  C_19
REMARK    5  A    between atoms: C_18  and  C_28
REMARK    6  A    between atoms: C_19  and  C_22
REMARK    7  A    between atoms: C_28  and  N_29
REMARK                            x       y       z     vdW  Elec       q    Type
REMARK                         _______ _______ _______ _____ _____    ______ ____
ROOT
ATOM      1  O   UNL     1       1.042   1.130   2.087  0.00  0.00    -0.267 OA
ATOM      2  N   UNL     1       1.669   1.792  -0.044  0.00  0.00    -0.302 N 
ATOM      3  C   UNL     1       0.781   1.307   0.900  0.00  0.00    +0.281 C 
ATOM      4  H   UNL     1       1.363   1.899  -0.974  0.00  0.00    +0.150 HD
ENDROOT
BRANCH   3   7
ATOM      5 CL   UNL     1      -2.849   0.839  -2.694  0.00  0.00    -0.042 Cl
ATOM      6  O   UNL     1      -0.824   1.148  -0.928  0.00  0.00    -0.438 OA
ATOM      7  C   UNL     1      -0.572   0.962   0.395  0.00  0.00    +0.200 C 
ATOM      8  C   UNL     1      -2.684   0.336   0.039  0.00  0.00    +0.065 C 
ATOM      9  C   UNL     1      -1.685   0.465   1.033  0.00  0.00    +0.048 C 
ATOM     10  C   UNL     1      -2.111   0.764  -1.136  0.00  0.00    +0.205 C 
BRANCH   8  14
ATOM     11 CL   UNL     1      -5.466   2.095  -0.618  0.00  0.00    -0.079 Cl
ATOM     12  N   UNL     1      -4.428  -1.385   0.664  0.00  0.00    -0.209 N 
ATOM     13  N   UNL     1      -5.759  -1.565   0.724  0.00  0.00    -0.175 NA
ATOM     14  C   UNL     1      -4.058  -0.152   0.213  0.00  0.00    +0.085 C 
ATOM     15  C   UNL     1      -5.228   0.522  -0.039  0.00  0.00    +0.093 C 
ATOM     16  C   UNL     1      -3.554  -2.463   1.066  0.00  0.00    +0.140 C 
ATOM     17  C   UNL     1      -6.242  -0.396   0.293  0.00  0.00    +0.130 C 
ENDBRANCH   8  14
ENDBRANCH   3   7
BRANCH   2  18
ATOM     18  C   UNL     1       3.034   2.149   0.288  0.00  0.00    +0.055 C 
BRANCH  18  19
ATOM     19  C   UNL     1       4.033   1.289  -0.509  0.00  0.00    +0.044 C 
BRANCH  19  22
ATOM     20  F   UNL     1       1.958  -2.956  -1.751  0.00  0.00    -0.202 F 
ATOM     21  F   UNL     1       3.278  -4.247   0.266  0.00  0.00    -0.202 F 
ATOM     22  C   UNL     1       3.831  -0.194  -0.301  0.00  0.00    -0.018 C 
ATOM     23  C   UNL     1       2.970  -0.905  -1.138  0.00  0.00    +0.028 C 
ATOM     24  C   UNL     1       4.505  -0.853   0.728  0.00  0.00    -0.002 C 
ATOM     25  C   UNL     1       2.784  -2.274  -0.947  0.00  0.00    +0.167 C 
ATOM     26  C   UNL     1       4.318  -2.222   0.919  0.00  0.00    +0.032 C 
ATOM     27  C   UNL     1       3.458  -2.933   0.082  0.00  0.00    +0.167 C 
ENDBRANCH  19  22
ENDBRANCH  18  19
BRANCH  18  28
ATOM     28  C   UNL     1       3.226   3.652   0.035  0.00  0.00    -0.066 C 
BRANCH  28  29
ATOM     29  N   UNL     1       4.573   4.096   0.373  0.00  0.00    +0.382 N 
ATOM     30  H   UNL     1       4.657   5.096   0.191  0.00  0.00    -0.089 HD
ATOM     31  H   UNL     1       5.251   3.589  -0.195  0.00  0.00    -0.089 HD
ATOM     32  H   UNL     1       4.753   3.915   1.361  0.00  0.00    -0.089 HD
ENDBRANCH  28  29
ENDBRANCH  18  28
ENDBRANCH   2  18
TORSDOF 7
