REMARK  Name = 784
REMARK  1 active torsions:
REMARK  status: ('A' for Active; 'I' for Inactive)
REMARK    1  A    between atoms: O_1  and  O_3
REMARK                            x       y       z     vdW  Elec       q    Type
REMARK                         _______ _______ _______ _____ _____    ______ ____
ROOT
ATOM      1  O   UNL     1       0.725   0.000   0.000  0.00  0.00    -0.253 OA
ATOM      2  H   UNL     1       1.048  -0.883  -0.238  0.00  0.00    +0.253 HD
ENDROOT
BRANCH   1   3
ATOM      3  O   UNL     1      -0.725   0.000   0.000  0.00  0.00    -0.253 OA
ATOM      4  H   UNL     1      -1.048   0.883   0.238  0.00  0.00    +0.253 HD
ENDBRANCH   1   3
TORSDOF 1
