REMARK  Name = 9907289
REMARK  6 active torsions:
REMARK  status: ('A' for Active; 'I' for Inactive)
REMARK    1  A    between atoms: N_4  and  C_22
REMARK    2  A    between atoms: N_5  and  C_25
REMARK    3  A    between atoms: C_6  and  C_10
REMARK    4  A    between atoms: C_6  and  C_16
REMARK    5  A    between atoms: C_22  and  O_23
REMARK    6  A    between atoms: C_25  and  O_26
REMARK                            x       y       z     vdW  Elec       q    Type
REMARK                         _______ _______ _______ _____ _____    ______ ____
ROOT
ATOM      1  O   UNL     1       0.335  -1.899  -1.490  0.00  0.00    -0.273 OA
ATOM      2  O   UNL     1       0.326   1.490   1.884  0.00  0.00    -0.273 OA
ATOM      3  O   UNL     1      -3.616  -0.063   0.046  0.00  0.00    -0.251 OA
ATOM      4  N   UNL     1      -1.632  -0.882  -0.818  0.00  0.00    -0.185 N 
ATOM      5  N   UNL     1      -1.637   0.584   1.058  0.00  0.00    -0.185 N 
ATOM      6  C   UNL     1       0.561  -0.027   0.023  0.00  0.00    +0.176 C 
ATOM      7  C   UNL     1      -0.244  -1.035  -0.822  0.00  0.00    +0.249 C 
ATOM      8  C   UNL     1      -0.248   0.742   1.083  0.00  0.00    +0.249 C 
ATOM      9  C   UNL     1      -2.382  -0.113   0.090  0.00  0.00    +0.322 C 
ENDROOT
BRANCH   6  10
ATOM     10  C   UNL     1       1.645  -0.785   0.850  0.00  0.00    -0.003 C 
ATOM     11  C   UNL     1       1.376  -2.062   1.327  0.00  0.00    -0.003 C 
ATOM     12  C   UNL     1       2.868  -0.175   1.101  0.00  0.00    -0.003 C 
ATOM     13  C   UNL     1       2.345  -2.740   2.067  0.00  0.00    -0.000 C 
ATOM     14  C   UNL     1       3.837  -0.853   1.841  0.00  0.00    -0.000 C 
ATOM     15  C   UNL     1       3.575  -2.135   2.324  0.00  0.00    -0.000 C 
ENDBRANCH   6  10
BRANCH   6  16
ATOM     16  C   UNL     1       1.152   0.963  -1.026  0.00  0.00    -0.003 C 
ATOM     17  C   UNL     1       0.842   2.315  -0.945  0.00  0.00    -0.003 C 
ATOM     18  C   UNL     1       1.983   0.482  -2.031  0.00  0.00    -0.003 C 
ATOM     19  C   UNL     1       1.371   3.200  -1.883  0.00  0.00    -0.000 C 
ATOM     20  C   UNL     1       2.512   1.368  -2.970  0.00  0.00    -0.000 C 
ATOM     21  C   UNL     1       2.206   2.727  -2.896  0.00  0.00    -0.000 C 
ENDBRANCH   6  16
BRANCH   4  22
ATOM     22  C   UNL     1      -2.394  -1.682  -1.774  0.00  0.00    +0.250 C 
BRANCH  22  23
ATOM     23  O   UNL     1      -2.741  -2.914  -1.160  0.00  0.00    -0.331 OA
ATOM     24  C   UNL     1      -3.458  -3.757  -2.052  0.00  0.00    +0.176 C 
ENDBRANCH  22  23
ENDBRANCH   4  22
BRANCH   5  25
ATOM     25  C   UNL     1      -2.393   1.308   2.078  0.00  0.00    +0.250 C 
BRANCH  25  26
ATOM     26  O   UNL     1      -2.738   2.586   1.566  0.00  0.00    -0.331 OA
ATOM     27  C   UNL     1      -3.449   3.357   2.525  0.00  0.00    +0.176 C 
ENDBRANCH  25  26
ENDBRANCH   5  25
TORSDOF 6
