REMARK  Name = 15907
REMARK  4 active torsions:
REMARK  status: ('A' for Active; 'I' for Inactive)
REMARK    1  A    between atoms: C_2  and  O_8
REMARK    2  A    between atoms: O_8  and  C_9
REMARK    3  A    between atoms: C_9  and  C_10
REMARK    4  A    between atoms: C_10  and  O_11
REMARK                            x       y       z     vdW  Elec       q    Type
REMARK                         _______ _______ _______ _____ _____    ______ ____
ROOT
ATOM      1 CL   UNL     1       4.313   0.667  -0.004  0.00  0.00    -0.082 Cl
ATOM      2  C   UNL     1      -0.057  -0.451   0.003  0.00  0.00    +0.139 C 
ATOM      3  C   UNL     1       0.319   0.892   0.002  0.00  0.00    +0.038 C 
ATOM      4  C   UNL     1       0.918  -1.449   0.002  0.00  0.00    +0.038 C 
ATOM      5  C   UNL     1       1.671   1.238   0.000  0.00  0.00    +0.015 C 
ATOM      6  C   UNL     1       2.270  -1.103   0.000  0.00  0.00    +0.015 C 
ATOM      7  C   UNL     1       2.646   0.240  -0.001  0.00  0.00    +0.058 C 
ENDROOT
BRANCH   2   8
ATOM      8  O   UNL     1      -1.375  -0.789   0.005  0.00  0.00    -0.473 OA
BRANCH   8   9
ATOM      9  C   UNL     1      -2.320   0.281   0.006  0.00  0.00    +0.237 C 
BRANCH   9  10
ATOM     10  C   UNL     1      -3.722  -0.296  -0.017  0.00  0.00    +0.185 C 
BRANCH  10  11
ATOM     11  O   UNL     1      -4.663   0.770   0.005  0.00  0.00    -0.378 OA
ATOM     12  H   UNL     1      -5.563   0.408  -0.009  0.00  0.00    +0.211 HD
ENDBRANCH  10  11
ENDBRANCH   9  10
ENDBRANCH   8   9
ENDBRANCH   2   8
TORSDOF 4
