REMARK  Name = 9884876
REMARK  7 active torsions:
REMARK  status: ('A' for Active; 'I' for Inactive)
REMARK    1  A    between atoms: C_1  and  C_22
REMARK    2  A    between atoms: C_2  and  O_13
REMARK    3  A    between atoms: C_4  and  S_7
REMARK    4  A    between atoms: S_7  and  N_10
REMARK    5  A    between atoms: O_13  and  C_14
REMARK    6  A    between atoms: C_19  and  S_20
REMARK    7  A    between atoms: C_22  and  N_23
REMARK                            x       y       z     vdW  Elec       q    Type
REMARK                         _______ _______ _______ _____ _____    ______ ____
ROOT
ATOM      1  C   UNL     1      -1.353  -1.042   0.624  0.00  0.00    -0.007 C 
ATOM      2  C   UNL     1      -0.361  -0.221   1.144  0.00  0.00    +0.139 C 
ATOM      3  C   UNL     1      -2.552  -0.510   0.166  0.00  0.00    +0.017 C 
ATOM      4  C   UNL     1      -2.762   0.867   0.230  0.00  0.00    +0.121 C 
ATOM      5  C   UNL     1      -0.572   1.156   1.208  0.00  0.00    +0.038 C 
ATOM      6  C   UNL     1      -1.772   1.700   0.751  0.00  0.00    +0.023 C 
ENDROOT
BRANCH   4   7
ATOM      7  S   UNL     1      -4.265   1.549  -0.343  0.00  0.00    +0.057 S 
ATOM      8  O   UNL     1      -5.290   0.517  -0.280  0.00  0.00    -0.153 OA
ATOM      9  O   UNL     1      -4.479   2.824   0.327  0.00  0.00    -0.153 OA
BRANCH   7  10
ATOM     10  N   UNL     1      -3.883   1.848  -1.981  0.00  0.00    -0.203 NA
ATOM     11  H   UNL     1      -4.691   2.257  -2.449  0.00  0.00    +0.144 HD
ATOM     12  H   UNL     1      -3.633   0.970  -2.438  0.00  0.00    +0.144 HD
ENDBRANCH   7  10
ENDBRANCH   4   7
BRANCH   2  13
ATOM     13  O   UNL     1       0.817  -0.736   1.594  0.00  0.00    -0.454 OA
BRANCH  13  14
ATOM     14  C   UNL     1       1.981  -0.304   0.982  0.00  0.00    +0.145 C 
ATOM     15  C   UNL     1       2.029  -0.227  -0.398  0.00  0.00    +0.038 C 
ATOM     16  C   UNL     1       3.068   0.039   1.766  0.00  0.00    +0.038 C 
ATOM     17  C   UNL     1       3.202   0.207  -1.015  0.00  0.00    +0.009 C 
ATOM     18  C   UNL     1       4.242   0.473   1.150  0.00  0.00    +0.009 C 
ATOM     19  C   UNL     1       4.309   0.557  -0.241  0.00  0.00    +0.025 C 
BRANCH  19  20
ATOM     20  S   UNL     1       5.807   1.112  -1.030  0.00  0.00    -0.113 S 
ATOM     21  C   UNL     1       5.174   2.563  -1.898  0.00  0.00    +0.074 C 
ENDBRANCH  19  20
ENDBRANCH  13  14
ENDBRANCH   2  13
BRANCH   1  22
ATOM     22  C   UNL     1      -1.142  -2.531   0.546  0.00  0.00    -0.047 C 
BRANCH  22  23
ATOM     23  N   UNL     1      -0.530  -2.929  -0.721  0.00  0.00    +0.387 N 
ATOM     24  C   UNL     1      -1.382  -2.541  -1.844  0.00  0.00    -0.100 C 
ATOM     25  C   UNL     1      -0.285  -4.370  -0.740  0.00  0.00    -0.100 C 
ATOM     26  H   UNL     1       0.365  -2.448  -0.813  0.00  0.00    -0.079 HD
ENDBRANCH  22  23
ENDBRANCH   1  22
TORSDOF 7
