REMARK  Name = 31593
REMARK  4 active torsions:
REMARK  status: ('A' for Active; 'I' for Inactive)
REMARK    1  A    between atoms: N_2  and  C_14
REMARK    2  A    between atoms: C_3  and  C_5
REMARK    3  A    between atoms: C_5  and  N_8
REMARK    4  A    between atoms: C_14  and  C_15
REMARK                            x       y       z     vdW  Elec       q    Type
REMARK                         _______ _______ _______ _____ _____    ______ ____
ROOT
ATOM      1  O   UNL     1       0.327  -1.896  -0.942  0.00  0.00    -0.273 OA
ATOM      2  N   UNL     1      -0.789  -1.612   1.075  0.00  0.00    -0.299 N 
ATOM      3  C   UNL     1       0.333  -1.629   0.257  0.00  0.00    +0.243 C 
ATOM      4  H   UNL     1      -0.674  -1.384   2.026  0.00  0.00    +0.150 HD
ENDROOT
BRANCH   3   5
ATOM      5  C   UNL     1       1.588  -1.277   1.027  0.00  0.00    +0.183 C 
BRANCH   5   8
ATOM      6  O   UNL     1       2.327   2.857   0.824  0.00  0.00    -0.123 OA
ATOM      7  O   UNL     1       0.665   1.423   0.838  0.00  0.00    -0.123 OA
ATOM      8  N   UNL     1       2.587  -0.605   0.203  0.00  0.00    -0.242 N 
ATOM      9  N   UNL     1       3.707   1.014  -0.795  0.00  0.00    -0.207 NA
ATOM     10  N   UNL     1       1.870   1.704   0.576  0.00  0.00    +0.091 N 
ATOM     11  C   UNL     1       2.703   0.734   0.007  0.00  0.00    +0.284 C 
ATOM     12  C   UNL     1       3.562  -1.230  -0.505  0.00  0.00    +0.089 C 
ATOM     13  C   UNL     1       4.246  -0.206  -1.119  0.00  0.00    +0.118 C 
ENDBRANCH   5   8
ENDBRANCH   3   5
BRANCH   2  14
ATOM     14  C   UNL     1      -2.115  -1.912   0.597  0.00  0.00    +0.116 C 
BRANCH  14  15
ATOM     15  C   UNL     1      -2.832  -0.697   0.112  0.00  0.00    -0.003 C 
ATOM     16  C   UNL     1      -3.609   0.052   0.995  0.00  0.00    -0.003 C 
ATOM     17  C   UNL     1      -2.725  -0.310  -1.224  0.00  0.00    -0.003 C 
ATOM     18  C   UNL     1      -4.279   1.188   0.543  0.00  0.00    -0.000 C 
ATOM     19  C   UNL     1      -3.395   0.826  -1.676  0.00  0.00    -0.000 C 
ATOM     20  C   UNL     1      -4.173   1.575  -0.793  0.00  0.00    -0.000 C 
ENDBRANCH  14  15
ENDBRANCH   2  14
TORSDOF 4
