REMARK  Name = 5282430
REMARK  2 active torsions:
REMARK  status: ('A' for Active; 'I' for Inactive)
REMARK    1  A    between atoms: C_17  and  S_23
REMARK    2  A    between atoms: C_18  and  S_27
REMARK                            x       y       z     vdW  Elec       q    Type
REMARK                         _______ _______ _______ _____ _____    ______ ____
ROOT
ATOM      1  O   UNL     1       1.521  -2.154  -0.035  0.00  0.00    -0.285 OA
ATOM      2  O   UNL     1      -1.521   2.154  -0.035  0.00  0.00    -0.285 OA
ATOM      3  N   UNL     1       1.319   1.336  -0.031  0.00  0.00    -0.309 N 
ATOM      4  N   UNL     1      -1.319  -1.336  -0.031  0.00  0.00    -0.309 N 
ATOM      5  C   UNL     1       0.653   0.137  -0.034  0.00  0.00    +0.105 C 
ATOM      6  C   UNL     1      -0.653  -0.137  -0.034  0.00  0.00    +0.105 C 
ATOM      7  C   UNL     1       2.984  -0.247  -0.031  0.00  0.00    +0.055 C 
ATOM      8  C   UNL     1      -2.984   0.247  -0.031  0.00  0.00    +0.055 C 
ATOM      9  C   UNL     1       2.692   1.124  -0.030  0.00  0.00    +0.052 C 
ATOM     10  C   UNL     1      -2.692  -1.124  -0.030  0.00  0.00    +0.052 C 
ATOM     11  C   UNL     1       1.690  -0.954  -0.034  0.00  0.00    +0.211 C 
ATOM     12  C   UNL     1      -1.690   0.954  -0.034  0.00  0.00    +0.211 C 
ATOM     13  C   UNL     1       4.269  -0.746  -0.030  0.00  0.00    +0.023 C 
ATOM     14  C   UNL     1      -4.269   0.746  -0.030  0.00  0.00    +0.023 C 
ATOM     15  C   UNL     1       3.715   2.049  -0.028  0.00  0.00    +0.016 C 
ATOM     16  C   UNL     1      -3.715  -2.049  -0.028  0.00  0.00    +0.016 C 
ATOM     17  C   UNL     1       5.305   0.189  -0.029  0.00  0.00    +0.113 C 
ATOM     18  C   UNL     1      -5.305  -0.189  -0.029  0.00  0.00    +0.113 C 
ATOM     19  C   UNL     1       5.031   1.571  -0.028  0.00  0.00    +0.020 C 
ATOM     20  C   UNL     1      -5.031  -1.571  -0.028  0.00  0.00    +0.020 C 
ATOM     21  H   UNL     1       0.886   2.220  -0.031  0.00  0.00    +0.152 HD
ATOM     22  H   UNL     1      -0.886  -2.220  -0.031  0.00  0.00    +0.152 HD
ENDROOT
BRANCH  17  23
ATOM     23  S   UNL     1       6.964  -0.360  -0.030  0.00  0.00    +0.042 S 
ATOM     24  O   UNL     1       7.371  -0.496   1.547  0.00  0.00    -0.065 OA
ATOM     25  O   UNL     1       6.992  -1.702  -0.593  0.00  0.00    -0.065 OA
ATOM     26  O   UNL     1       7.761   0.707  -0.614  0.00  0.00    -0.065 OA
ENDBRANCH  17  23
BRANCH  18  27
ATOM     27  S   UNL     1      -6.964   0.360  -0.030  0.00  0.00    +0.042 S 
ATOM     28  O   UNL     1      -7.371   0.496   1.547  0.00  0.00    -0.065 OA
ATOM     29  O   UNL     1      -6.992   1.702  -0.593  0.00  0.00    -0.065 OA
ATOM     30  O   UNL     1      -7.761  -0.707  -0.614  0.00  0.00    -0.065 OA
ENDBRANCH  18  27
TORSDOF 2
