REMARK  Name = 15443
REMARK  5 active torsions:
REMARK  status: ('A' for Active; 'I' for Inactive)
REMARK    1  A    between atoms: N_1  and  C_14
REMARK    2  A    between atoms: C_14  and  C_15
REMARK    3  A    between atoms: C_15  and  C_16
REMARK    4  A    between atoms: C_16  and  C_18
REMARK    5  A    between atoms: C_18  and  C_20
REMARK                            x       y       z     vdW  Elec       q    Type
REMARK                         _______ _______ _______ _____ _____    ______ ____
ROOT
ATOM      1  N   UNL     1       0.833  -1.946   0.466  0.00  0.00    +0.389 N 
ATOM      2  N   UNL     1       3.178  -0.366   0.060  0.00  0.00    -0.298 N 
ATOM      3  C   UNL     1       1.167  -1.441  -0.871  0.00  0.00    -0.055 C 
ATOM      4  C   UNL     1       2.064  -2.239   1.211  0.00  0.00    -0.055 C 
ATOM      5  C   UNL     1       1.997  -0.158  -0.784  0.00  0.00    +0.069 C 
ATOM      6  C   UNL     1       2.923  -0.983   1.368  0.00  0.00    +0.069 C 
ATOM      7  H   UNL     1       0.308  -1.229   0.967  0.00  0.00    -0.080 HD
ATOM      8  N   UNL     1       4.693   1.225   1.020  0.00  0.00    -0.229 NA
ATOM      9  C   UNL     1       4.276   0.494  -0.059  0.00  0.00    +0.132 C 
ATOM     10  C   UNL     1       4.924   0.581  -1.299  0.00  0.00    +0.034 C 
ATOM     11  C   UNL     1       6.017   1.431  -1.433  0.00  0.00    +0.004 C 
ATOM     12  C   UNL     1       5.759   2.039   0.852  0.00  0.00    +0.100 C 
ATOM     13  C   UNL     1       6.449   2.177  -0.342  0.00  0.00    +0.021 C 
ENDROOT
BRANCH   1  14
ATOM     14  C   UNL     1      -0.004  -3.141   0.370  0.00  0.00    -0.077 C 
BRANCH  14  15
ATOM     15  C   UNL     1      -1.315  -2.812  -0.349  0.00  0.00    -0.015 C 
BRANCH  15  16
ATOM     16  C   UNL     1      -2.122  -1.734   0.380  0.00  0.00    +0.067 C 
BRANCH  16  18
ATOM     17  O   UNL     1      -4.085  -2.291  -0.909  0.00  0.00    -0.291 OA
ATOM     18  C   UNL     1      -3.466  -1.442  -0.271  0.00  0.00    +0.173 C 
BRANCH  18  20
ATOM     19  F   UNL     1      -5.684   3.646   0.340  0.00  0.00    -0.204 F 
ATOM     20  C   UNL     1      -4.059  -0.084  -0.107  0.00  0.00    +0.035 C 
ATOM     21  C   UNL     1      -3.779   0.626   1.039  0.00  0.00    +0.005 C 
ATOM     22  C   UNL     1      -4.864   0.411  -1.109  0.00  0.00    +0.005 C 
ATOM     23  C   UNL     1      -4.332   1.897   1.191  0.00  0.00    +0.030 C 
ATOM     24  C   UNL     1      -5.418   1.683  -0.956  0.00  0.00    +0.030 C 
ATOM     25  C   UNL     1      -5.152   2.425   0.194  0.00  0.00    +0.140 C 
ENDBRANCH  18  20
ENDBRANCH  16  18
ENDBRANCH  15  16
ENDBRANCH  14  15
ENDBRANCH   1  14
TORSDOF 5
