REMARK  Name = 59174488
REMARK  8 active torsions:
REMARK  status: ('A' for Active; 'I' for Inactive)
REMARK    1  A    between atoms: N_2  and  C_12
REMARK    2  A    between atoms: N_3  and  C_24
REMARK    3  A    between atoms: C_14  and  N_19
REMARK    4  A    between atoms: C_20  and  C_22
REMARK    5  A    between atoms: C_25  and  O_30
REMARK    6  A    between atoms: O_30  and  C_31
REMARK    7  A    between atoms: C_31  and  C_32
REMARK    8  A    between atoms: C_32  and  O_33
REMARK                            x       y       z     vdW  Elec       q    Type
REMARK                         _______ _______ _______ _____ _____    ______ ____
ROOT
ATOM      1  F   UNL     1       5.981   0.130   0.097  0.00  0.00    -0.198 F 
ATOM      2  N   UNL     1       3.526   1.258   0.666  0.00  0.00    -0.285 N 
ATOM      3  N   UNL     1       1.506  -2.940  -0.114  0.00  0.00    -0.247 N 
ATOM      4  N   UNL     1       2.489  -0.849   0.277  0.00  0.00    -0.320 NA
ATOM      5  N   UNL     1       3.830  -2.751  -0.347  0.00  0.00    -0.167 NA
ATOM      6  C   UNL     1       3.619  -0.113   0.321  0.00  0.00    +0.226 C 
ATOM      7  C   UNL     1       2.665  -2.141  -0.059  0.00  0.00    +0.150 C 
ATOM      8  C   UNL     1       4.873  -0.618   0.047  0.00  0.00    +0.205 C 
ATOM      9  C   UNL     1       4.919  -1.956  -0.284  0.00  0.00    +0.145 C 
ATOM     10  H   UNL     1       4.325   1.607   1.122  0.00  0.00    +0.155 HD
ATOM     11  H   UNL     1       1.683  -3.876  -0.363  0.00  0.00    +0.165 HD
ENDROOT
BRANCH   2  12
ATOM     12  C   UNL     1       2.514   2.215   0.483  0.00  0.00    +0.051 C 
ATOM     13  C   UNL     1       1.323   1.859  -0.150  0.00  0.00    +0.029 C 
ATOM     14  C   UNL     1       0.319   2.810  -0.332  0.00  0.00    +0.052 C 
ATOM     15  C   UNL     1       2.700   3.521   0.936  0.00  0.00    +0.015 C 
ATOM     16  C   UNL     1       0.505   4.116   0.121  0.00  0.00    +0.015 C 
ATOM     17  C   UNL     1       1.696   4.472   0.755  0.00  0.00    +0.003 C 
BRANCH  14  19
ATOM     18  O   UNL     1      -0.566   0.177  -1.472  0.00  0.00    -0.270 OA
ATOM     19  N   UNL     1      -0.873   2.454  -0.965  0.00  0.00    -0.280 N 
ATOM     20  C   UNL     1      -1.236   1.203  -1.481  0.00  0.00    +0.250 C 
ATOM     21  H   UNL     1      -1.540   3.171  -1.062  0.00  0.00    +0.155 HD
BRANCH  20  22
ATOM     22  C   UNL     1      -2.600   1.231  -2.084  0.00  0.00    +0.058 C 
ATOM     23  C   UNL     1      -3.125   0.130  -2.630  0.00  0.00    +0.005 C 
ENDBRANCH  20  22
ENDBRANCH  14  19
ENDBRANCH   2  12
BRANCH   3  24
ATOM     24  C   UNL     1       0.143  -2.663   0.117  0.00  0.00    +0.058 C 
ATOM     25  C   UNL     1      -2.554  -2.112   0.572  0.00  0.00    +0.139 C 
ATOM     26  C   UNL     1      -0.223  -1.671   1.028  0.00  0.00    +0.018 C 
ATOM     27  C   UNL     1      -0.840  -3.379  -0.565  0.00  0.00    +0.018 C 
ATOM     28  C   UNL     1      -1.571  -1.395   1.255  0.00  0.00    +0.038 C 
ATOM     29  C   UNL     1      -2.189  -3.104  -0.338  0.00  0.00    +0.038 C 
BRANCH  25  30
ATOM     30  O   UNL     1      -3.870  -1.843   0.794  0.00  0.00    -0.473 OA
BRANCH  30  31
ATOM     31  C   UNL     1      -4.207  -0.505   1.159  0.00  0.00    +0.237 C 
BRANCH  31  32
ATOM     32  C   UNL     1      -5.594  -0.185   0.638  0.00  0.00    +0.189 C 
BRANCH  32  33
ATOM     33  O   UNL     1      -5.938   1.142   1.019  0.00  0.00    -0.347 OA
ATOM     34  C   UNL     1      -7.224   1.505   0.537  0.00  0.00    +0.174 C 
ENDBRANCH  32  33
ENDBRANCH  31  32
ENDBRANCH  30  31
ENDBRANCH  25  30
ENDBRANCH   3  24
TORSDOF 8
