REMARK  Name = 3058754
REMARK  6 active torsions:
REMARK  status: ('A' for Active; 'I' for Inactive)
REMARK    1  A    between atoms: N_1  and  C_15
REMARK    2  A    between atoms: C_3  and  C_7
REMARK    3  A    between atoms: C_5  and  C_29
REMARK    4  A    between atoms: C_12  and  O_13
REMARK    5  A    between atoms: C_18  and  S_21
REMARK    6  A    between atoms: S_21  and  N_24
REMARK                            x       y       z     vdW  Elec       q    Type
REMARK                         _______ _______ _______ _____ _____    ______ ____
ROOT
ATOM      1  N   UNL     1      -1.513   0.782  -0.026  0.00  0.00    -0.190 N 
ATOM      2  N   UNL     1      -2.518   1.671   0.049  0.00  0.00    -0.173 NA
ATOM      3  C   UNL     1      -1.927  -0.517  -0.095  0.00  0.00    +0.075 C 
ATOM      4  C   UNL     1      -3.301  -0.471  -0.062  0.00  0.00    +0.039 C 
ATOM      5  C   UNL     1      -3.608   0.900   0.026  0.00  0.00    +0.144 C 
ENDROOT
BRANCH   3   7
ATOM      6  F   UNL     1       0.690  -3.973   2.018  0.00  0.00    -0.201 F 
ATOM      7  C   UNL     1      -1.045  -1.655  -0.182  0.00  0.00    +0.018 C 
ATOM      8  C   UNL     1      -0.593  -2.278   0.981  0.00  0.00    +0.034 C 
ATOM      9  C   UNL     1      -0.644  -2.133  -1.430  0.00  0.00    +0.005 C 
ATOM     10  C   UNL     1       0.260  -3.378   0.896  0.00  0.00    +0.174 C 
ATOM     11  C   UNL     1       0.208  -3.234  -1.515  0.00  0.00    +0.039 C 
ATOM     12  C   UNL     1       0.660  -3.857  -0.351  0.00  0.00    +0.166 C 
BRANCH  12  13
ATOM     13  O   UNL     1       1.490  -4.931  -0.435  0.00  0.00    -0.469 OA
ATOM     14  C   UNL     1       2.893  -4.669  -0.449  0.00  0.00    +0.253 C 
ENDBRANCH  12  13
ENDBRANCH   3   7
BRANCH   1  15
ATOM     15  C   UNL     1      -0.193   1.237  -0.027  0.00  0.00    +0.074 C 
ATOM     16  C   UNL     1       0.807   0.435   0.508  0.00  0.00    +0.018 C 
ATOM     17  C   UNL     1       0.102   2.483  -0.563  0.00  0.00    +0.018 C 
ATOM     18  C   UNL     1       2.433   2.140  -0.029  0.00  0.00    +0.122 C 
ATOM     19  C   UNL     1       2.126   0.889   0.508  0.00  0.00    +0.021 C 
ATOM     20  C   UNL     1       1.421   2.936  -0.564  0.00  0.00    +0.021 C 
BRANCH  18  21
ATOM     21  S   UNL     1       4.084   2.707  -0.031  0.00  0.00    +0.057 S 
ATOM     22  O   UNL     1       4.967   1.550   0.018  0.00  0.00    -0.153 OA
ATOM     23  O   UNL     1       4.235   3.688  -1.097  0.00  0.00    -0.153 OA
BRANCH  21  24
ATOM     24  N   UNL     1       4.152   3.517   1.472  0.00  0.00    -0.203 NA
ATOM     25  H   UNL     1       5.084   3.908   1.606  0.00  0.00    +0.144 HD
ATOM     26  H   UNL     1       3.949   2.857   2.223  0.00  0.00    +0.144 HD
ENDBRANCH  21  24
ENDBRANCH  18  21
ENDBRANCH   1  15
BRANCH   5  29
ATOM     27  F   UNL     1      -5.145   2.387  -0.943  0.00  0.00    -0.191 F 
ATOM     28  F   UNL     1      -5.099   2.255   1.230  0.00  0.00    -0.191 F 
ATOM     29  C   UNL     1      -4.943   1.518   0.091  0.00  0.00    +0.360 C 
ENDBRANCH   5  29
TORSDOF 6
