REMARK  Name = 24795069
REMARK  9 active torsions:
REMARK  status: ('A' for Active; 'I' for Inactive)
REMARK    1  A    between atoms: C_2  and  C_31
REMARK    2  A    between atoms: C_4  and  O_20
REMARK    3  A    between atoms: C_13  and  O_16
REMARK    4  A    between atoms: C_14  and  O_18
REMARK    5  A    between atoms: O_20  and  C_22
REMARK    6  A    between atoms: C_22  and  C_23
REMARK    7  A    between atoms: C_23  and  N_24
REMARK    8  A    between atoms: C_23  and  C_28
REMARK    9  A    between atoms: C_31  and  C_32
REMARK                            x       y       z     vdW  Elec       q    Type
REMARK                         _______ _______ _______ _____ _____    ______ ____
ROOT
ATOM      1  N   UNL     1       0.544  -2.379  -0.003  0.00  0.00    +0.391 N 
ATOM      2  C   UNL     1      -1.900  -2.017  -0.050  0.00  0.00    +0.019 C 
ATOM      3  C   UNL     1       0.803  -1.061   0.630  0.00  0.00    -0.031 C 
ATOM      4  C   UNL     1      -1.696  -0.594   0.480  0.00  0.00    +0.165 C 
ATOM      5  C   UNL     1      -0.754  -2.929   0.410  0.00  0.00    -0.073 C 
ATOM      6  C   UNL     1      -0.291  -0.084   0.150  0.00  0.00    +0.027 C 
ATOM      7  C   UNL     1       1.624  -3.323   0.296  0.00  0.00    -0.072 C 
ATOM      8  C   UNL     1       2.214  -0.540   0.357  0.00  0.00    -0.042 C 
ATOM      9  C   UNL     1       2.900  -2.857  -0.402  0.00  0.00    +0.003 C 
ATOM     10  C   UNL     1       3.216  -1.414  -0.110  0.00  0.00    -0.027 C 
ATOM     11  C   UNL     1       2.572   0.787   0.649  0.00  0.00    +0.033 C 
ATOM     12  C   UNL     1       4.515  -0.938  -0.346  0.00  0.00    +0.035 C 
ATOM     13  C   UNL     1       3.870   1.249   0.424  0.00  0.00    +0.172 C 
ATOM     14  C   UNL     1       4.840   0.389  -0.081  0.00  0.00    +0.172 C 
ATOM     15  H   UNL     1       0.514  -2.235  -1.012  0.00  0.00    -0.079 HD
ENDROOT
BRANCH  13  16
ATOM     16  O   UNL     1       4.176   2.546   0.707  0.00  0.00    -0.468 OA
ATOM     17  C   UNL     1       4.001   3.497  -0.341  0.00  0.00    +0.253 C 
ENDBRANCH  13  16
BRANCH  14  18
ATOM     18  O   UNL     1       6.108   0.829  -0.309  0.00  0.00    -0.468 OA
ATOM     19  C   UNL     1       7.039  -0.118  -0.828  0.00  0.00    +0.253 C 
ENDBRANCH  14  18
BRANCH   4  20
ATOM     20  O   UNL     1      -2.660   0.275  -0.107  0.00  0.00    -0.454 OA
BRANCH  20  22
ATOM     21  O   UNL     1      -2.643   1.583   1.791  0.00  0.00    -0.252 OA
ATOM     22  C   UNL     1      -3.053   1.338   0.664  0.00  0.00    +0.296 C 
BRANCH  22  23
ATOM     23  C   UNL     1      -4.074   2.170  -0.098  0.00  0.00    +0.036 C 
BRANCH  23  24
ATOM     24  N   UNL     1      -5.045   2.701   0.860  0.00  0.00    +0.389 N 
ATOM     25  H   UNL     1      -5.455   1.932   1.390  0.00  0.00    -0.088 HD
ATOM     26  H   UNL     1      -5.780   3.200   0.359  0.00  0.00    -0.088 HD
ATOM     27  H   UNL     1      -4.575   3.342   1.500  0.00  0.00    -0.088 HD
ENDBRANCH  23  24
BRANCH  23  28
ATOM     28  C   UNL     1      -3.400   3.272  -0.948  0.00  0.00    -0.010 C 
ATOM     29  C   UNL     1      -2.494   2.667  -2.025  0.00  0.00    -0.002 C 
ATOM     30  C   UNL     1      -2.607   4.289  -0.118  0.00  0.00    -0.002 C 
ENDBRANCH  23  28
ENDBRANCH  22  23
ENDBRANCH  20  22
ENDBRANCH   4  20
BRANCH   2  31
ATOM     31  C   UNL     1      -3.251  -2.587   0.391  0.00  0.00    +0.001 C 
BRANCH  31  32
ATOM     32  C   UNL     1      -4.442  -1.977  -0.360  0.00  0.00    +0.000 C 
ATOM     33  C   UNL     1      -4.364  -2.210  -1.870  0.00  0.00    +0.000 C 
ATOM     34  C   UNL     1      -5.746  -2.563   0.187  0.00  0.00    +0.000 C 
ENDBRANCH  31  32
ENDBRANCH   2  31
TORSDOF 9
