REMARK  Name = 11001318
REMARK  3 active torsions:
REMARK  status: ('A' for Active; 'I' for Inactive)
REMARK    1  A    between atoms: C_5  and  C_12
REMARK    2  A    between atoms: C_8  and  C_19
REMARK    3  A    between atoms: C_19  and  O_20
REMARK                            x       y       z     vdW  Elec       q    Type
REMARK                         _______ _______ _______ _____ _____    ______ ____
ROOT
ATOM      1  O   UNL     1       0.139   0.696   0.002  0.00  0.00    -0.425 OA
ATOM      2  N   UNL     1      -0.066  -1.561   0.000  0.00  0.00    -0.368 NA
ATOM      3  C   UNL     1       1.395   0.159   0.001  0.00  0.00    +0.174 C 
ATOM      4  C   UNL     1       1.265  -1.222   0.000  0.00  0.00    +0.151 C 
ATOM      5  C   UNL     1      -0.676  -0.396   0.002  0.00  0.00    +0.282 C 
ATOM      6  C   UNL     1       2.605   0.841   0.001  0.00  0.00    +0.046 C 
ATOM      7  C   UNL     1       2.424  -2.011  -0.001  0.00  0.00    +0.088 C 
ATOM      8  C   UNL     1       3.752   0.039   0.000  0.00  0.00    +0.075 C 
ATOM      9  C   UNL     1       3.665  -1.359  -0.001  0.00  0.00    -0.012 C 
ENDROOT
BRANCH   5  12
ATOM     10 CL   UNL     1      -5.525  -2.154  -0.001  0.00  0.00    -0.082 Cl
ATOM     11 CL   UNL     1      -4.438   3.132  -0.002  0.00  0.00    -0.082 Cl
ATOM     12  C   UNL     1      -2.083  -0.107   0.001  0.00  0.00    +0.068 C 
ATOM     13  C   UNL     1      -2.529   1.218   0.000  0.00  0.00    +0.017 C 
ATOM     14  C   UNL     1      -3.015  -1.148   0.000  0.00  0.00    +0.017 C 
ATOM     15  C   UNL     1      -4.382  -0.868   0.000  0.00  0.00    +0.059 C 
ATOM     16  C   UNL     1      -3.895   1.499   0.000  0.00  0.00    +0.059 C 
ATOM     17  C   UNL     1      -4.822   0.456  -0.001  0.00  0.00    +0.023 C 
ENDBRANCH   5  12
BRANCH   8  19
ATOM     18  O   UNL     1       6.144   0.079  -0.001  0.00  0.00    -0.245 OA
ATOM     19  C   UNL     1       5.061   0.673   0.000  0.00  0.00    +0.338 C 
BRANCH  19  20
ATOM     20  O   UNL     1       4.981   2.032   0.000  0.00  0.00    -0.477 OA
ATOM     21  H   UNL     1       4.143   2.451   0.000  0.00  0.00    +0.295 HD
ENDBRANCH  19  20
ENDBRANCH   8  19
TORSDOF 3
