REMARK  Name = 1923
REMARK  1 active torsions:
REMARK  status: ('A' for Active; 'I' for Inactive)
REMARK    1  A    between atoms: C_4  and  O_11
REMARK                            x       y       z     vdW  Elec       q    Type
REMARK                         _______ _______ _______ _____ _____    ______ ____
ROOT
ATOM      1  N   UNL     1       1.016   1.400   0.000  0.00  0.00    -0.241 NA
ATOM      2  C   UNL     1       0.323  -0.908   0.000  0.00  0.00    +0.021 C 
ATOM      3  C   UNL     1       0.039   0.473   0.000  0.00  0.00    +0.115 C 
ATOM      4  C   UNL     1      -1.297   0.867   0.000  0.00  0.00    +0.151 C 
ATOM      5  C   UNL     1      -0.722  -1.848   0.000  0.00  0.00    +0.002 C 
ATOM      6  C   UNL     1       1.667  -1.306   0.000  0.00  0.00    +0.003 C 
ATOM      7  C   UNL     1      -2.336  -0.067   0.000  0.00  0.00    +0.038 C 
ATOM      8  C   UNL     1      -2.048  -1.427   0.000  0.00  0.00    +0.003 C 
ATOM      9  C   UNL     1       2.676  -0.353   0.000  0.00  0.00    +0.021 C 
ATOM     10  C   UNL     1       2.300   0.975   0.000  0.00  0.00    +0.099 C 
ENDROOT
BRANCH   4  11
ATOM     11  O   UNL     1      -1.620   2.195   0.000  0.00  0.00    -0.504 OA
ATOM     12  H   UNL     1      -0.942   2.842   0.000  0.00  0.00    +0.292 HD
ENDBRANCH   4  11
TORSDOF 1
