REMARK  Name = 204
REMARK  1 active torsions:
REMARK  status: ('A' for Active; 'I' for Inactive)
REMARK    1  A    between atoms: C_5  and  N_11
REMARK                            x       y       z     vdW  Elec       q    Type
REMARK                         _______ _______ _______ _____ _____    ______ ____
ROOT
ATOM      1  O   UNL     1       0.026  -2.099  -0.249  0.00  0.00    -0.271 OA
ATOM      2  O   UNL     1      -3.426   0.919  -0.167  0.00  0.00    -0.252 OA
ATOM      3  N   UNL     1      -1.187   1.066   0.496  0.00  0.00    -0.267 N 
ATOM      4  N   UNL     1      -1.938  -0.862  -0.328  0.00  0.00    -0.237 N 
ATOM      5  C   UNL     1      -0.039   0.203   0.545  0.00  0.00    +0.229 C 
ATOM      6  C   UNL     1      -0.609  -1.075  -0.046  0.00  0.00    +0.267 C 
ATOM      7  C   UNL     1      -2.317   0.426  -0.019  0.00  0.00    +0.308 C 
ATOM      8  H   UNL     1      -1.179   2.005   0.792  0.00  0.00    +0.153 HD
ATOM      9  H   UNL     1      -2.541  -1.543  -0.704  0.00  0.00    +0.159 HD
ENDROOT
BRANCH   5  11
ATOM     10  O   UNL     1       2.770  -0.404   0.931  0.00  0.00    -0.253 OA
ATOM     11  N   UNL     1       1.061   0.647  -0.251  0.00  0.00    -0.268 N 
ATOM     12  N   UNL     1       3.265   0.868  -0.915  0.00  0.00    -0.313 N 
ATOM     13  C   UNL     1       2.393   0.309   0.003  0.00  0.00    +0.299 C 
ATOM     14  H   UNL     1       0.870   1.226  -1.024  0.00  0.00    +0.153 HD
ATOM     15  H   UNL     1       4.232   0.701  -0.840  0.00  0.00    +0.146 HD
ATOM     16  H   UNL     1       2.918   1.433  -1.643  0.00  0.00    +0.146 HD
ENDBRANCH   5  11
TORSDOF 1
