REMARK  Name = 119584
REMARK  8 active torsions:
REMARK  status: ('A' for Active; 'I' for Inactive)
REMARK    1  A    between atoms: N_2  and  C_18
REMARK    2  A    between atoms: C_3  and  C_6
REMARK    3  A    between atoms: C_7  and  O_15
REMARK    4  A    between atoms: C_11  and  N_12
REMARK    5  A    between atoms: O_15  and  C_16
REMARK    6  A    between atoms: C_18  and  C_21
REMARK    7  A    between atoms: N_20  and  C_26
REMARK    8  A    between atoms: C_26  and  C_28
REMARK                            x       y       z     vdW  Elec       q    Type
REMARK                         _______ _______ _______ _____ _____    ______ ____
ROOT
ATOM      1  O   UNL     1       0.819   2.316   1.931  0.00  0.00    -0.270 OA
ATOM      2  N   UNL     1       0.055   2.247  -0.259  0.00  0.00    -0.299 N 
ATOM      3  C   UNL     1       0.957   1.962   0.763  0.00  0.00    +0.249 C 
ATOM      4  H   UNL     1       0.251   1.919  -1.166  0.00  0.00    +0.150 HD
ENDROOT
BRANCH   3   6
ATOM      5 CL   UNL     1       5.925   0.975   1.646  0.00  0.00    -0.081 Cl
ATOM      6  C   UNL     1       2.169   1.195   0.375  0.00  0.00    +0.088 C 
ATOM      7  C   UNL     1       2.108   0.301  -0.675  0.00  0.00    +0.144 C 
ATOM      8  C   UNL     1       3.330   1.409   1.091  0.00  0.00    +0.020 C 
ATOM      9  C   UNL     1       3.257  -0.409  -1.024  0.00  0.00    +0.052 C 
ATOM     10  C   UNL     1       4.478   0.699   0.743  0.00  0.00    +0.071 C 
ATOM     11  C   UNL     1       4.442  -0.210  -0.315  0.00  0.00    +0.055 C 
BRANCH  11  12
ATOM     12  N   UNL     1       5.589  -0.945  -0.692  0.00  0.00    -0.356 N 
ATOM     13  H   UNL     1       5.541  -1.581  -1.442  0.00  0.00    +0.142 HD
ATOM     14  H   UNL     1       6.436  -0.820  -0.205  0.00  0.00    +0.142 HD
ENDBRANCH  11  12
BRANCH   7  15
ATOM     15  O   UNL     1       0.960   0.093  -1.379  0.00  0.00    -0.475 OA
BRANCH  15  16
ATOM     16  C   UNL     1       1.099  -0.277  -2.749  0.00  0.00    +0.206 C 
ATOM     17  C   UNL     1      -0.103   0.224  -3.521  0.00  0.00    +0.051 C 
ENDBRANCH  15  16
ENDBRANCH   7  15
ENDBRANCH   3   6
BRANCH   2  18
ATOM     18  C   UNL     1      -1.147   2.998  -0.047  0.00  0.00    +0.117 C 
BRANCH  18  21
ATOM     19  O   UNL     1      -3.531   2.996  -0.174  0.00  0.00    -0.359 OA
ATOM     20  N   UNL     1      -3.695   0.170   0.115  0.00  0.00    +0.393 N 
ATOM     21  C   UNL     1      -2.379   2.179  -0.408  0.00  0.00    +0.114 C 
ATOM     22  C   UNL     1      -2.464   0.905   0.441  0.00  0.00    -0.045 C 
ATOM     23  C   UNL     1      -4.865   1.032   0.325  0.00  0.00    -0.044 C 
ATOM     24  C   UNL     1      -4.731   2.300  -0.514  0.00  0.00    +0.119 C 
ATOM     25  H   UNL     1      -3.662  -0.103  -0.867  0.00  0.00    -0.079 HD
BRANCH  20  26
ATOM     26  C   UNL     1      -3.799  -1.049   0.915  0.00  0.00    -0.050 C 
BRANCH  26  28
ATOM     27  F   UNL     1       0.637  -4.422   0.183  0.00  0.00    -0.204 F 
ATOM     28  C   UNL     1      -2.610  -1.952   0.719  0.00  0.00    -0.043 C 
ATOM     29  C   UNL     1      -2.640  -2.912  -0.282  0.00  0.00    -0.004 C 
ATOM     30  C   UNL     1      -1.502  -1.811   1.542  0.00  0.00    -0.004 C 
ATOM     31  C   UNL     1      -1.539  -3.749  -0.464  0.00  0.00    +0.029 C 
ATOM     32  C   UNL     1      -0.401  -2.648   1.360  0.00  0.00    +0.029 C 
ATOM     33  C   UNL     1      -0.420  -3.618   0.357  0.00  0.00    +0.140 C 
ENDBRANCH  26  28
ENDBRANCH  20  26
ENDBRANCH  18  21
ENDBRANCH   2  18
TORSDOF 8
