REMARK  Name = 64782
REMARK  4 active torsions:
REMARK  status: ('A' for Active; 'I' for Inactive)
REMARK    1  A    between atoms: C_1  and  C_2
REMARK    2  A    between atoms: C_1  and  O_8
REMARK    3  A    between atoms: C_1  and  C_10
REMARK    4  A    between atoms: C_10  and  N_12
REMARK                            x       y       z     vdW  Elec       q    Type
REMARK                         _______ _______ _______ _____ _____    ______ ____
ROOT
ATOM      1  C   UNL     1       0.483   0.705  -0.244  0.00  0.00    +0.114 C 
ENDROOT
BRANCH   1   2
ATOM      2  C   UNL     1      -0.964   0.264  -0.186  0.00  0.00    +0.002 C 
ATOM      3  C   UNL     1      -1.935   1.183   0.172  0.00  0.00    -0.002 C 
ATOM      4  C   UNL     1      -1.284  -1.047  -0.492  0.00  0.00    -0.002 C 
ATOM      5  C   UNL     1      -3.269   0.776   0.226  0.00  0.00    -0.000 C 
ATOM      6  C   UNL     1      -2.617  -1.453  -0.438  0.00  0.00    -0.000 C 
ATOM      7  C   UNL     1      -3.610  -0.541  -0.079  0.00  0.00    -0.000 C 
ENDBRANCH   1   2
BRANCH   1   8
ATOM      8  O   UNL     1       0.628   1.771   0.699  0.00  0.00    -0.382 OA
ATOM      9  H   UNL     1       1.546   2.084   0.693  0.00  0.00    +0.211 HD
ENDBRANCH   1   8
BRANCH   1  10
ATOM     10  C   UNL     1       1.489  -0.424   0.075  0.00  0.00    -0.026 C 
ATOM     11  C   UNL     1       1.325  -0.974   1.493  0.00  0.00    -0.020 C 
BRANCH  10  12
ATOM     12  N   UNL     1       2.860   0.087  -0.058  0.00  0.00    +0.387 N 
ATOM     13  C   UNL     1       3.070   0.626  -1.399  0.00  0.00    -0.101 C 
ATOM     14  C   UNL     1       3.823  -0.972   0.230  0.00  0.00    -0.101 C 
ATOM     15  H   UNL     1       2.998   0.839   0.617  0.00  0.00    -0.080 HD
ENDBRANCH  10  12
ENDBRANCH   1  10
TORSDOF 4
