2871
  -OEChem-10051722113D

 38 39  0     0  0  0  0  0  0999 V2000
    5.9992    0.3437    0.1474 Cl  0  0  0  0  0  0  0  0  0  0  0  0
   -2.7165    0.3480    2.3717 S   0  0  0  0  0  0  0  0  0  0  0  0
   -2.9682    0.1398    0.4489 P   0  0  0  0  0  0  0  0  0  0  0  0
   -1.9962   -0.9221   -0.3085 O   0  0  0  0  0  0  0  0  0  0  0  0
    2.1504    1.3821    0.1400 O   0  0  0  0  0  0  0  0  0  0  0  0
   -4.4375   -0.3794   -0.0239 O   0  0  0  0  0  0  0  0  0  0  0  0
   -2.7986    1.4689   -0.4742 O   0  0  0  0  0  0  0  0  0  0  0  0
    4.0964    2.5366    0.3604 O   0  0  0  0  0  0  0  0  0  0  0  0
    2.1870   -1.0361   -0.1684 C   0  0  0  0  0  0  0  0  0  0  0  0
    1.4817    0.1591   -0.0416 C   0  0  0  0  0  0  0  0  0  0  0  0
    3.6631   -1.0063   -0.1101 C   0  0  0  0  0  0  0  0  0  0  0  0
   -0.6375   -0.9566   -0.2631 C   0  0  0  0  0  0  0  0  0  0  0  0
    0.0865    0.2167   -0.0858 C   0  0  0  0  0  0  0  0  0  0  0  0
    1.4351   -2.2078   -0.3461 C   0  0  0  0  0  0  0  0  0  0  0  0
    0.0363   -2.1682   -0.3929 C   0  0  0  0  0  0  0  0  0  0  0  0
    4.2736    0.1808    0.0646 C   0  0  0  0  0  0  0  0  0  0  0  0
    4.3875   -2.3220   -0.2533 C   0  0  0  0  0  0  0  0  0  0  0  0
    3.5330    1.4588    0.2006 C   0  0  0  0  0  0  0  0  0  0  0  0
   -4.8549   -1.6974    0.2902 C   0  0  0  0  0  0  0  0  0  0  0  0
   -3.5037    2.6525   -0.1410 C   0  0  0  0  0  0  0  0  0  0  0  0
   -6.2472   -1.9183   -0.2616 C   0  0  0  0  0  0  0  0  0  0  0  0
   -3.1695    3.7272   -1.1534 C   0  0  0  0  0  0  0  0  0  0  0  0
   -0.3971    1.1818    0.0122 H   0  0  0  0  0  0  0  0  0  0  0  0
    1.9133   -3.1781   -0.4522 H   0  0  0  0  0  0  0  0  0  0  0  0
   -0.5204   -3.0915   -0.5311 H   0  0  0  0  0  0  0  0  0  0  0  0
    4.0944   -3.0109    0.5467 H   0  0  0  0  0  0  0  0  0  0  0  0
    5.4756   -2.2342   -0.2026 H   0  0  0  0  0  0  0  0  0  0  0  0
    4.1585   -2.7833   -1.2204 H   0  0  0  0  0  0  0  0  0  0  0  0
   -4.8584   -1.8324    1.3758 H   0  0  0  0  0  0  0  0  0  0  0  0
   -4.1589   -2.4161   -0.1526 H   0  0  0  0  0  0  0  0  0  0  0  0
   -3.2106    2.9897    0.8572 H   0  0  0  0  0  0  0  0  0  0  0  0
   -4.5785    2.4465   -0.1455 H   0  0  0  0  0  0  0  0  0  0  0  0
   -6.2593   -1.7728   -1.3468 H   0  0  0  0  0  0  0  0  0  0  0  0
   -6.6010   -2.9284   -0.0369 H   0  0  0  0  0  0  0  0  0  0  0  0
   -6.9499   -1.1946    0.1643 H   0  0  0  0  0  0  0  0  0  0  0  0
   -3.4430    3.4036   -2.1632 H   0  0  0  0  0  0  0  0  0  0  0  0
   -2.0926    3.9254   -1.1637 H   0  0  0  0  0  0  0  0  0  0  0  0
   -3.6979    4.6571   -0.9255 H   0  0  0  0  0  0  0  0  0  0  0  0
  1 16  1  0  0  0  0
  2  3  2  0  0  0  0
  3  4  1  0  0  0  0
  3  6  1  0  0  0  0
  3  7  1  0  0  0  0
  4 12  1  0  0  0  0
  5 10  1  0  0  0  0
  5 18  1  0  0  0  0
  6 19  1  0  0  0  0
  7 20  1  0  0  0  0
  8 18  2  0  0  0  0
  9 10  2  0  0  0  0
  9 11  1  0  0  0  0
  9 14  1  0  0  0  0
 10 13  1  0  0  0  0
 11 16  2  0  0  0  0
 11 17  1  0  0  0  0
 12 13  2  0  0  0  0
 12 15  1  0  0  0  0
 13 23  1  0  0  0  0
 14 15  2  0  0  0  0
 14 24  1  0  0  0  0
 15 25  1  0  0  0  0
 16 18  1  0  0  0  0
 17 26  1  0  0  0  0
 17 27  1  0  0  0  0
 17 28  1  0  0  0  0
 19 21  1  0  0  0  0
 19 29  1  0  0  0  0
 19 30  1  0  0  0  0
 20 22  1  0  0  0  0
 20 31  1  0  0  0  0
 20 32  1  0  0  0  0
 21 33  1  0  0  0  0
 21 34  1  0  0  0  0
 21 35  1  0  0  0  0
 22 36  1  0  0  0  0
 22 37  1  0  0  0  0
 22 38  1  0  0  0  0
M  END
> <DATABASE_ID>
DB11390

> <DATABASE_NAME>
drugbank

> <ORIGINAL_SOURCE>
PUBCHEM

> <ORIGINAL_SOURCE_URL>
https://pubchem.ncbi.nlm.nih.gov/rest/pug/compound/inchikey/BXNANOICGRISHX-UHFFFAOYSA-N/SDF?record_type=3d

> <SMILES>
CCOP(=S)(OCC)OC1=CC2=C(C=C1)C(C)=C(Cl)C(=O)O2

> <INCHI_IDENTIFIER>
InChI=1S/C14H16ClO5PS/c1-4-17-21(22,18-5-2)20-10-6-7-11-9(3)13(15)14(16)19-12(11)8-10/h6-8H,4-5H2,1-3H3

> <INCHI_KEY>
BXNANOICGRISHX-UHFFFAOYSA-N

> <FORMULA>
C14H16ClO5PS

> <MOLECULAR_WEIGHT>
362.766

> <EXACT_MASS>
362.014458531

> <JCHEM_ACCEPTOR_COUNT>
1

> <JCHEM_ATOM_COUNT>
38

> <JCHEM_AVERAGE_POLARIZABILITY>
34.607097180215796

> <JCHEM_BIOAVAILABILITY>
1

> <JCHEM_DONOR_COUNT>
0

> <JCHEM_FORMAL_CHARGE>
0

> <JCHEM_GHOSE_FILTER>
1

> <JCHEM_IUPAC>
O-3-chloro-4-methyl-2-oxo-2H-chromen-7-yl O,O-diethyl phosphorothioate

> <ALOGPS_LOGP>
4.50

> <JCHEM_LOGP>
4.1455163420000005

> <ALOGPS_LOGS>
-5.39

> <JCHEM_MDDR_LIKE_RULE>
0

> <JCHEM_NUMBER_OF_RINGS>
2

> <JCHEM_PHYSIOLOGICAL_CHARGE>
0

> <JCHEM_PKA_STRONGEST_BASIC>
-7.3375432749527505

> <JCHEM_POLAR_SURFACE_AREA>
53.99000000000001

> <JCHEM_REFRACTIVITY>
89.92840000000002

> <JCHEM_ROTATABLE_BOND_COUNT>
6

> <JCHEM_RULE_OF_FIVE>
1

> <ALOGPS_SOLUBILITY>
1.48e-03 g/l

> <JCHEM_TRADITIONAL_IUPAC>
O-3-chloro-4-methyl-2-oxochromen-7-yl O,O-diethyl phosphorothioate

> <JCHEM_VEBER_RULE>
0

> <DRUGBANK_ID>
DB11390

> <DRUG_GROUPS>
vet_approved

> <GENERIC_NAME>
Coumaphos

> <SYNONYMS>
3-Chloro-4-methyl-7-coumarinyl diethyl phosphorothioate; 3-Chloro-4-methyl-7-hydroxycoumarin diethyl thiophosphoric acid ester; 3-Chloro-7-diethoxyphosphinothioyloxy-4-methylcoumarin; 3-Chloro-7-hydroxy-4-methyl-coumarin O,O-diethyl phosphorothioate; Coumafos; Coumaphos; O-(3-chloro-4-methyl-2-oxo-2H-chromen-7-yl) O,O-diethyl thiophosphate; O,O-Diethyl 3-chloro-4-methyl-7-umbelliferone thiophosphate; O,O-Diethyl O-(3-chloro-4-methyl-2-oxo-2H-1-benzopyran-7-yl)phosphorothioate; Phosphorothioic acid, O-(3-chloro-4-methyl-2-oxo-2H-1-benzopyran-7-yl) O,O-diethyl ester

> <INTERNATIONAL_BRANDS>
Meldane

$$$$
