REMARK  Name = 456389
REMARK  4 active torsions:
REMARK  status: ('A' for Active; 'I' for Inactive)
REMARK    1  A    between atoms: C_3  and  C_18
REMARK    2  A    between atoms: C_4  and  N_11
REMARK    3  A    between atoms: C_18  and  C_20
REMARK    4  A    between atoms: C_18  and  C_27
REMARK                            x       y       z     vdW  Elec       q    Type
REMARK                         _______ _______ _______ _____ _____    ______ ____
ROOT
ATOM      1 CL   UNL     1      -0.534   2.498  -2.287  0.00  0.00    -0.082 Cl
ATOM      2 CL   UNL     1      -1.456  -0.459   2.200  0.00  0.00    -0.082 Cl
ATOM      3  C   UNL     1      -0.840   0.975  -0.041  0.00  0.00    +0.017 C 
ATOM      4  C   UNL     1       1.809   0.224   0.009  0.00  0.00    +0.080 C 
ATOM      5  C   UNL     1       0.001   1.450  -1.024  0.00  0.00    +0.057 C 
ATOM      6  C   UNL     1      -0.408   0.140   0.965  0.00  0.00    +0.057 C 
ATOM      7  C   UNL     1       1.343   1.069  -0.998  0.00  0.00    +0.028 C 
ATOM      8  C   UNL     1       0.934  -0.241   0.990  0.00  0.00    +0.028 C 
ENDROOT
BRANCH   4  11
ATOM      9  O   UNL     1       4.176   1.760  -0.890  0.00  0.00    -0.250 OA
ATOM     10  O   UNL     1       6.863  -1.780   0.226  0.00  0.00    -0.268 OA
ATOM     11  N   UNL     1       3.198  -0.170   0.035  0.00  0.00    -0.142 N 
ATOM     12  N   UNL     1       3.398  -1.406   0.596  0.00  0.00    -0.164 NA
ATOM     13  N   UNL     1       5.517   0.018  -0.380  0.00  0.00    -0.233 N 
ATOM     14  C   UNL     1       4.261   0.612  -0.447  0.00  0.00    +0.333 C 
ATOM     15  C   UNL     1       4.582  -1.907   0.656  0.00  0.00    +0.176 C 
ATOM     16  C   UNL     1       5.784  -1.218   0.141  0.00  0.00    +0.274 C 
ATOM     17  H   UNL     1       6.278   0.529  -0.739  0.00  0.00    +0.160 HD
ENDBRANCH   4  11
BRANCH   3  18
ATOM     18  C   UNL     1      -2.316   1.393  -0.069  0.00  0.00    +0.137 C 
BRANCH  18  20
ATOM     19 CL   UNL     1      -6.090  -3.237  -0.654  0.00  0.00    -0.082 Cl
ATOM     20  C   UNL     1      -3.253   0.242  -0.213  0.00  0.00    -0.004 C 
ATOM     21  C   UNL     1      -2.808  -0.954  -0.777  0.00  0.00    -0.002 C 
ATOM     22  C   UNL     1      -4.576   0.362   0.214  0.00  0.00    -0.002 C 
ATOM     23  C   UNL     1      -3.685  -2.030  -0.913  0.00  0.00    +0.011 C 
ATOM     24  C   UNL     1      -5.453  -0.714   0.078  0.00  0.00    +0.011 C 
ATOM     25  C   UNL     1      -5.008  -1.910  -0.485  0.00  0.00    +0.058 C 
ENDBRANCH  18  20
BRANCH  18  27
ATOM     26  N   UNL     1      -2.841   2.988   1.984  0.00  0.00    -0.195 NA
ATOM     27  C   UNL     1      -2.600   2.294   1.085  0.00  0.00    +0.081 C 
ENDBRANCH  18  27
ENDBRANCH   3  18
TORSDOF 4
