REMARK  Name = 460
REMARK  2 active torsions:
REMARK  status: ('A' for Active; 'I' for Inactive)
REMARK    1  A    between atoms: C_1  and  O_7
REMARK    2  A    between atoms: C_2  and  O_9
REMARK                            x       y       z     vdW  Elec       q    Type
REMARK                         _______ _______ _______ _____ _____    ______ ____
ROOT
ATOM      1  C   UNL     1       0.572  -0.022   0.000  0.00  0.00    +0.172 C 
ATOM      2  C   UNL     1      -0.404  -1.018   0.000  0.00  0.00    +0.168 C 
ATOM      3  C   UNL     1       0.198   1.322   0.000  0.00  0.00    +0.040 C 
ATOM      4  C   UNL     1      -1.755  -0.670   0.000  0.00  0.00    +0.040 C 
ATOM      5  C   UNL     1      -1.153   1.669   0.000  0.00  0.00    +0.003 C 
ATOM      6  C   UNL     1      -2.130   0.673   0.000  0.00  0.00    +0.003 C 
ENDROOT
BRANCH   1   7
ATOM      7  O   UNL     1       1.895  -0.349   0.000  0.00  0.00    -0.468 OA
ATOM      8  C   UNL     1       2.829   0.729   0.000  0.00  0.00    +0.253 C 
ENDBRANCH   1   7
BRANCH   2   9
ATOM      9  O   UNL     1      -0.051  -2.334   0.001  0.00  0.00    -0.503 OA
ATOM     10  H   UNL     1       0.854  -2.576   0.001  0.00  0.00    +0.292 HD
ENDBRANCH   2   9
TORSDOF 2
