REMARK  Name = 94310
REMARK  8 active torsions:
REMARK  status: ('A' for Active; 'I' for Inactive)
REMARK    1  A    between atoms: O_1  and  C_3
REMARK    2  A    between atoms: O_1  and  C_10
REMARK    3  A    between atoms: C_3  and  C_4
REMARK    4  A    between atoms: C_10  and  C_11
REMARK    5  A    between atoms: C_11  and  C_12
REMARK    6  A    between atoms: C_11  and  C_14
REMARK    7  A    between atoms: C_14  and  C_15
REMARK    8  A    between atoms: C_15  and  C_16
REMARK                            x       y       z     vdW  Elec       q    Type
REMARK                         _______ _______ _______ _____ _____    ______ ____
ROOT
ATOM      1  O   UNL     1       0.458  -0.275   0.021  0.00  0.00    -0.445 OA
ENDROOT
BRANCH   1   3
ATOM      2  O   UNL     1       1.513  -2.066   1.008  0.00  0.00    -0.245 OA
ATOM      3  C   UNL     1       1.541  -1.000   0.414  0.00  0.00    +0.341 C 
BRANCH   3   4
ATOM      4  C   UNL     1       2.801  -0.319   0.023  0.00  0.00    +0.076 C 
ATOM      5  C   UNL     1       3.916  -1.085  -0.252  0.00  0.00    +0.006 C 
ATOM      6  C   UNL     1       2.818   1.059  -0.054  0.00  0.00    +0.006 C 
ATOM      7  C   UNL     1       5.099  -0.444  -0.619  0.00  0.00    +0.000 C 
ATOM      8  C   UNL     1       4.002   1.699  -0.421  0.00  0.00    +0.000 C 
ATOM      9  C   UNL     1       5.143   0.947  -0.704  0.00  0.00    +0.000 C 
ENDBRANCH   3   4
ENDBRANCH   1   3
BRANCH   1  10
ATOM     10  C   UNL     1      -0.813  -0.826   0.341  0.00  0.00    +0.209 C 
BRANCH  10  11
ATOM     11  C   UNL     1      -1.935   0.097  -0.162  0.00  0.00    +0.044 C 
BRANCH  11  12
ATOM     12  C   UNL     1      -1.881   1.498   0.489  0.00  0.00    +0.004 C 
ATOM     13  C   UNL     1      -2.101   1.520   1.995  0.00  0.00    +0.000 C 
ENDBRANCH  11  12
BRANCH  11  14
ATOM     14  C   UNL     1      -3.293  -0.620  -0.006  0.00  0.00    +0.004 C 
BRANCH  14  15
ATOM     15  C   UNL     1      -4.468   0.154  -0.615  0.00  0.00    +0.000 C 
BRANCH  15  16
ATOM     16  C   UNL     1      -5.813  -0.557  -0.440  0.00  0.00    +0.000 C 
ATOM     17  C   UNL     1      -6.987   0.217  -1.019  0.00  0.00    +0.000 C 
ENDBRANCH  15  16
ENDBRANCH  14  15
ENDBRANCH  11  14
ENDBRANCH  10  11
ENDBRANCH   1  10
TORSDOF 8
