REMARK  Name = 44182376
REMARK  10 active torsions:
REMARK  status: ('A' for Active; 'I' for Inactive)
REMARK    1  A    between atoms: N_2  and  C_12
REMARK    2  A    between atoms: N_3  and  C_23
REMARK    3  A    between atoms: C_12  and  C_13
REMARK    4  A    between atoms: C_13  and  N_15
REMARK    5  A    between atoms: C_16  and  O_18
REMARK    6  A    between atoms: O_18  and  C_19
REMARK    7  A    between atoms: C_23  and  C_24
REMARK    8  A    between atoms: C_24  and  O_25
REMARK    9  A    between atoms: O_25  and  C_27
REMARK   10  A    between atoms: C_32  and  C_34
REMARK                            x       y       z     vdW  Elec       q    Type
REMARK                         _______ _______ _______ _____ _____    ______ ____
ROOT
ATOM      1  O   UNL     1       5.157  -1.974  -0.080  0.00  0.00    -0.367 OA
ATOM      2  N   UNL     1       3.785   0.502   0.388  0.00  0.00    +0.391 N 
ATOM      3  N   UNL     1       2.308  -1.864  -0.399  0.00  0.00    +0.393 N 
ATOM      4  C   UNL     1       4.315  -1.831   1.073  0.00  0.00    +0.074 C 
ATOM      5  C   UNL     1       4.590  -1.252  -1.183  0.00  0.00    +0.074 C 
ATOM      6  C   UNL     1       4.270  -0.349   1.483  0.00  0.00    -0.049 C 
ATOM      7  C   UNL     1       4.553   0.246  -0.838  0.00  0.00    -0.049 C 
ATOM      8  C   UNL     1       2.946  -2.469   0.777  0.00  0.00    -0.049 C 
ATOM      9  C   UNL     1       3.229  -1.873  -1.544  0.00  0.00    -0.049 C 
ATOM     10  H   UNL     1       2.810   0.265   0.208  0.00  0.00    -0.079 HD
ATOM     11  H   UNL     1       2.086  -0.893  -0.177  0.00  0.00    -0.079 HD
ENDROOT
BRANCH   2  12
ATOM     12  C   UNL     1       3.828   1.914   0.756  0.00  0.00    -0.055 C 
BRANCH  12  13
ATOM     13  C   UNL     1       2.659   2.259   1.666  0.00  0.00    +0.070 C 
BRANCH  13  15
ATOM     14  O   UNL     1       1.081   4.069   0.031  0.00  0.00    -0.226 OA
ATOM     15  N   UNL     1       1.402   1.994   1.022  0.00  0.00    -0.273 N 
ATOM     16  C   UNL     1       0.715   2.920   0.257  0.00  0.00    +0.401 C 
ATOM     17  H   UNL     1       1.005   1.100   1.131  0.00  0.00    +0.153 HD
BRANCH  16  18
ATOM     18  O   UNL     1      -0.441   2.367  -0.216  0.00  0.00    -0.442 OA
BRANCH  18  19
ATOM     19  C   UNL     1      -1.254   3.221  -1.029  0.00  0.00    +0.138 C 
ATOM     20  C   UNL     1      -0.441   3.651  -2.248  0.00  0.00    +0.044 C 
ATOM     21  C   UNL     1      -2.481   2.417  -1.456  0.00  0.00    +0.044 C 
ATOM     22  C   UNL     1      -1.670   4.433  -0.196  0.00  0.00    +0.044 C 
ENDBRANCH  18  19
ENDBRANCH  16  18
ENDBRANCH  13  15
ENDBRANCH  12  13
ENDBRANCH   2  12
BRANCH   3  23
ATOM     23  C   UNL     1       1.053  -2.534  -0.725  0.00  0.00    -0.029 C 
BRANCH  23  24
ATOM     24  C   UNL     1      -0.057  -2.077   0.209  0.00  0.00    +0.183 C 
BRANCH  24  25
ATOM     25  O   UNL     1      -1.261  -2.740  -0.154  0.00  0.00    -0.475 OA
BRANCH  25  27
ATOM     26  F   UNL     1      -3.476  -3.135  -1.748  0.00  0.00    -0.201 F 
ATOM     27  C   UNL     1      -2.433  -2.076   0.100  0.00  0.00    +0.166 C 
ATOM     28  C   UNL     1      -3.546  -2.285  -0.714  0.00  0.00    +0.174 C 
ATOM     29  C   UNL     1      -2.511  -1.190   1.175  0.00  0.00    +0.040 C 
ATOM     30  C   UNL     1      -4.738  -1.609  -0.453  0.00  0.00    +0.043 C 
ATOM     31  C   UNL     1      -3.703  -0.514   1.435  0.00  0.00    +0.014 C 
ATOM     32  C   UNL     1      -4.816  -0.724   0.621  0.00  0.00    +0.071 C 
BRANCH  32  34
ATOM     33  N   UNL     1      -7.028   0.533   1.104  0.00  0.00    -0.191 NA
ATOM     34  C   UNL     1      -6.037  -0.030   0.887  0.00  0.00    +0.100 C 
ENDBRANCH  32  34
ENDBRANCH  25  27
ENDBRANCH  24  25
ENDBRANCH  23  24
ENDBRANCH   3  23
TORSDOF 10
