REMARK  Name = 3034287
REMARK  6 active torsions:
REMARK  status: ('A' for Active; 'I' for Inactive)
REMARK    1  A    between atoms: N_1  and  C_2
REMARK    2  A    between atoms: N_1  and  C_4
REMARK    3  A    between atoms: N_1  and  C_12
REMARK    4  A    between atoms: C_4  and  N_9
REMARK    5  A    between atoms: C_5  and  N_8
REMARK    6  A    between atoms: C_12  and  C_15
REMARK                            x       y       z     vdW  Elec       q    Type
REMARK                         _______ _______ _______ _____ _____    ______ ____
ROOT
ATOM      1  N   UNL     1      -0.975  -1.347   0.323  0.00  0.00    -0.291 N 
ENDROOT
BRANCH   1   2
ATOM      2  C   UNL     1      -1.523  -2.654  -0.032  0.00  0.00    +0.092 C 
ATOM      3  C   UNL     1      -2.977  -2.744   0.393  0.00  0.00    +0.023 C 
ENDBRANCH   1   2
BRANCH   1   4
ATOM      4  C   UNL     1      -1.498  -0.129  -0.197  0.00  0.00    +0.122 C 
ATOM      5  C   UNL     1      -2.065   0.721   0.693  0.00  0.00    +0.195 C 
BRANCH   5   8
ATOM      6  O   UNL     1      -2.592   2.901   1.067  0.00  0.00    -0.126 OA
ATOM      7  O   UNL     1      -3.102   1.998  -0.876  0.00  0.00    -0.126 OA
ATOM      8  N   UNL     1      -2.623   1.954   0.266  0.00  0.00    +0.062 N 
ENDBRANCH   5   8
BRANCH   4   9
ATOM      9  N   UNL     1      -1.447   0.186  -1.561  0.00  0.00    -0.319 N 
ATOM     10  C   UNL     1      -0.758  -0.530  -2.609  0.00  0.00    +0.109 C 
ATOM     11  H   UNL     1      -1.939   0.992  -1.839  0.00  0.00    +0.148 HD
ENDBRANCH   4   9
ENDBRANCH   1   4
BRANCH   1  12
ATOM     12  C   UNL     1       0.086  -1.390   1.332  0.00  0.00    +0.120 C 
BRANCH  12  15
ATOM     13 CL   UNL     1       4.871   1.461  -0.700  0.00  0.00    -0.061 Cl
ATOM     14  N   UNL     1       2.597   1.304   0.533  0.00  0.00    -0.233 NA
ATOM     15  C   UNL     1       1.313  -0.716   0.798  0.00  0.00    +0.017 C 
ATOM     16  C   UNL     1       2.269  -1.438   0.103  0.00  0.00    +0.001 C 
ATOM     17  C   UNL     1       1.513   0.636   0.988  0.00  0.00    +0.097 C 
ATOM     18  C   UNL     1       3.398  -0.786  -0.380  0.00  0.00    +0.031 C 
ATOM     19  C   UNL     1       3.513   0.574  -0.141  0.00  0.00    +0.138 C 
ENDBRANCH  12  15
ENDBRANCH   1  12
TORSDOF 6
