REMARK  Name = 7108
REMARK  0 active torsions:
REMARK  status: ('A' for Active; 'I' for Inactive)
REMARK                            x       y       z     vdW  Elec       q    Type
REMARK                         _______ _______ _______ _____ _____    ______ ____
ROOT
ATOM      1  S   UNL     1       0.000   1.870  -0.002  0.00  0.00    -0.084 S 
ATOM      2  N   UNL     1       0.000  -1.255  -0.001  0.00  0.00    -0.312 N 
ATOM      3  C   UNL     1       1.259  -0.634  -0.001  0.00  0.00    +0.054 C 
ATOM      4  C   UNL     1      -1.259  -0.634  -0.001  0.00  0.00    +0.054 C 
ATOM      5  C   UNL     1       1.400   0.763  -0.001  0.00  0.00    +0.043 C 
ATOM      6  C   UNL     1      -1.400   0.763  -0.001  0.00  0.00    +0.043 C 
ATOM      7  C   UNL     1       2.415  -1.434   0.000  0.00  0.00    +0.015 C 
ATOM      8  C   UNL     1      -2.415  -1.434   0.000  0.00  0.00    +0.015 C 
ATOM      9  C   UNL     1       2.682   1.332   0.000  0.00  0.00    +0.008 C 
ATOM     10  C   UNL     1      -2.682   1.332   0.001  0.00  0.00    +0.008 C 
ATOM     11  C   UNL     1       3.685  -0.859   0.001  0.00  0.00    +0.001 C 
ATOM     12  C   UNL     1      -3.685  -0.859   0.001  0.00  0.00    +0.001 C 
ATOM     13  C   UNL     1       3.819   0.524   0.001  0.00  0.00    +0.001 C 
ATOM     14  C   UNL     1      -3.819   0.524   0.001  0.00  0.00    +0.001 C 
ATOM     15  H   UNL     1       0.000  -2.239  -0.002  0.00  0.00    +0.152 HD
ENDROOT
TORSDOF 0
