REMARK  Name = 5918
REMARK  2 active torsions:
REMARK  status: ('A' for Active; 'I' for Inactive)
REMARK    1  A    between atoms: C_2  and  N_7
REMARK    2  A    between atoms: C_3  and  N_10
REMARK                            x       y       z     vdW  Elec       q    Type
REMARK                         _______ _______ _______ _____ _____    ______ ____
ROOT
ATOM      1  N   UNL     1       1.834  -0.651   0.000  0.00  0.00    -0.241 NA
ATOM      2  C   UNL     1      -0.623   0.683   0.001  0.00  0.00    +0.058 C 
ATOM      3  C   UNL     1      -0.583  -0.707   0.001  0.00  0.00    +0.074 C 
ATOM      4  C   UNL     1       0.565   1.407   0.000  0.00  0.00    +0.036 C 
ATOM      5  C   UNL     1       0.659  -1.321   0.000  0.00  0.00    +0.114 C 
ATOM      6  C   UNL     1       1.756   0.699   0.000  0.00  0.00    +0.100 C 
ENDROOT
BRANCH   2   7
ATOM      7  N   UNL     1      -1.853   1.376  -0.001  0.00  0.00    -0.356 N 
ATOM      8  H   UNL     1      -2.700   0.875   0.000  0.00  0.00    +0.142 HD
ATOM      9  H   UNL     1      -1.863   2.360  -0.002  0.00  0.00    +0.142 HD
ENDBRANCH   2   7
BRANCH   3  10
ATOM     10  N   UNL     1      -1.755  -1.485  -0.001  0.00  0.00    -0.355 N 
ATOM     11  H   UNL     1      -2.637  -1.046   0.000  0.00  0.00    +0.142 HD
ATOM     12  H   UNL     1      -1.694  -2.467  -0.002  0.00  0.00    +0.142 HD
ENDBRANCH   3  10
TORSDOF 2
