REMARK  Name = 444294
REMARK  0 active torsions:
REMARK  status: ('A' for Active; 'I' for Inactive)
REMARK                            x       y       z     vdW  Elec       q    Type
REMARK                         _______ _______ _______ _____ _____    ______ ____
ROOT
ATOM      1  O   UNL     1      -2.522   0.375  -0.263  0.00  0.00    -0.296 OA
ATOM      2  C   UNL     1       0.969   0.281  -0.414  0.00  0.00    +0.007 C 
ATOM      3  C   UNL     1      -0.212   0.527   0.565  0.00  0.00    +0.052 C 
ATOM      4  C   UNL     1       0.598  -1.218  -0.590  0.00  0.00    +0.008 C 
ATOM      5  C   UNL     1      -0.018  -0.549   1.659  0.00  0.00    +0.007 C 
ATOM      6  C   UNL     1       0.563  -1.742   0.868  0.00  0.00    +0.001 C 
ATOM      7  C   UNL     1      -0.863  -1.191  -1.103  0.00  0.00    +0.064 C 
ATOM      8  C   UNL     1      -1.369  -0.029  -0.271  0.00  0.00    +0.150 C 
ATOM      9  C   UNL     1       0.910   1.094  -1.721  0.00  0.00    +0.000 C 
ATOM     10  C   UNL     1       2.367   0.523   0.191  0.00  0.00    +0.000 C 
ATOM     11  C   UNL     1      -0.423   1.931   1.079  0.00  0.00    +0.007 C 
ENDROOT
TORSDOF 0
