REMARK  Name = 3039
REMARK  4 active torsions:
REMARK  status: ('A' for Active; 'I' for Inactive)
REMARK    1  A    between atoms: P_1  and  O_3
REMARK    2  A    between atoms: P_1  and  O_5
REMARK    3  A    between atoms: P_1  and  O_7
REMARK    4  A    between atoms: O_7  and  C_10
REMARK                            x       y       z     vdW  Elec       q    Type
REMARK                         _______ _______ _______ _____ _____    ______ ____
ROOT
ATOM      1  P   UNL     1       1.350   0.193   0.479  0.00  0.00    +0.535 P 
ATOM      2  O   UNL     1       1.590   0.123   1.960  0.00  0.00    -0.215 OA
ENDROOT
BRANCH   1   3
ATOM      3  O   UNL     1       2.365  -0.689  -0.425  0.00  0.00    -0.261 OA
ATOM      4  C   UNL     1       2.410  -2.090  -0.217  0.00  0.00    +0.187 C 
ENDBRANCH   1   3
BRANCH   1   5
ATOM      5  O   UNL     1       1.468   1.673  -0.170  0.00  0.00    -0.261 OA
ATOM      6  C   UNL     1       1.254   1.817  -1.564  0.00  0.00    +0.187 C 
ENDBRANCH   1   5
BRANCH   1   7
ATOM      7  O   UNL     1      -0.111  -0.311  -0.006  0.00  0.00    -0.398 OA
BRANCH   7  10
ATOM      8 CL   UNL     1      -3.920   0.629   0.589  0.00  0.00    -0.066 Cl
ATOM      9 CL   UNL     1      -2.656  -1.462  -1.076  0.00  0.00    -0.066 Cl
ATOM     10  C   UNL     1      -1.267   0.258   0.408  0.00  0.00    +0.206 C 
ATOM     11  C   UNL     1      -2.482  -0.140   0.022  0.00  0.00    +0.152 C 
ENDBRANCH   7  10
ENDBRANCH   1   7
TORSDOF 4
