REMARK  Name = 2482
REMARK  6 active torsions:
REMARK  status: ('A' for Active; 'I' for Inactive)
REMARK    1  A    between atoms: C_1  and  C_11
REMARK    2  A    between atoms: C_4  and  N_7
REMARK    3  A    between atoms: C_11  and  O_12
REMARK    4  A    between atoms: O_12  and  C_13
REMARK    5  A    between atoms: C_13  and  C_14
REMARK    6  A    between atoms: C_14  and  C_15
REMARK                            x       y       z     vdW  Elec       q    Type
REMARK                         _______ _______ _______ _____ _____    ______ ____
ROOT
ATOM      1  C   UNL     1      -1.090   0.455  -0.081  0.00  0.00    +0.076 C 
ATOM      2  C   UNL     1      -2.133   1.214   0.409  0.00  0.00    +0.008 C 
ATOM      3  C   UNL     1      -1.260  -0.852  -0.490  0.00  0.00    +0.008 C 
ATOM      4  C   UNL     1      -3.600  -0.678   0.085  0.00  0.00    +0.042 C 
ATOM      5  C   UNL     1      -3.402   0.641   0.492  0.00  0.00    +0.014 C 
ATOM      6  C   UNL     1      -2.530  -1.425  -0.406  0.00  0.00    +0.014 C 
ENDROOT
BRANCH   4   7
ATOM      7  N   UNL     1      -4.884  -1.257   0.168  0.00  0.00    -0.357 N 
ATOM      8  H   UNL     1      -5.640  -0.730   0.515  0.00  0.00    +0.142 HD
ATOM      9  H   UNL     1      -5.024  -2.188  -0.121  0.00  0.00    +0.142 HD
ENDBRANCH   4   7
BRANCH   1  11
ATOM     10  O   UNL     1       0.447   2.257  -0.356  0.00  0.00    -0.245 OA
ATOM     11  C   UNL     1       0.261   1.064  -0.171  0.00  0.00    +0.341 C 
BRANCH  11  12
ATOM     12  O   UNL     1       1.230   0.119  -0.019  0.00  0.00    -0.445 OA
BRANCH  12  13
ATOM     13  C   UNL     1       2.571   0.582  -0.085  0.00  0.00    +0.209 C 
BRANCH  13  14
ATOM     14  C   UNL     1       3.510  -0.601   0.104  0.00  0.00    +0.047 C 
BRANCH  14  15
ATOM     15  C   UNL     1       4.974  -0.171   0.060  0.00  0.00    +0.004 C 
ATOM     16  C   UNL     1       5.907  -1.348   0.292  0.00  0.00    +0.000 C 
ENDBRANCH  14  15
ENDBRANCH  13  14
ENDBRANCH  12  13
ENDBRANCH  11  12
ENDBRANCH   1  11
TORSDOF 6
