REMARK  Name = 5437
REMARK  0 active torsions:
REMARK  status: ('A' for Active; 'I' for Inactive)
REMARK                            x       y       z     vdW  Elec       q    Type
REMARK                         _______ _______ _______ _____ _____    ______ ____
ROOT
ATOM      1  S   UNL     1      -0.877   1.483   0.000  0.00  0.00    -0.047 S 
ATOM      2  O   UNL     1       2.300  -0.690   0.000  0.00  0.00    -0.274 OA
ATOM      3  O   UNL     1      -2.320  -0.716  -0.001  0.00  0.00    -0.263 OA
ATOM      4  N   UNL     1      -0.004  -0.916   0.001  0.00  0.00    -0.246 N 
ATOM      5  C   UNL     1       0.920   1.280   0.000  0.00  0.00    +0.152 C 
ATOM      6  C   UNL     1       1.176  -0.202   0.000  0.00  0.00    +0.240 C 
ATOM      7  C   UNL     1      -1.195  -0.239   0.000  0.00  0.00    +0.279 C 
ATOM      8  H   UNL     1       0.010  -1.901   0.001  0.00  0.00    +0.158 HD
ENDROOT
TORSDOF 0
