REMARK  Name = 68770
REMARK  9 active torsions:
REMARK  status: ('A' for Active; 'I' for Inactive)
REMARK    1  A    between atoms: C_1  and  N_9
REMARK    2  A    between atoms: C_2  and  O_19
REMARK    3  A    between atoms: N_8  and  C_13
REMARK    4  A    between atoms: O_19  and  C_20
REMARK    5  A    between atoms: C_20  and  C_21
REMARK    6  A    between atoms: C_21  and  O_22
REMARK    7  A    between atoms: C_21  and  C_24
REMARK    8  A    between atoms: C_24  and  N_25
REMARK    9  A    between atoms: N_25  and  C_28
REMARK                            x       y       z     vdW  Elec       q    Type
REMARK                         _______ _______ _______ _____ _____    ______ ____
ROOT
ATOM      1  C   UNL     1      -0.845  -0.796  -0.277  0.00  0.00    +0.052 C 
ATOM      2  C   UNL     1       1.822  -1.493   0.150  0.00  0.00    +0.139 C 
ATOM      3  C   UNL     1      -0.125  -1.448  -1.278  0.00  0.00    +0.018 C 
ATOM      4  C   UNL     1      -0.231  -0.491   0.938  0.00  0.00    +0.018 C 
ATOM      5  C   UNL     1       1.208  -1.797  -1.065  0.00  0.00    +0.038 C 
ATOM      6  C   UNL     1       1.103  -0.840   1.151  0.00  0.00    +0.038 C 
ENDROOT
BRANCH   1   9
ATOM      7  O   UNL     1      -2.801   0.598   1.522  0.00  0.00    -0.252 OA
ATOM      8  N   UNL     1      -4.321   0.378  -0.207  0.00  0.00    -0.290 N 
ATOM      9  N   UNL     1      -2.197  -0.441  -0.495  0.00  0.00    -0.268 N 
ATOM     10  C   UNL     1      -3.064   0.211   0.386  0.00  0.00    +0.304 C 
ATOM     11  H   UNL     1      -4.456   0.042  -1.122  0.00  0.00    +0.151 HD
ATOM     12  H   UNL     1      -2.572  -0.683  -1.372  0.00  0.00    +0.156 HD
BRANCH   8  13
ATOM     13  C   UNL     1      -5.429   1.022   0.462  0.00  0.00    +0.073 C 
ATOM     14  C   UNL     1      -6.320   1.765  -0.539  0.00  0.00    +0.020 C 
ATOM     15  C   UNL     1      -6.239   0.012   1.283  0.00  0.00    +0.020 C 
ATOM     16  C   UNL     1      -7.136   0.814  -1.415  0.00  0.00    +0.002 C 
ATOM     17  C   UNL     1      -7.055  -0.936   0.404  0.00  0.00    +0.002 C 
ATOM     18  C   UNL     1      -7.941  -0.173  -0.575  0.00  0.00    +0.000 C 
ENDBRANCH   8  13
ENDBRANCH   1   9
BRANCH   2  19
ATOM     19  O   UNL     1       3.124  -1.831   0.358  0.00  0.00    -0.473 OA
BRANCH  19  20
ATOM     20  C   UNL     1       3.977  -1.865  -0.785  0.00  0.00    +0.232 C 
BRANCH  20  21
ATOM     21  C   UNL     1       5.395  -1.497  -0.354  0.00  0.00    +0.133 C 
BRANCH  21  22
ATOM     22  O   UNL     1       5.826  -2.432   0.640  0.00  0.00    -0.383 OA
ATOM     23  H   UNL     1       6.726  -2.210   0.923  0.00  0.00    +0.210 HD
ENDBRANCH  21  22
BRANCH  21  24
ATOM     24  C   UNL     1       5.503  -0.089   0.235  0.00  0.00    -0.048 C 
BRANCH  24  25
ATOM     25  N   UNL     1       5.047   0.932  -0.699  0.00  0.00    +0.388 N 
ATOM     26  H   UNL     1       5.621   0.894  -1.541  0.00  0.00    -0.084 HD
ATOM     27  H   UNL     1       4.069   0.752  -0.925  0.00  0.00    -0.084 HD
BRANCH  25  28
ATOM     28  C   UNL     1       5.151   2.260  -0.110  0.00  0.00    -0.046 C 
ATOM     29  C   UNL     1       4.283   2.304   1.152  0.00  0.00    -0.022 C 
ATOM     30  C   UNL     1       6.615   2.545   0.247  0.00  0.00    -0.022 C 
ATOM     31  C   UNL     1       4.649   3.287  -1.130  0.00  0.00    -0.022 C 
ENDBRANCH  25  28
ENDBRANCH  24  25
ENDBRANCH  21  24
ENDBRANCH  20  21
ENDBRANCH  19  20
ENDBRANCH   2  19
TORSDOF 9
