REMARK  Name = 2335
REMARK  12 active torsions:
REMARK  status: ('A' for Active; 'I' for Inactive)
REMARK    1  A    between atoms: O_1  and  C_7
REMARK    2  A    between atoms: O_1  and  C_16
REMARK    3  A    between atoms: C_2  and  C_8
REMARK    4  A    between atoms: C_8  and  C_11
REMARK    5  A    between atoms: C_11  and  C_12
REMARK    6  A    between atoms: C_16  and  C_17
REMARK    7  A    between atoms: C_17  and  O_18
REMARK    8  A    between atoms: O_18  and  C_19
REMARK    9  A    between atoms: C_19  and  C_20
REMARK   10  A    between atoms: C_20  and  N_21
REMARK   11  A    between atoms: N_21  and  C_24
REMARK   12  A    between atoms: C_24  and  C_25
REMARK                            x       y       z     vdW  Elec       q    Type
REMARK                         _______ _______ _______ _____ _____    ______ ____
ROOT
ATOM      1  O   UNL     1      -0.777  -2.542   1.089  0.00  0.00    -0.473 OA
ENDROOT
BRANCH   1   7
ATOM      2  C   UNL     1      -4.227  -0.353   0.749  0.00  0.00    -0.023 C 
ATOM      3  C   UNL     1      -4.185  -1.590   0.160  0.00  0.00    -0.001 C 
ATOM      4  C   UNL     1      -3.182   0.192   1.446  0.00  0.00    -0.001 C 
ATOM      5  C   UNL     1      -3.012  -2.335   0.276  0.00  0.00    +0.037 C 
ATOM      6  C   UNL     1      -2.008  -0.552   1.561  0.00  0.00    +0.037 C 
ATOM      7  C   UNL     1      -1.923  -1.816   0.976  0.00  0.00    +0.139 C 
BRANCH   2   8
ATOM      8  C   UNL     1      -5.525   0.470   0.621  0.00  0.00    +0.019 C 
ATOM      9  C   UNL     1      -6.669  -0.279  -0.094  0.00  0.00    +0.004 C 
ATOM     10  C   UNL     1      -6.033   0.722   2.071  0.00  0.00    +0.004 C 
BRANCH   8  11
ATOM     11  C   UNL     1      -5.296   1.880  -0.034  0.00  0.00    +0.004 C 
BRANCH  11  12
ATOM     12  C   UNL     1      -4.640   2.055  -1.444  0.00  0.00    +0.000 C 
ATOM     13  C   UNL     1      -3.244   1.433  -1.563  0.00  0.00    +0.000 C 
ATOM     14  C   UNL     1      -5.538   1.502  -2.568  0.00  0.00    +0.000 C 
ATOM     15  C   UNL     1      -4.498   3.577  -1.694  0.00  0.00    +0.000 C 
ENDBRANCH  11  12
ENDBRANCH   8  11
ENDBRANCH   2   8
ENDBRANCH   1   7
BRANCH   1  16
ATOM     16  C   UNL     1      -0.468  -3.438   0.023  0.00  0.00    +0.237 C 
BRANCH  16  17
ATOM     17  C   UNL     1       1.038  -3.554  -0.105  0.00  0.00    +0.189 C 
BRANCH  17  18
ATOM     18  O   UNL     1       1.580  -2.272  -0.400  0.00  0.00    -0.352 OA
BRANCH  18  19
ATOM     19  C   UNL     1       2.996  -2.318  -0.509  0.00  0.00    +0.120 C 
BRANCH  19  20
ATOM     20  C   UNL     1       3.525  -0.932  -0.824  0.00  0.00    -0.040 C 
BRANCH  20  21
ATOM     21  N   UNL     1       5.001  -0.994  -0.974  0.00  0.00    +0.392 N 
ATOM     22  C   UNL     1       5.661  -1.468   0.329  0.00  0.00    -0.095 C 
ATOM     23  C   UNL     1       5.394  -1.970  -2.091  0.00  0.00    -0.095 C 
BRANCH  21  24
ATOM     24  C   UNL     1       5.571   0.387  -1.323  0.00  0.00    -0.046 C 
BRANCH  24  25
ATOM     25  C   UNL     1       5.314   1.415  -0.262  0.00  0.00    -0.043 C 
ATOM     26  C   UNL     1       4.154   2.181  -0.311  0.00  0.00    -0.006 C 
ATOM     27  C   UNL     1       6.238   1.593   0.763  0.00  0.00    -0.006 C 
ATOM     28  C   UNL     1       3.915   3.137   0.676  0.00  0.00    -0.000 C 
ATOM     29  C   UNL     1       5.998   2.549   1.750  0.00  0.00    -0.000 C 
ATOM     30  C   UNL     1       4.837   3.321   1.707  0.00  0.00    -0.000 C 
ENDBRANCH  24  25
ENDBRANCH  21  24
ENDBRANCH  20  21
ENDBRANCH  19  20
ENDBRANCH  18  19
ENDBRANCH  17  18
ENDBRANCH  16  17
ENDBRANCH   1  16
TORSDOF 12
