REMARK  Name = 12082259
REMARK  9 active torsions:
REMARK  status: ('A' for Active; 'I' for Inactive)
REMARK    1  A    between atoms: C_1  and  C_3
REMARK    2  A    between atoms: C_1  and  C_10
REMARK    3  A    between atoms: C_1  and  O_19
REMARK    4  A    between atoms: C_10  and  O_11
REMARK    5  A    between atoms: O_11  and  C_12
REMARK    6  A    between atoms: C_12  and  C_13
REMARK    7  A    between atoms: C_13  and  N_15
REMARK    8  A    between atoms: O_19  and  C_20
REMARK    9  A    between atoms: C_22  and  C_29
REMARK                            x       y       z     vdW  Elec       q    Type
REMARK                         _______ _______ _______ _____ _____    ______ ____
ROOT
ATOM      1  C   UNL     1      -0.101  -0.274  -0.491  0.00  0.00    +0.286 C 
ENDROOT
BRANCH   1   3
ATOM      2 CL   UNL     1      -4.848  -3.813   0.490  0.00  0.00    -0.082 Cl
ATOM      3  C   UNL     1      -1.280  -1.154  -0.248  0.00  0.00    +0.028 C 
ATOM      4  C   UNL     1      -2.340  -1.167  -1.155  0.00  0.00    +0.001 C 
ATOM      5  C   UNL     1      -1.324  -1.963   0.887  0.00  0.00    +0.001 C 
ATOM      6  C   UNL     1      -3.443  -1.989  -0.927  0.00  0.00    +0.011 C 
ATOM      7  C   UNL     1      -2.428  -2.785   1.116  0.00  0.00    +0.011 C 
ATOM      8  C   UNL     1      -3.487  -2.798   0.209  0.00  0.00    +0.058 C 
ENDBRANCH   1   3
BRANCH   1  10
ATOM      9  O   UNL     1      -0.022   1.274  -2.373  0.00  0.00    -0.246 OA
ATOM     10  C   UNL     1      -0.445   0.997  -1.257  0.00  0.00    +0.362 C 
BRANCH  10  11
ATOM     11  O   UNL     1      -1.301   1.760  -0.516  0.00  0.00    -0.444 OA
BRANCH  11  12
ATOM     12  C   UNL     1      -1.722   2.985  -1.126  0.00  0.00    +0.230 C 
BRANCH  12  13
ATOM     13  C   UNL     1      -2.664   3.717  -0.189  0.00  0.00    +0.137 C 
BRANCH  13  15
ATOM     14  O   UNL     1      -3.071   1.798   1.951  0.00  0.00    -0.275 OA
ATOM     15  N   UNL     1      -3.848   2.946   0.080  0.00  0.00    -0.301 N 
ATOM     16  C   UNL     1      -3.952   2.047   1.132  0.00  0.00    +0.223 C 
ATOM     17  C   UNL     1      -5.306   1.394   1.199  0.00  0.00    +0.095 C 
ATOM     18  H   UNL     1      -4.625   3.062  -0.514  0.00  0.00    +0.150 HD
ENDBRANCH  13  15
ENDBRANCH  12  13
ENDBRANCH  11  12
ENDBRANCH  10  11
ENDBRANCH   1  10
BRANCH   1  19
ATOM     19  O   UNL     1       0.880  -0.992  -1.237  0.00  0.00    -0.463 OA
BRANCH  19  20
ATOM     20  C   UNL     1       2.112  -1.128  -0.657  0.00  0.00    +0.140 C 
ATOM     21  C   UNL     1       2.858   0.004  -0.329  0.00  0.00    +0.041 C 
ATOM     22  C   UNL     1       4.113  -0.135   0.263  0.00  0.00    +0.074 C 
ATOM     23  C   UNL     1       2.622  -2.399  -0.393  0.00  0.00    +0.037 C 
ATOM     24  C   UNL     1       4.622  -1.406   0.527  0.00  0.00    +0.004 C 
ATOM     25  C   UNL     1       3.877  -2.538   0.199  0.00  0.00    +0.003 C 
BRANCH  22  29
ATOM     26  F   UNL     1       6.117   0.789   1.187  0.00  0.00    -0.166 F 
ATOM     27  F   UNL     1       5.205   1.867  -0.459  0.00  0.00    -0.166 F 
ATOM     28  F   UNL     1       4.267   1.888   1.503  0.00  0.00    -0.166 F 
ATOM     29  C   UNL     1       4.910   1.075   0.614  0.00  0.00    +0.419 C 
ENDBRANCH  22  29
ENDBRANCH  19  20
ENDBRANCH   1  19
TORSDOF 9
