REMARK  Name = 10090
REMARK  7 active torsions:
REMARK  status: ('A' for Active; 'I' for Inactive)
REMARK    1  A    between atoms: C_1  and  C_2
REMARK    2  A    between atoms: C_1  and  C_8
REMARK    3  A    between atoms: C_1  and  C_15
REMARK    4  A    between atoms: C_1  and  C_18
REMARK    5  A    between atoms: C_15  and  C_16
REMARK    6  A    between atoms: C_18  and  C_19
REMARK    7  A    between atoms: C_19  and  N_20
REMARK                            x       y       z     vdW  Elec       q    Type
REMARK                         _______ _______ _______ _____ _____    ______ ____
ROOT
ATOM      1  C   UNL     1      -0.090   0.124   0.131  0.00  0.00    +0.087 C 
ENDROOT
BRANCH   1   2
ATOM      2  C   UNL     1      -1.535   0.463  -0.348  0.00  0.00    -0.013 C 
ATOM      3  C   UNL     1      -2.572  -0.059   0.365  0.00  0.00    -0.004 C 
ATOM      4  C   UNL     1      -1.665   1.258  -1.447  0.00  0.00    -0.004 C 
ATOM      5  C   UNL     1      -3.865   0.244  -0.063  0.00  0.00    -0.000 C 
ATOM      6  C   UNL     1      -2.957   1.560  -1.874  0.00  0.00    -0.000 C 
ATOM      7  C   UNL     1      -4.057   1.054  -1.183  0.00  0.00    -0.000 C 
ENDBRANCH   1   2
BRANCH   1   8
ATOM      8  C   UNL     1       0.141  -1.415   0.102  0.00  0.00    -0.013 C 
ATOM      9  C   UNL     1      -0.543  -2.140  -0.828  0.00  0.00    -0.004 C 
ATOM     10  C   UNL     1       1.014  -1.940   1.009  0.00  0.00    -0.004 C 
ATOM     11  C   UNL     1      -0.335  -3.520  -0.853  0.00  0.00    -0.000 C 
ATOM     12  C   UNL     1       1.222  -3.319   0.984  0.00  0.00    -0.000 C 
ATOM     13  C   UNL     1       0.547  -4.109   0.052  0.00  0.00    -0.000 C 
ENDBRANCH   1   8
BRANCH   1  15
ATOM     14  O   UNL     1      -0.412   0.140   2.570  0.00  0.00    -0.295 OA
ATOM     15  C   UNL     1      -0.010   0.746   1.573  0.00  0.00    +0.157 C 
BRANCH  15  16
ATOM     16  C   UNL     1       0.473   2.191   1.703  0.00  0.00    +0.065 C 
ATOM     17  C   UNL     1      -0.131   2.901   2.904  0.00  0.00    +0.008 C 
ENDBRANCH  15  16
ENDBRANCH   1  15
BRANCH   1  18
ATOM     18  C   UNL     1       1.017   0.755  -0.788  0.00  0.00    -0.008 C 
BRANCH  18  19
ATOM     19  C   UNL     1       2.472   0.501  -0.359  0.00  0.00    -0.076 C 
BRANCH  19  20
ATOM     20  N   UNL     1       3.391   1.119  -1.312  0.00  0.00    +0.384 N 
ATOM     21  C   UNL     1       4.778   0.896  -0.905  0.00  0.00    -0.101 C 
ATOM     22  C   UNL     1       3.118   2.551  -1.432  0.00  0.00    -0.101 C 
ATOM     23  H   UNL     1       3.247   0.685  -2.224  0.00  0.00    -0.080 HD
ENDBRANCH  19  20
ENDBRANCH  18  19
ENDBRANCH   1  18
TORSDOF 7
