71587743
  -OEChem-10051722333D

 56 58  0     1  0  0  0  0  0999 V2000
   -1.3642    1.9532    1.2888 O   0  0  0  0  0  0  0  0  0  0  0  0
   -4.0681   -1.2084   -0.5783 O   0  0  0  0  0  0  0  0  0  0  0  0
   -3.0055   -4.0551   -0.3137 O   0  0  0  0  0  0  0  0  0  0  0  0
    1.9555   -1.0112   -1.6695 O   0  0  0  0  0  0  0  0  0  0  0  0
    4.9520    0.0552   -0.6358 O   0  0  0  0  0  0  0  0  0  0  0  0
   -1.1108    0.0409   -0.9176 N   0  0  0  0  0  0  0  0  0  0  0  0
    3.4015    1.7145   -0.0821 N   0  0  0  0  0  0  0  0  0  0  0  0
   -1.9867    1.1979   -0.9480 C   0  0  2  0  0  0  0  0  0  0  0  0
   -1.2897    2.3294   -1.7258 C   0  0  0  0  0  0  0  0  0  0  0  0
   -1.5508   -1.1798   -0.7452 C   0  0  0  0  0  0  0  0  0  0  0  0
   -1.0908   -2.4582   -0.6243 C   0  0  0  0  0  0  0  0  0  0  0  0
   -2.3764    1.5684    0.4677 C   0  0  0  0  0  0  0  0  0  0  0  0
   -0.9812    1.9503   -3.1776 C   0  0  0  0  0  0  0  0  0  0  0  0
    0.3038   -3.1040   -0.6391 C   0  0  0  0  0  0  0  0  0  0  0  0
   -2.9426   -1.6339   -0.6014 C   0  0  0  0  0  0  0  0  0  0  0  0
   -2.4317   -3.0101   -0.4730 C   0  0  0  0  0  0  0  0  0  0  0  0
    1.3334   -2.3564    0.2027 C   0  0  0  0  0  0  0  0  0  0  0  0
   -3.5791    1.6021    1.1344 C   0  0  0  0  0  0  0  0  0  0  0  0
   -0.3837    3.1222   -3.9415 C   0  0  0  0  0  0  0  0  0  0  0  0
   -1.9268    2.2358    2.4929 C   0  0  0  0  0  0  0  0  0  0  0  0
    2.1127   -1.3433   -0.3556 C   0  0  0  0  0  0  0  0  0  0  0  0
   -3.2872    2.0356    2.4497 C   0  0  0  0  0  0  0  0  0  0  0  0
    1.4904   -2.6972    1.5460 C   0  0  0  0  0  0  0  0  0  0  0  0
    3.0493   -0.6711    0.4295 C   0  0  0  0  0  0  0  0  0  0  0  0
    2.4271   -2.0249    2.3313 C   0  0  0  0  0  0  0  0  0  0  0  0
    3.2066   -1.0118    1.7730 C   0  0  0  0  0  0  0  0  0  0  0  0
   -1.0087    2.6789    3.5518 C   0  0  0  0  0  0  0  0  0  0  0  0
    3.8734    0.3910   -0.1311 C   0  0  0  0  0  0  0  0  0  0  0  0
    4.1593    2.8287   -0.6342 C   0  0  0  0  0  0  0  0  0  0  0  0
    2.1187    2.0614    0.5258 C   0  0  0  0  0  0  0  0  0  0  0  0
   -2.9057    0.9606   -1.5010 H   0  0  0  0  0  0  0  0  0  0  0  0
   -0.3608    2.6207   -1.2240 H   0  0  0  0  0  0  0  0  0  0  0  0
   -1.9358    3.2171   -1.7132 H   0  0  0  0  0  0  0  0  0  0  0  0
   -0.1153    0.2430   -0.9649 H   0  0  0  0  0  0  0  0  0  0  0  0
   -0.2769    1.1118   -3.2146 H   0  0  0  0  0  0  0  0  0  0  0  0
   -1.8998    1.6270   -3.6806 H   0  0  0  0  0  0  0  0  0  0  0  0
    0.6551   -3.2408   -1.6679 H   0  0  0  0  0  0  0  0  0  0  0  0
    0.2164   -4.1257   -0.2454 H   0  0  0  0  0  0  0  0  0  0  0  0
   -4.5470    1.3494    0.7262 H   0  0  0  0  0  0  0  0  0  0  0  0
   -1.0751    3.9705   -3.9630 H   0  0  0  0  0  0  0  0  0  0  0  0
    0.5528    3.4528   -3.4809 H   0  0  0  0  0  0  0  0  0  0  0  0
   -0.1704    2.8317   -4.9749 H   0  0  0  0  0  0  0  0  0  0  0  0
   -3.9837    2.1833    3.2626 H   0  0  0  0  0  0  0  0  0  0  0  0
    0.8881   -3.4829    1.9944 H   0  0  0  0  0  0  0  0  0  0  0  0
    2.5487   -2.2896    3.3775 H   0  0  0  0  0  0  0  0  0  0  0  0
    3.9325   -0.4945    2.3952 H   0  0  0  0  0  0  0  0  0  0  0  0
   -0.2457    1.9176    3.7419 H   0  0  0  0  0  0  0  0  0  0  0  0
   -0.5047    3.6054    3.2598 H   0  0  0  0  0  0  0  0  0  0  0  0
   -1.5443    2.8639    4.4881 H   0  0  0  0  0  0  0  0  0  0  0  0
    1.1098   -1.3349   -2.0147 H   0  0  0  0  0  0  0  0  0  0  0  0
    2.3198    2.5551    1.4814 H   0  0  0  0  0  0  0  0  0  0  0  0
    1.5979    2.7622   -0.1310 H   0  0  0  0  0  0  0  0  0  0  0  0
    1.4701    1.2043    0.7038 H   0  0  0  0  0  0  0  0  0  0  0  0
    4.3422    3.5595    0.1586 H   0  0  0  0  0  0  0  0  0  0  0  0
    5.1166    2.4901   -1.0382 H   0  0  0  0  0  0  0  0  0  0  0  0
    3.5763    3.2903   -1.4363 H   0  0  0  0  0  0  0  0  0  0  0  0
  1 12  1  0  0  0  0
  1 20  1  0  0  0  0
  2 15  2  0  0  0  0
  3 16  2  0  0  0  0
  4 21  1  0  0  0  0
  4 50  1  0  0  0  0
  5 28  2  0  0  0  0
  6  8  1  0  0  0  0
  6 10  1  0  0  0  0
  6 34  1  0  0  0  0
  7 28  1  0  0  0  0
  7 29  1  0  0  0  0
  7 30  1  0  0  0  0
  8  9  1  0  0  0  0
  8 12  1  0  0  0  0
  8 31  1  0  0  0  0
  9 13  1  0  0  0  0
  9 32  1  0  0  0  0
  9 33  1  0  0  0  0
 10 11  2  0  0  0  0
 10 15  1  0  0  0  0
 11 14  1  0  0  0  0
 11 16  1  0  0  0  0
 12 18  2  0  0  0  0
 13 19  1  0  0  0  0
 13 35  1  0  0  0  0
 13 36  1  0  0  0  0
 14 17  1  0  0  0  0
 14 37  1  0  0  0  0
 14 38  1  0  0  0  0
 15 16  1  0  0  0  0
 17 21  1  0  0  0  0
 17 23  2  0  0  0  0
 18 22  1  0  0  0  0
 18 39  1  0  0  0  0
 19 40  1  0  0  0  0
 19 41  1  0  0  0  0
 19 42  1  0  0  0  0
 20 22  2  0  0  0  0
 20 27  1  0  0  0  0
 21 24  2  0  0  0  0
 22 43  1  0  0  0  0
 23 25  1  0  0  0  0
 23 44  1  0  0  0  0
 24 26  1  0  0  0  0
 24 28  1  0  0  0  0
 25 26  2  0  0  0  0
 25 45  1  0  0  0  0
 26 46  1  0  0  0  0
 27 47  1  0  0  0  0
 27 48  1  0  0  0  0
 27 49  1  0  0  0  0
 29 54  1  0  0  0  0
 29 55  1  0  0  0  0
 29 56  1  0  0  0  0
 30 51  1  0  0  0  0
 30 52  1  0  0  0  0
 30 53  1  0  0  0  0
M  END
> <DATABASE_ID>
DB11711

> <DATABASE_NAME>
drugbank

> <ORIGINAL_SOURCE>
PUBCHEM

> <ORIGINAL_SOURCE_URL>
https://pubchem.ncbi.nlm.nih.gov/rest/pug/compound/inchikey/IXBYSXNOKFHHDR-QGZVFWFLSA-N/SDF?record_type=3d

> <SMILES>
CCC[C@@H](NC1=C(CC2=CC=CC(C(=O)N(C)C)=C2O)C(=O)C1=O)C1=CC=C(C)O1

> <INCHI_IDENTIFIER>
InChI=1S/C23H26N2O5/c1-5-7-17(18-11-10-13(2)30-18)24-19-16(21(27)22(19)28)12-14-8-6-9-15(20(14)26)23(29)25(3)4/h6,8-11,17,24,26H,5,7,12H2,1-4H3/t17-/m1/s1

> <INCHI_KEY>
IXBYSXNOKFHHDR-QGZVFWFLSA-N

> <FORMULA>
C23H26N2O5

> <MOLECULAR_WEIGHT>
410.47

> <EXACT_MASS>
410.184171945

> <JCHEM_ACCEPTOR_COUNT>
5

> <JCHEM_ATOM_COUNT>
56

> <JCHEM_AVERAGE_POLARIZABILITY>
43.63183908579399

> <JCHEM_BIOAVAILABILITY>
1

> <JCHEM_DONOR_COUNT>
2

> <JCHEM_FORMAL_CHARGE>
0

> <JCHEM_GHOSE_FILTER>
1

> <JCHEM_IUPAC>
2-hydroxy-N,N-dimethyl-3-[(2-{[(1R)-1-(5-methylfuran-2-yl)butyl]amino}-3,4-dioxocyclobut-1-en-1-yl)methyl]benzamide

> <ALOGPS_LOGP>
3.43

> <JCHEM_LOGP>
4.0643157746666665

> <ALOGPS_LOGS>
-4.03

> <JCHEM_MDDR_LIKE_RULE>
1

> <JCHEM_NUMBER_OF_RINGS>
3

> <JCHEM_PHYSIOLOGICAL_CHARGE>
0

> <JCHEM_PKA>
18.332630219987454

> <JCHEM_PKA_STRONGEST_ACIDIC>
7.9819013003560215

> <JCHEM_PKA_STRONGEST_BASIC>
-1.399237256436881

> <JCHEM_POLAR_SURFACE_AREA>
99.85000000000001

> <JCHEM_REFRACTIVITY>
114.86269999999999

> <JCHEM_ROTATABLE_BOND_COUNT>
8

> <JCHEM_RULE_OF_FIVE>
1

> <ALOGPS_SOLUBILITY>
3.86e-02 g/l

> <JCHEM_TRADITIONAL_IUPAC>
2-hydroxy-N,N-dimethyl-3-[(2-{[(1R)-1-(5-methylfuran-2-yl)butyl]amino}-3,4-dioxocyclobut-1-en-1-yl)methyl]benzamide

> <JCHEM_VEBER_RULE>
0

> <DRUGBANK_ID>
DB11711

> <DRUG_GROUPS>
investigational

> <GENERIC_NAME>
Navarixin

> <SYNONYMS>
Navarixin anhydrous

> <SALTS>
Navarixin monohydrate

$$$$
