REMARK  Name = 71310
REMARK  2 active torsions:
REMARK  status: ('A' for Active; 'I' for Inactive)
REMARK    1  A    between atoms: C_1  and  C_12
REMARK    2  A    between atoms: C_1  and  C_17
REMARK                            x       y       z     vdW  Elec       q    Type
REMARK                         _______ _______ _______ _____ _____    ______ ____
ROOT
ATOM      1  C   UNL     1      -0.660  -0.944  -0.266  0.00  0.00    +0.040 C 
ATOM      2  C   UNL     1       0.297  -0.648  -1.469  0.00  0.00    +0.032 C 
ATOM      3  C   UNL     1       0.313  -1.293   0.909  0.00  0.00    +0.032 C 
ATOM      4  C   UNL     1       1.518  -0.119  -0.779  0.00  0.00    -0.026 C 
ATOM      5  C   UNL     1       1.526  -0.481   0.571  0.00  0.00    -0.026 C 
ATOM      6  C   UNL     1       2.565   0.600  -1.331  0.00  0.00    -0.005 C 
ATOM      7  C   UNL     1       2.580  -0.134   1.399  0.00  0.00    -0.005 C 
ATOM      8  C   UNL     1       3.626   0.966  -0.501  0.00  0.00    -0.000 C 
ATOM      9  C   UNL     1       3.634   0.602   0.855  0.00  0.00    -0.000 C 
ENDROOT
BRANCH   1  12
ATOM     10  N   UNL     1      -2.413   0.780  -0.954  0.00  0.00    -0.319 N 
ATOM     11  N   UNL     1      -2.654   2.078   0.832  0.00  0.00    -0.315 N 
ATOM     12  C   UNL     1      -1.568   0.295  -0.009  0.00  0.00    +0.037 C 
ATOM     13  C   UNL     1      -1.725   1.099   1.082  0.00  0.00    +0.069 C 
ATOM     14  C   UNL     1      -3.049   1.858  -0.402  0.00  0.00    +0.182 C 
ATOM     15  H   UNL     1      -2.544   0.425  -1.863  0.00  0.00    +0.148 HD
ATOM     16  H   UNL     1      -2.958   2.788   1.443  0.00  0.00    +0.148 HD
ENDBRANCH   1  12
BRANCH   1  17
ATOM     17  C   UNL     1      -1.530  -2.186  -0.548  0.00  0.00    +0.006 C 
ATOM     18  C   UNL     1      -2.459  -2.474   0.611  0.00  0.00    +0.000 C 
ENDBRANCH   1  17
TORSDOF 2
