REMARK  Name = 94532
REMARK  5 active torsions:
REMARK  status: ('A' for Active; 'I' for Inactive)
REMARK    1  A    between atoms: C_1  and  C_2
REMARK    2  A    between atoms: C_1  and  O_8
REMARK    3  A    between atoms: C_1  and  C_10
REMARK    4  A    between atoms: C_10  and  N_12
REMARK    5  A    between atoms: N_12  and  C_15
REMARK                            x       y       z     vdW  Elec       q    Type
REMARK                         _______ _______ _______ _____ _____    ______ ____
ROOT
ATOM      1  C   UNL     1       0.101   0.291   0.723  0.00  0.00    +0.114 C 
ENDROOT
BRANCH   1   2
ATOM      2  C   UNL     1      -1.342   0.195   0.276  0.00  0.00    +0.002 C 
ATOM      3  C   UNL     1      -1.954   1.308  -0.274  0.00  0.00    -0.002 C 
ATOM      4  C   UNL     1      -2.018  -1.003   0.426  0.00  0.00    -0.002 C 
ATOM      5  C   UNL     1      -3.284   1.220  -0.686  0.00  0.00    -0.000 C 
ATOM      6  C   UNL     1      -3.347  -1.091   0.014  0.00  0.00    -0.000 C 
ATOM      7  C   UNL     1      -3.980   0.021  -0.542  0.00  0.00    -0.000 C 
ENDBRANCH   1   2
BRANCH   1   8
ATOM      8  O   UNL     1       0.248  -0.597   1.835  0.00  0.00    -0.382 OA
ATOM      9  H   UNL     1       1.164  -0.566   2.154  0.00  0.00    +0.211 HD
ENDBRANCH   1   8
BRANCH   1  10
ATOM     10  C   UNL     1       1.119  -0.071  -0.382  0.00  0.00    -0.026 C 
ATOM     11  C   UNL     1       0.974  -1.516  -0.863  0.00  0.00    -0.020 C 
BRANCH  10  12
ATOM     12  N   UNL     1       2.483   0.101   0.131  0.00  0.00    +0.389 N 
ATOM     13  C   UNL     1       2.676   1.469   0.605  0.00  0.00    -0.100 C 
ATOM     14  H   UNL     1       2.623  -0.534   0.916  0.00  0.00    -0.080 HD
BRANCH  12  15
ATOM     15  C   UNL     1       3.458  -0.227  -0.906  0.00  0.00    -0.077 C 
ATOM     16  C   UNL     1       4.867  -0.101  -0.358  0.00  0.00    -0.025 C 
ENDBRANCH  12  15
ENDBRANCH  10  12
ENDBRANCH   1  10
TORSDOF 5
