REMARK  Name = 44480399
REMARK  5 active torsions:
REMARK  status: ('A' for Active; 'I' for Inactive)
REMARK    1  A    between atoms: O_1  and  C_9
REMARK    2  A    between atoms: O_1  and  C_20
REMARK    3  A    between atoms: C_5  and  C_14
REMARK    4  A    between atoms: C_23  and  O_27
REMARK    5  A    between atoms: C_25  and  O_29
REMARK                            x       y       z     vdW  Elec       q    Type
REMARK                         _______ _______ _______ _____ _____    ______ ____
ROOT
ATOM      1  O   UNL     1       0.158  -0.847  -0.728  0.00  0.00    -0.439 OA
ENDROOT
BRANCH   1   9
ATOM      2  O   UNL     1      -1.975  -0.444   3.600  0.00  0.00    -0.457 OA
ATOM      3  C   UNL     1       0.275  -0.345   3.418  0.00  0.00    +0.042 A 
ATOM      4  C   UNL     1      -0.926  -0.491   2.731  0.00  0.00    +0.148 A 
ATOM      5  C   UNL     1      -0.078  -0.200   4.785  0.00  0.00    +0.087 A 
ATOM      6  C   UNL     1      -1.451  -0.266   4.841  0.00  0.00    +0.128 A 
ATOM      7  C   UNL     1       1.474  -0.370   2.685  0.00  0.00    +0.006 C 
ATOM      8  C   UNL     1      -1.022  -0.662   1.351  0.00  0.00    +0.075 C 
ATOM      9  C   UNL     1       0.183  -0.683   0.642  0.00  0.00    +0.150 C 
ATOM     10  C   UNL     1       1.410  -0.540   1.295  0.00  0.00    +0.038 C 
ATOM     11  C   UNL     1      -2.422  -0.187   5.942  0.00  0.00    +0.073 C 
BRANCH   5  14
ATOM     12  O   UNL     1       1.953  -0.477   5.924  0.00  0.00    -0.270 OA
ATOM     13  N   UNL     1       0.288   0.716   7.010  0.00  0.00    -0.299 N 
ATOM     14  C   UNL     1       0.786  -0.018   5.915  0.00  0.00    +0.249 C 
ATOM     15  C   UNL     1       1.042   1.004   8.209  0.00  0.00    +0.111 C 
ATOM     16  H   UNL     1      -0.635   1.055   6.954  0.00  0.00    +0.150 HD
ENDBRANCH   5  14
ENDBRANCH   1   9
BRANCH   1  20
ATOM     17  N   UNL     1       0.041   1.448  -0.818  0.00  0.00    -0.214 NA
ATOM     18  N   UNL     1      -0.066   2.590  -2.937  0.00  0.00    -0.248 NA
ATOM     19  C   UNL     1       0.055   0.195  -2.885  0.00  0.00    +0.141 C 
ATOM     20  C   UNL     1       0.083   0.286  -1.497  0.00  0.00    +0.212 C 
ATOM     21  C   UNL     1      -0.023   1.412  -3.583  0.00  0.00    +0.072 C 
ATOM     22  C   UNL     1       0.100  -1.031  -3.572  0.00  0.00    +0.029 C 
ATOM     23  C   UNL     1       0.068  -1.051  -4.962  0.00  0.00    +0.169 C 
ATOM     24  C   UNL     1      -0.053   1.362  -4.975  0.00  0.00    +0.055 C 
ATOM     25  C   UNL     1      -0.009   0.147  -5.665  0.00  0.00    +0.173 C 
ATOM     26  C   UNL     1      -0.032   2.544  -1.590  0.00  0.00    +0.253 C 
BRANCH  23  27
ATOM     27  O   UNL     1       0.111  -2.242  -5.620  0.00  0.00    -0.469 OA
ATOM     28  C   UNL     1       0.189  -3.422  -4.821  0.00  0.00    +0.253 C 
ENDBRANCH  23  27
BRANCH  25  29
ATOM     29  O   UNL     1      -0.040   0.150  -7.027  0.00  0.00    -0.468 OA
ATOM     30  C   UNL     1      -0.119   1.421  -7.669  0.00  0.00    +0.253 C 
ENDBRANCH  25  29
ENDBRANCH   1  20
TORSDOF 5
