REMARK  Name = 12358972
REMARK  1 active torsions:
REMARK  status: ('A' for Active; 'I' for Inactive)
REMARK    1  A    between atoms: C_2  and  N_11
REMARK                            x       y       z     vdW  Elec       q    Type
REMARK                         _______ _______ _______ _____ _____    ______ ____
ROOT
ATOM      1  C   UNL     1      -0.469   1.061   0.026  0.00  0.00    -0.016 C 
ATOM      2  C   UNL     1       0.723   0.062  -0.314  0.00  0.00    -0.046 C 
ATOM      3  C   UNL     1      -1.505   0.100   0.714  0.00  0.00    -0.002 C 
ATOM      4  C   UNL     1       0.155  -1.300   0.210  0.00  0.00    -0.018 C 
ATOM      5  C   UNL     1      -0.606  -0.883   1.475  0.00  0.00    -0.002 C 
ATOM      6  C   UNL     1      -2.159  -0.863  -0.294  0.00  0.00    -0.000 C 
ATOM      7  C   UNL     1      -1.013  -1.814  -0.656  0.00  0.00    -0.002 C 
ATOM      8  C   UNL     1      -0.090   2.176   1.036  0.00  0.00    -0.002 C 
ATOM      9  C   UNL     1      -1.059   1.792  -1.195  0.00  0.00    -0.002 C 
ATOM     10  C   UNL     1       1.174   0.013  -1.779  0.00  0.00    -0.022 C 
ENDROOT
BRANCH   2  11
ATOM     11  N   UNL     1       1.934   0.353   0.479  0.00  0.00    +0.385 N 
ATOM     12  C   UNL     1       2.916  -0.698   0.297  0.00  0.00    -0.105 C 
ATOM     13  H   UNL     1       1.684   0.413   1.466  0.00  0.00    -0.084 HD
ATOM     14  H   UNL     1       2.332   1.238   0.166  0.00  0.00    -0.084 HD
ENDBRANCH   2  11
TORSDOF 1
