REMARK  Name = 56206
REMARK  4 active torsions:
REMARK  status: ('A' for Active; 'I' for Inactive)
REMARK    1  A    between atoms: N_3  and  C_22
REMARK    2  A    between atoms: C_4  and  N_13
REMARK    3  A    between atoms: C_12  and  C_29
REMARK    4  A    between atoms: C_29  and  O_30
REMARK                            x       y       z     vdW  Elec       q    Type
REMARK                         _______ _______ _______ _____ _____    ______ ____
ROOT
ATOM      1  F   UNL     1      -2.358  -3.372   0.141  0.00  0.00    -0.203 F 
ATOM      2  O   UNL     1       2.659  -3.544   0.143  0.00  0.00    -0.286 OA
ATOM      3  N   UNL     1       1.740   0.451  -0.049  0.00  0.00    -0.264 N 
ATOM      4  C   UNL     1      -1.701  -1.097  -0.003  0.00  0.00    +0.077 C 
ATOM      5  C   UNL     1      -0.683  -0.140  -0.054  0.00  0.00    +0.032 C 
ATOM      6  C   UNL     1       0.673  -0.512   0.002  0.00  0.00    +0.060 C 
ATOM      7  C   UNL     1      -1.388  -2.449   0.091  0.00  0.00    +0.153 C 
ATOM      8  C   UNL     1       0.966  -1.892   0.068  0.00  0.00    +0.055 C 
ATOM      9  C   UNL     1      -0.056  -2.850   0.121  0.00  0.00    +0.035 C 
ATOM     10  C   UNL     1       2.375  -2.356   0.057  0.00  0.00    +0.204 C 
ATOM     11  C   UNL     1       3.044  -0.037  -0.113  0.00  0.00    +0.079 C 
ATOM     12  C   UNL     1       3.424  -1.319  -0.071  0.00  0.00    +0.129 C 
ENDROOT
BRANCH   4  13
ATOM     13  N   UNL     1      -3.039  -0.691  -0.046  0.00  0.00    -0.310 N 
ATOM     14  N   UNL     1      -5.718   0.293   0.068  0.00  0.00    +0.388 N 
ATOM     15  C   UNL     1      -3.902  -1.034   1.091  0.00  0.00    +0.068 C 
ATOM     16  C   UNL     1      -3.405   0.527  -0.775  0.00  0.00    +0.068 C 
ATOM     17  C   UNL     1      -5.375  -0.997   0.678  0.00  0.00    -0.056 C 
ATOM     18  C   UNL     1      -4.895   0.515  -1.127  0.00  0.00    -0.056 C 
ATOM     19  C   UNL     1      -7.140   0.337  -0.273  0.00  0.00    -0.101 C 
ATOM     20  H   UNL     1      -5.529   1.036   0.740  0.00  0.00    -0.080 HD
ENDBRANCH   4  13
BRANCH   3  22
ATOM     21  F   UNL     1       0.992   5.965   0.187  0.00  0.00    -0.204 F 
ATOM     22  C   UNL     1       1.548   1.870   0.012  0.00  0.00    +0.056 C 
ATOM     23  C   UNL     1       1.546   2.528   1.246  0.00  0.00    +0.017 C 
ATOM     24  C   UNL     1       1.361   2.606  -1.162  0.00  0.00    +0.017 C 
ATOM     25  C   UNL     1       1.358   3.909   1.305  0.00  0.00    +0.031 C 
ATOM     26  C   UNL     1       1.173   3.987  -1.103  0.00  0.00    +0.031 C 
ATOM     27  C   UNL     1       1.172   4.639   0.130  0.00  0.00    +0.140 C 
ENDBRANCH   3  22
BRANCH  12  29
ATOM     28  O   UNL     1       5.735  -0.893   0.289  0.00  0.00    -0.245 OA
ATOM     29  C   UNL     1       4.855  -1.623  -0.132  0.00  0.00    +0.342 C 
BRANCH  29  30
ATOM     30  O   UNL     1       5.039  -2.823  -0.722  0.00  0.00    -0.477 OA
ATOM     31  H   UNL     1       4.301  -3.318  -1.017  0.00  0.00    +0.295 HD
ENDBRANCH  29  30
ENDBRANCH  12  29
TORSDOF 4
