REMARK  Name = 3346
REMARK  5 active torsions:
REMARK  status: ('A' for Active; 'I' for Inactive)
REMARK    1  A    between atoms: C_2  and  O_10
REMARK    2  A    between atoms: C_3  and  S_8
REMARK    3  A    between atoms: O_10  and  P_12
REMARK    4  A    between atoms: P_12  and  O_13
REMARK    5  A    between atoms: P_12  and  O_15
REMARK                            x       y       z     vdW  Elec       q    Type
REMARK                         _______ _______ _______ _____ _____    ______ ____
ROOT
ATOM      1  C   UNL     1      -1.838   0.982   0.153  0.00  0.00    -0.013 C 
ATOM      2  C   UNL     1      -0.015  -0.574   0.408  0.00  0.00    +0.146 C 
ATOM      3  C   UNL     1      -2.748  -0.066   0.289  0.00  0.00    +0.021 C 
ATOM      4  C   UNL     1      -0.467   0.727   0.212  0.00  0.00    +0.034 C 
ATOM      5  C   UNL     1      -0.918  -1.623   0.545  0.00  0.00    +0.038 C 
ATOM      6  C   UNL     1      -2.288  -1.368   0.485  0.00  0.00    +0.009 C 
ATOM      7  C   UNL     1      -2.281   2.394  -0.060  0.00  0.00    +0.032 C 
ENDROOT
BRANCH   3   8
ATOM      8  S   UNL     1      -4.514   0.208   0.220  0.00  0.00    -0.113 S 
ATOM      9  C   UNL     1      -4.987  -0.825  -1.194  0.00  0.00    +0.074 C 
ENDBRANCH   3   8
BRANCH   2  10
ATOM     10  O   UNL     1       1.329  -0.824   0.467  0.00  0.00    -0.425 OA
BRANCH  10  12
ATOM     11  S   UNL     1       2.308   0.236  -2.220  0.00  0.00    +0.036 S 
ATOM     12  P   UNL     1       2.498   0.005  -0.293  0.00  0.00    +0.363 P 
BRANCH  12  13
ATOM     13  O   UNL     1       3.823  -0.803   0.199  0.00  0.00    -0.286 OA
ATOM     14  C   UNL     1       3.959  -2.183  -0.097  0.00  0.00    +0.185 C 
ENDBRANCH  12  13
BRANCH  12  15
ATOM     15  O   UNL     1       2.603   1.352   0.614  0.00  0.00    -0.286 OA
ATOM     16  C   UNL     1       3.538   2.361   0.271  0.00  0.00    +0.185 C 
ENDBRANCH  12  15
ENDBRANCH  10  12
ENDBRANCH   2  10
TORSDOF 5
