REMARK  Name = 5284595
REMARK  4 active torsions:
REMARK  status: ('A' for Active; 'I' for Inactive)
REMARK    1  A    between atoms: N_2  and  C_24
REMARK    2  A    between atoms: C_12  and  O_20
REMARK    3  A    between atoms: C_17  and  O_22
REMARK    4  A    between atoms: C_24  and  C_25
REMARK                            x       y       z     vdW  Elec       q    Type
REMARK                         _______ _______ _______ _____ _____    ______ ____
ROOT
ATOM      1  O   UNL     1      -2.351  -0.125   1.419  0.00  0.00    -0.473 OA
ATOM      2  N   UNL     1       2.665  -0.533  -0.061  0.00  0.00    +0.391 N 
ATOM      3  C   UNL     1      -0.154  -0.769   0.587  0.00  0.00    +0.061 C 
ATOM      4  C   UNL     1       0.501  -1.559  -0.556  0.00  0.00    +0.010 C 
ATOM      5  C   UNL     1       1.645  -0.660  -1.129  0.00  0.00    -0.049 C 
ATOM      6  C   UNL     1      -1.499  -1.292   1.144  0.00  0.00    +0.200 C 
ATOM      7  C   UNL     1       0.888  -0.508   1.691  0.00  0.00    -0.015 C 
ATOM      8  C   UNL     1      -0.656   0.525   0.036  0.00  0.00    +0.014 C 
ATOM      9  C   UNL     1       1.116   0.700  -1.702  0.00  0.00    +0.006 C 
ATOM     10  C   UNL     1       2.178   0.132   1.151  0.00  0.00    -0.076 C 
ATOM     11  C   UNL     1      -0.071   1.268  -0.973  0.00  0.00    -0.025 C 
ATOM     12  C   UNL     1      -2.226  -2.304   0.220  0.00  0.00    +0.172 C 
ATOM     13  C   UNL     1      -0.515  -2.010  -1.574  0.00  0.00    -0.030 C 
ATOM     14  C   UNL     1      -1.870   0.856   0.595  0.00  0.00    +0.168 C 
ATOM     15  C   UNL     1      -1.767  -2.330  -1.213  0.00  0.00    +0.002 C 
ATOM     16  C   UNL     1      -0.701   2.462  -1.332  0.00  0.00    -0.001 C 
ATOM     17  C   UNL     1      -2.506   2.032   0.263  0.00  0.00    +0.167 C 
ATOM     18  C   UNL     1      -1.901   2.849  -0.701  0.00  0.00    +0.039 C 
ATOM     19  H   UNL     1       2.868  -1.497   0.202  0.00  0.00    -0.079 HD
ENDROOT
BRANCH  12  20
ATOM     20  O   UNL     1      -3.635  -2.096   0.285  0.00  0.00    -0.377 OA
ATOM     21  H   UNL     1      -3.917  -2.081   1.213  0.00  0.00    +0.211 HD
ENDBRANCH  12  20
BRANCH  17  22
ATOM     22  O   UNL     1      -3.693   2.379   0.819  0.00  0.00    -0.503 OA
ATOM     23  H   UNL     1      -4.088   1.825   1.463  0.00  0.00    +0.292 HD
ENDBRANCH  17  22
BRANCH   2  24
ATOM     24  C   UNL     1       3.919   0.054  -0.523  0.00  0.00    -0.050 C 
BRANCH  24  25
ATOM     25  C   UNL     1       4.996  -0.060   0.512  0.00  0.00    -0.049 C 
ATOM     26  C   UNL     1       5.636   0.988   1.043  0.00  0.00    -0.007 C 
ENDBRANCH  24  25
ENDBRANCH   2  24
TORSDOF 4
