REMARK  Name = 3830
REMARK  2 active torsions:
REMARK  status: ('A' for Active; 'I' for Inactive)
REMARK    1  A    between atoms: N_1  and  C_14
REMARK    2  A    between atoms: C_14  and  C_16
REMARK                            x       y       z     vdW  Elec       q    Type
REMARK                         _______ _______ _______ _____ _____    ______ ____
ROOT
ATOM      1  N   UNL     1       0.559  -0.108  -0.069  0.00  0.00    -0.314 N 
ATOM      2  N   UNL     1      -1.852   1.802  -0.170  0.00  0.00    -0.270 NA
ATOM      3  N   UNL     1      -1.136  -1.794   0.110  0.00  0.00    -0.232 NA
ATOM      4  N   UNL     1      -3.975   1.133  -0.065  0.00  0.00    -0.307 N 
ATOM      5  N   UNL     1      -3.513  -1.246   0.121  0.00  0.00    -0.232 NA
ATOM      6  C   UNL     1      -1.806   0.442  -0.059  0.00  0.00    +0.164 C 
ATOM      7  C   UNL     1      -0.791  -0.492  -0.006  0.00  0.00    +0.124 C 
ATOM      8  C   UNL     1      -3.137   0.050   0.004  0.00  0.00    +0.125 C 
ATOM      9  C   UNL     1      -3.171   2.170  -0.170  0.00  0.00    +0.163 C 
ATOM     10  C   UNL     1      -2.457  -2.087   0.165  0.00  0.00    +0.252 C 
ATOM     11  H   UNL     1       0.771   0.850  -0.153  0.00  0.00    +0.148 HD
ATOM     12  H   UNL     1      -1.078   2.408  -0.238  0.00  0.00    +0.126 HD
ATOM     13  H   UNL     1      -4.959   1.135  -0.042  0.00  0.00    +0.149 HD
ENDROOT
BRANCH   1  14
ATOM     14  C   UNL     1       1.643  -1.045  -0.017  0.00  0.00    +0.154 C 
BRANCH  14  16
ATOM     15  O   UNL     1       3.201   0.529   0.915  0.00  0.00    -0.453 OA
ATOM     16  C   UNL     1       2.981  -0.357  -0.070  0.00  0.00    +0.143 C 
ATOM     17  C   UNL     1       4.019  -0.463  -0.928  0.00  0.00    +0.038 C 
ATOM     18  C   UNL     1       4.991   0.444  -0.442  0.00  0.00    +0.043 C 
ATOM     19  C   UNL     1       4.445   1.022   0.681  0.00  0.00    +0.179 C 
ENDBRANCH  14  16
ENDBRANCH   1  14
TORSDOF 2
