REMARK  Name = 71587743
REMARK  9 active torsions:
REMARK  status: ('A' for Active; 'I' for Inactive)
REMARK    1  A    between atoms: C_3  and  N_7
REMARK    2  A    between atoms: C_4  and  C_19
REMARK    3  A    between atoms: N_7  and  C_9
REMARK    4  A    between atoms: C_9  and  C_11
REMARK    5  A    between atoms: C_9  and  C_16
REMARK    6  A    between atoms: C_16  and  C_17
REMARK    7  A    between atoms: C_19  and  C_20
REMARK    8  A    between atoms: C_21  and  O_31
REMARK    9  A    between atoms: C_23  and  C_28
REMARK                            x       y       z     vdW  Elec       q    Type
REMARK                         _______ _______ _______ _____ _____    ______ ____
ROOT
ATOM      1  O   UNL     1      -4.068  -1.208  -0.578  0.00  0.00    -0.282 OA
ATOM      2  O   UNL     1      -3.006  -4.055  -0.314  0.00  0.00    -0.283 OA
ATOM      3  C   UNL     1      -1.551  -1.180  -0.745  0.00  0.00    +0.087 C 
ATOM      4  C   UNL     1      -1.091  -2.458  -0.624  0.00  0.00    +0.041 C 
ATOM      5  C   UNL     1      -2.943  -1.634  -0.601  0.00  0.00    +0.247 C 
ATOM      6  C   UNL     1      -2.432  -3.010  -0.473  0.00  0.00    +0.233 C 
ENDROOT
BRANCH   3   7
ATOM      7  N   UNL     1      -1.111   0.041  -0.918  0.00  0.00    -0.326 N 
ATOM      8  H   UNL     1      -0.143   0.180  -1.032  0.00  0.00    +0.147 HD
BRANCH   7   9
ATOM      9  C   UNL     1      -1.987   1.198  -0.948  0.00  0.00    +0.127 C 
BRANCH   9  11
ATOM     10  O   UNL     1      -1.364   1.953   1.289  0.00  0.00    -0.460 OA
ATOM     11  C   UNL     1      -2.376   1.568   0.468  0.00  0.00    +0.140 C 
ATOM     12  C   UNL     1      -3.579   1.602   1.134  0.00  0.00    +0.037 C 
ATOM     13  C   UNL     1      -1.927   2.236   2.493  0.00  0.00    +0.123 C 
ATOM     14  C   UNL     1      -3.287   2.036   2.450  0.00  0.00    +0.036 C 
ATOM     15  C   UNL     1      -1.009   2.679   3.552  0.00  0.00    +0.072 C 
ENDBRANCH   9  11
BRANCH   9  16
ATOM     16  C   UNL     1      -1.290   2.329  -1.726  0.00  0.00    +0.027 C 
BRANCH  16  17
ATOM     17  C   UNL     1      -0.981   1.950  -3.178  0.00  0.00    +0.002 C 
ATOM     18  C   UNL     1      -0.384   3.122  -3.942  0.00  0.00    +0.000 C 
ENDBRANCH  16  17
ENDBRANCH   9  16
ENDBRANCH   7   9
ENDBRANCH   3   7
BRANCH   4  19
ATOM     19  C   UNL     1       0.304  -3.104  -0.639  0.00  0.00    +0.060 C 
BRANCH  19  20
ATOM     20  C   UNL     1       1.333  -2.356   0.203  0.00  0.00    +0.016 C 
ATOM     21  C   UNL     1       2.113  -1.343  -0.356  0.00  0.00    +0.134 C 
ATOM     22  C   UNL     1       1.490  -2.697   1.546  0.00  0.00    -0.001 C 
ATOM     23  C   UNL     1       3.049  -0.671   0.429  0.00  0.00    +0.087 C 
ATOM     24  C   UNL     1       2.427  -2.025   2.331  0.00  0.00    +0.000 C 
ATOM     25  C   UNL     1       3.207  -1.012   1.773  0.00  0.00    +0.008 C 
BRANCH  23  28
ATOM     26  O   UNL     1       4.952   0.055  -0.636  0.00  0.00    -0.270 OA
ATOM     27  N   UNL     1       3.401   1.714  -0.082  0.00  0.00    -0.272 N 
ATOM     28  C   UNL     1       3.873   0.391  -0.131  0.00  0.00    +0.252 C 
ATOM     29  C   UNL     1       4.159   2.829  -0.634  0.00  0.00    +0.115 C 
ATOM     30  C   UNL     1       2.119   2.061   0.526  0.00  0.00    +0.115 C 
ENDBRANCH  23  28
BRANCH  21  31
ATOM     31  O   UNL     1       1.956  -1.011  -1.669  0.00  0.00    -0.506 OA
ATOM     32  H   UNL     1       1.326  -1.464  -2.195  0.00  0.00    +0.292 HD
ENDBRANCH  21  31
ENDBRANCH  19  20
ENDBRANCH   4  19
TORSDOF 9
