REMARK  Name = 53465279
REMARK  6 active torsions:
REMARK  status: ('A' for Active; 'I' for Inactive)
REMARK    1  A    between atoms: C_1  and  C_23
REMARK    2  A    between atoms: C_5  and  N_12
REMARK    3  A    between atoms: C_15  and  S_17
REMARK    4  A    between atoms: S_17  and  C_18
REMARK    5  A    between atoms: C_18  and  C_20
REMARK    6  A    between atoms: C_20  and  O_21
REMARK                            x       y       z     vdW  Elec       q    Type
REMARK                         _______ _______ _______ _____ _____    ______ ____
ROOT
ATOM      1  C   UNL     1       2.813  -0.503   0.791  0.00  0.00    -0.022 C 
ATOM      2  C   UNL     1       2.366  -0.113  -0.482  0.00  0.00    -0.003 C 
ATOM      3  C   UNL     1       2.042  -0.247   1.925  0.00  0.00    -0.003 C 
ATOM      4  C   UNL     1       1.120   0.545  -0.607  0.00  0.00    +0.016 C 
ATOM      5  C   UNL     1       0.357   0.795   0.546  0.00  0.00    +0.068 C 
ATOM      6  C   UNL     1       0.816   0.401   1.803  0.00  0.00    +0.017 C 
ATOM      7  C   UNL     1       3.129  -0.363  -1.634  0.00  0.00    -0.000 C 
ATOM      8  C   UNL     1       0.673   0.935  -1.880  0.00  0.00    +0.001 C 
ATOM      9  C   UNL     1       2.670   0.031  -2.892  0.00  0.00    -0.000 C 
ATOM     10  C   UNL     1       1.444   0.679  -3.014  0.00  0.00    +0.000 C 
ENDROOT
BRANCH   5  12
ATOM     11 BR   UNL     1       0.212   4.138   0.809  0.00  0.00    -0.006 Br
ATOM     12  N   UNL     1      -0.873   1.436   0.489  0.00  0.00    -0.264 N 
ATOM     13  N   UNL     1      -3.023   1.809   0.332  0.00  0.00    -0.121 NA
ATOM     14  N   UNL     1      -2.381   3.021   0.487  0.00  0.00    -0.121 NA
ATOM     15  C   UNL     1      -2.103   0.871   0.336  0.00  0.00    +0.198 A 
ATOM     16  C   UNL     1      -1.094   2.776   0.580  0.00  0.00    +0.205 A 
BRANCH  15  17
ATOM     17  S   UNL     1      -2.379  -0.825   0.171  0.00  0.00    -0.063 S 
BRANCH  17  18
ATOM     18  C   UNL     1      -4.195  -0.945   0.001  0.00  0.00    +0.174 C 
BRANCH  18  20
ATOM     19  O   UNL     1      -3.965  -3.321   0.335  0.00  0.00    -0.249 OA
ATOM     20  C   UNL     1      -4.588  -2.386  -0.152  0.00  0.00    +0.325 C 
BRANCH  20  21
ATOM     21  O   UNL     1      -5.722  -2.545  -0.880  0.00  0.00    -0.480 OA
ATOM     22  H   UNL     1      -6.162  -1.797  -1.232  0.00  0.00    +0.295 HD
ENDBRANCH  20  21
ENDBRANCH  18  20
ENDBRANCH  17  18
ENDBRANCH  15  17
ENDBRANCH   5  12
BRANCH   1  23
ATOM     23  C   UNL     1       4.121  -1.203   0.991  0.00  0.00    +0.022 C 
ATOM     24  C   UNL     1       4.152  -2.520   1.711  0.00  0.00    +0.005 C 
ATOM     25  C   UNL     1       4.407  -2.466   0.233  0.00  0.00    +0.005 C 
ENDBRANCH   1  23
TORSDOF 6
