REMARK  Name = 9910486
REMARK  3 active torsions:
REMARK  status: ('A' for Active; 'I' for Inactive)
REMARK    1  A    between atoms: C_3  and  N_13
REMARK    2  A    between atoms: C_10  and  C_28
REMARK    3  A    between atoms: N_14  and  C_19
REMARK                            x       y       z     vdW  Elec       q    Type
REMARK                         _______ _______ _______ _____ _____    ______ ____
ROOT
ATOM      1  N   UNL     1       1.484  -1.356   0.133  0.00  0.00    -0.291 N 
ATOM      2  N   UNL     1       3.244  -0.336  -1.145  0.00  0.00    -0.229 NA
ATOM      3  C   UNL     1      -0.695  -2.068  -0.434  0.00  0.00    +0.094 C 
ATOM      4  C   UNL     1      -0.307  -2.675   0.908  0.00  0.00    +0.043 C 
ATOM      5  C   UNL     1       0.655  -1.663  -1.034  0.00  0.00    +0.112 C 
ATOM      6  C   UNL     1       0.859  -1.803   1.376  0.00  0.00    +0.094 C 
ATOM      7  C   UNL     1       2.712  -0.733   0.068  0.00  0.00    +0.132 C 
ATOM      8  C   UNL     1       3.436  -0.497   1.260  0.00  0.00    +0.034 C 
ATOM      9  C   UNL     1       4.676   0.131   1.210  0.00  0.00    +0.008 C 
ATOM     10  C   UNL     1       5.200   0.525  -0.016  0.00  0.00    +0.091 C 
ATOM     11  C   UNL     1       4.452   0.271  -1.153  0.00  0.00    +0.104 C 
ENDROOT
BRANCH   3  13
ATOM     12  O   UNL     1      -3.559  -2.080  -0.442  0.00  0.00    -0.252 OA
ATOM     13  N   UNL     1      -1.563  -0.927  -0.261  0.00  0.00    -0.289 N 
ATOM     14  N   UNL     1      -3.533   0.240  -0.086  0.00  0.00    -0.268 N 
ATOM     15  C   UNL     1      -2.960  -1.020  -0.278  0.00  0.00    +0.304 C 
ATOM     16  H   UNL     1      -1.154  -0.043  -0.125  0.00  0.00    +0.151 HD
ATOM     17  H   UNL     1      -2.903   0.988   0.030  0.00  0.00    +0.156 HD
BRANCH  14  19
ATOM     18 BR   UNL     1      -4.093   3.310   0.382  0.00  0.00    -0.048 Br
ATOM     19  C   UNL     1      -4.907   0.571  -0.038  0.00  0.00    +0.058 C 
ATOM     20  C   UNL     1      -5.321   1.879   0.161  0.00  0.00    +0.048 C 
ATOM     21  C   UNL     1      -5.825  -0.456  -0.196  0.00  0.00    +0.015 C 
ATOM     22  C   UNL     1      -6.685   2.167   0.203  0.00  0.00    +0.008 C 
ATOM     23  C   UNL     1      -7.189  -0.168  -0.154  0.00  0.00    +0.001 C 
ATOM     24  C   UNL     1      -7.619   1.144   0.046  0.00  0.00    +0.001 C 
ENDBRANCH  14  19
ENDBRANCH   3  13
BRANCH  10  28
ATOM     25  F   UNL     1       7.133   1.376   1.109  0.00  0.00    -0.166 F 
ATOM     26  F   UNL     1       7.438   0.522  -0.861  0.00  0.00    -0.166 F 
ATOM     27  F   UNL     1       6.446   2.447  -0.655  0.00  0.00    -0.166 F 
ATOM     28  C   UNL     1       6.523   1.199  -0.102  0.00  0.00    +0.420 C 
ENDBRANCH  10  28
TORSDOF 3
