REMARK  Name = 135564558
REMARK  4 active torsions:
REMARK  status: ('A' for Active; 'I' for Inactive)
REMARK    1  A    between atoms: N_2  and  C_27
REMARK    2  A    between atoms: C_6  and  C_13
REMARK    3  A    between atoms: N_12  and  C_19
REMARK    4  A    between atoms: C_19  and  C_22
REMARK                            x       y       z     vdW  Elec       q    Type
REMARK                         _______ _______ _______ _____ _____    ______ ____
ROOT
ATOM      1  O   UNL     1      -4.117  -3.123   1.167  0.00  0.00    -0.274 OA
ATOM      2  N   UNL     1      -2.528   0.984   0.085  0.00  0.00    -0.189 N 
ATOM      3  N   UNL     1      -1.856  -2.882   0.653  0.00  0.00    -0.262 N 
ATOM      4  N   UNL     1      -0.873  -0.771   0.063  0.00  0.00    -0.378 NA
ATOM      5  N   UNL     1      -3.842   1.175   0.323  0.00  0.00    -0.178 NA
ATOM      6  C   UNL     1      -0.785  -2.056   0.279  0.00  0.00    +0.161 C 
ATOM      7  C   UNL     1      -2.134  -0.310   0.240  0.00  0.00    +0.194 C 
ATOM      8  C   UNL     1      -3.263  -1.006   0.602  0.00  0.00    +0.187 C 
ATOM      9  C   UNL     1      -3.166  -2.423   0.842  0.00  0.00    +0.241 C 
ATOM     10  C   UNL     1      -4.285  -0.049   0.639  0.00  0.00    +0.109 C 
ATOM     11  H   UNL     1      -1.676  -3.840   0.791  0.00  0.00    +0.157 HD
ENDROOT
BRANCH   6  13
ATOM     12  N   UNL     1       2.344  -1.627  -0.851  0.00  0.00    +0.397 N 
ATOM     13  C   UNL     1       0.522  -2.774   0.140  0.00  0.00    +0.044 C 
ATOM     14  C   UNL     1       0.737  -3.227  -1.310  0.00  0.00    -0.015 C 
ATOM     15  C   UNL     1       1.701  -1.847   0.449  0.00  0.00    -0.067 C 
ATOM     16  C   UNL     1       2.200  -2.888  -1.579  0.00  0.00    -0.075 C 
ATOM     17  C   UNL     1       0.426  -4.700  -1.531  0.00  0.00    -0.002 C 
ATOM     18  H   UNL     1       1.902  -0.858  -1.356  0.00  0.00    -0.078 HD
BRANCH  12  19
ATOM     19  C   UNL     1       3.733  -1.211  -0.724  0.00  0.00    +0.025 C 
BRANCH  19  22
ATOM     20  N   UNL     1       3.545   1.206  -0.617  0.00  0.00    -0.199 NA
ATOM     21  N   UNL     1       4.290  -0.023   1.318  0.00  0.00    -0.221 NA
ATOM     22  C   UNL     1       3.865   0.077   0.044  0.00  0.00    -0.014 C 
ATOM     23  C   UNL     1       3.675   2.341   0.100  0.00  0.00    +0.107 C 
ATOM     24  C   UNL     1       4.397   1.150   1.976  0.00  0.00    +0.164 C 
ATOM     25  C   UNL     1       4.101   2.375   1.413  0.00  0.00    +0.022 C 
ENDBRANCH  19  22
ENDBRANCH  12  19
ENDBRANCH   6  13
BRANCH   2  27
ATOM     26  O   UNL     1      -1.294   4.963  -0.902  0.00  0.00    -0.354 OA
ATOM     27  C   UNL     1      -1.662   2.164  -0.312  0.00  0.00    +0.104 C 
ATOM     28  C   UNL     1      -2.106   2.795  -1.641  0.00  0.00    +0.054 C 
ATOM     29  C   UNL     1      -1.602   3.240   0.784  0.00  0.00    +0.054 C 
ATOM     30  C   UNL     1      -1.248   4.013  -1.966  0.00  0.00    +0.144 C 
ATOM     31  C   UNL     1      -0.774   4.432   0.317  0.00  0.00    +0.144 C 
ENDBRANCH   2  27
TORSDOF 4
