REMARK  Name = 71587773
REMARK  7 active torsions:
REMARK  status: ('A' for Active; 'I' for Inactive)
REMARK    1  A    between atoms: C_1  and  C_17
REMARK    2  A    between atoms: C_1  and  C_20
REMARK    3  A    between atoms: C_4  and  N_6
REMARK    4  A    between atoms: N_6  and  C_10
REMARK    5  A    between atoms: C_11  and  O_15
REMARK    6  A    between atoms: C_20  and  N_21
REMARK    7  A    between atoms: C_29  and  C_35
REMARK                            x       y       z     vdW  Elec       q    Type
REMARK                         _______ _______ _______ _____ _____    ______ ____
ROOT
ATOM      1  C   UNL     1      -0.848   1.483  -0.570  0.00  0.00    -0.021 C 
ATOM      2  C   UNL     1      -2.345   1.882  -0.495  0.00  0.00    -0.023 C 
ATOM      3  C   UNL     1      -0.830   0.086  -1.229  0.00  0.00    -0.004 C 
ATOM      4  C   UNL     1      -3.150   0.649  -0.920  0.00  0.00    -0.062 C 
ATOM      5  C   UNL     1      -2.200  -0.060  -1.881  0.00  0.00    -0.021 C 
ENDROOT
BRANCH   4   6
ATOM      6  N   UNL     1      -3.485  -0.184   0.234  0.00  0.00    +0.388 N 
ATOM      7  H   UNL     1      -3.830   0.412   0.986  0.00  0.00    -0.084 HD
ATOM      8  H   UNL     1      -2.644  -0.682   0.529  0.00  0.00    -0.084 HD
BRANCH   6  10
ATOM      9  O   UNL     1      -6.884  -2.626   0.605  0.00  0.00    -0.351 OA
ATOM     10  C   UNL     1      -4.511  -1.167  -0.106  0.00  0.00    -0.029 C 
ATOM     11  C   UNL     1      -5.904  -0.525  -0.156  0.00  0.00    +0.126 C 
ATOM     12  C   UNL     1      -4.488  -2.327   0.894  0.00  0.00    +0.013 C 
ATOM     13  C   UNL     1      -6.970  -1.597  -0.385  0.00  0.00    +0.169 C 
ATOM     14  C   UNL     1      -5.625  -3.297   0.590  0.00  0.00    +0.140 C 
BRANCH  11  15
ATOM     15  O   UNL     1      -6.182   0.129   1.083  0.00  0.00    -0.353 OA
ATOM     16  C   UNL     1      -7.206   1.100   0.936  0.00  0.00    +0.174 C 
ENDBRANCH  11  15
ENDBRANCH   6  10
ENDBRANCH   4   6
BRANCH   1  17
ATOM     17  C   UNL     1      -0.075   2.493  -1.432  0.00  0.00    -0.002 C 
ATOM     18  C   UNL     1      -0.686   2.574  -2.826  0.00  0.00    -0.000 C 
ATOM     19  C   UNL     1      -0.066   3.862  -0.761  0.00  0.00    -0.000 C 
ENDBRANCH   1  17
BRANCH   1  20
ATOM     20  C   UNL     1      -0.212   1.435   0.825  0.00  0.00    -0.077 C 
BRANCH  20  21
ATOM     21  N   UNL     1       1.247   1.481   0.743  0.00  0.00    +0.390 N 
ATOM     22  N   UNL     1       5.380   1.011   1.301  0.00  0.00    -0.249 NA
ATOM     23  C   UNL     1       1.825   1.997   1.990  0.00  0.00    -0.071 C 
ATOM     24  C   UNL     1       1.787   0.142   0.443  0.00  0.00    -0.049 C 
ATOM     25  C   UNL     1       3.328   2.227   1.808  0.00  0.00    +0.023 C 
ATOM     26  C   UNL     1       3.292   0.082   0.501  0.00  0.00    -0.030 C 
ATOM     27  C   UNL     1       4.030   1.045   1.193  0.00  0.00    +0.051 C 
ATOM     28  C   UNL     1       3.990  -0.981  -0.077  0.00  0.00    +0.000 C 
ATOM     29  C   UNL     1       5.374  -1.041   0.026  0.00  0.00    +0.090 C 
ATOM     30  C   UNL     1       6.016  -0.029   0.718  0.00  0.00    +0.102 C 
ATOM     31  H   UNL     1       1.503   2.114  -0.015  0.00  0.00    -0.079 HD
BRANCH  29  35
ATOM     32  F   UNL     1       7.051  -1.745  -1.528  0.00  0.00    -0.166 F 
ATOM     33  F   UNL     1       6.865  -2.890   0.305  0.00  0.00    -0.166 F 
ATOM     34  F   UNL     1       5.340  -3.055  -1.236  0.00  0.00    -0.166 F 
ATOM     35  C   UNL     1       6.141  -2.155  -0.593  0.00  0.00    +0.420 C 
ENDBRANCH  29  35
ENDBRANCH  20  21
ENDBRANCH   1  20
TORSDOF 7
