REMARK  Name = 9911830
REMARK  5 active torsions:
REMARK  status: ('A' for Active; 'I' for Inactive)
REMARK    1  A    between atoms: C_2  and  O_20
REMARK    2  A    between atoms: C_3  and  N_10
REMARK    3  A    between atoms: O_20  and  C_24
REMARK    4  A    between atoms: C_26  and  O_31
REMARK    5  A    between atoms: C_28  and  O_33
REMARK                            x       y       z     vdW  Elec       q    Type
REMARK                         _______ _______ _______ _____ _____    ______ ____
ROOT
ATOM      1 CL   UNL     1       1.011  -1.166  -2.272  0.00  0.00    -0.081 Cl
ATOM      2  C   UNL     1      -0.601   0.481   0.968  0.00  0.00    +0.146 C 
ATOM      3  C   UNL     1       1.950  -0.050   0.035  0.00  0.00    +0.062 C 
ATOM      4  C   UNL     1      -0.446  -0.133  -0.262  0.00  0.00    +0.050 C 
ATOM      5  C   UNL     1       0.490   0.836   1.743  0.00  0.00    +0.039 C 
ATOM      6  C   UNL     1       0.839  -0.400  -0.733  0.00  0.00    +0.074 C 
ATOM      7  C   UNL     1       1.775   0.569   1.272  0.00  0.00    +0.019 C 
ENDROOT
BRANCH   3  10
ATOM      8  O   UNL     1       8.762   0.116   0.715  0.00  0.00    -0.357 OA
ATOM      9  O   UNL     1       4.575   0.530   1.336  0.00  0.00    -0.252 OA
ATOM     10  N   UNL     1       3.252  -0.302  -0.409  0.00  0.00    -0.267 N 
ATOM     11  N   UNL     1       5.550  -0.434  -0.558  0.00  0.00    -0.251 N 
ATOM     12  N   UNL     1       7.381   0.209   0.834  0.00  0.00    -0.062 NA
ATOM     13  C   UNL     1       4.475  -0.012   0.240  0.00  0.00    +0.309 C 
ATOM     14  C   UNL     1       6.934  -0.332  -0.281  0.00  0.00    +0.177 C 
ATOM     15  C   UNL     1       7.920  -0.783  -1.143  0.00  0.00    +0.073 C 
ATOM     16  C   UNL     1       9.071  -0.477  -0.467  0.00  0.00    +0.156 C 
ATOM     17  C   UNL     1      10.499  -0.656  -0.757  0.00  0.00    +0.075 C 
ATOM     18  H   UNL     1       3.327  -0.740  -1.287  0.00  0.00    +0.156 HD
ATOM     19  H   UNL     1       5.312  -0.854  -1.417  0.00  0.00    +0.158 HD
ENDBRANCH   3  10
BRANCH   2  20
ATOM     20  O   UNL     1      -1.875   0.745   1.437  0.00  0.00    -0.453 OA
BRANCH  20  24
ATOM     21  N   UNL     1      -4.545   2.461  -1.232  0.00  0.00    -0.244 NA
ATOM     22  C   UNL     1      -3.967   0.639   0.235  0.00  0.00    +0.055 C 
ATOM     23  C   UNL     1      -4.837   1.269  -0.678  0.00  0.00    +0.087 C 
ATOM     24  C   UNL     1      -2.769   1.290   0.561  0.00  0.00    +0.148 C 
ATOM     25  C   UNL     1      -4.304  -0.606   0.794  0.00  0.00    +0.045 C 
ATOM     26  C   UNL     1      -5.500  -1.230   0.453  0.00  0.00    +0.173 C 
ATOM     27  C   UNL     1      -6.027   0.622  -1.002  0.00  0.00    +0.059 C 
ATOM     28  C   UNL     1      -6.362  -0.615  -0.446  0.00  0.00    +0.174 C 
ATOM     29  C   UNL     1      -2.465   2.518  -0.008  0.00  0.00    +0.058 C 
ATOM     30  C   UNL     1      -3.379   3.056  -0.891  0.00  0.00    +0.102 C 
BRANCH  26  31
ATOM     31  O   UNL     1      -5.812  -2.436   1.004  0.00  0.00    -0.468 OA
ATOM     32  C   UNL     1      -5.379  -3.601   0.304  0.00  0.00    +0.253 C 
ENDBRANCH  26  31
BRANCH  28  33
ATOM     33  O   UNL     1      -7.539  -1.208  -0.794  0.00  0.00    -0.468 OA
ATOM     34  C   UNL     1      -8.681  -0.899   0.002  0.00  0.00    +0.253 C 
ENDBRANCH  28  33
ENDBRANCH  20  24
ENDBRANCH   2  20
TORSDOF 5
