REMARK  Name = 42642654
REMARK  7 active torsions:
REMARK  status: ('A' for Active; 'I' for Inactive)
REMARK    1  A    between atoms: C_3  and  N_19
REMARK    2  A    between atoms: C_5  and  C_12
REMARK    3  A    between atoms: N_11  and  O_14
REMARK    4  A    between atoms: O_14  and  C_15
REMARK    5  A    between atoms: C_15  and  C_16
REMARK    6  A    between atoms: C_16  and  O_17
REMARK    7  A    between atoms: N_19  and  C_23
REMARK                            x       y       z     vdW  Elec       q    Type
REMARK                         _______ _______ _______ _____ _____    ______ ____
ROOT
ATOM      1  N   UNL     1       2.990  -0.340   0.022  0.00  0.00    -0.235 N 
ATOM      2  N   UNL     1       4.907  -1.428  -0.398  0.00  0.00    -0.224 NA
ATOM      3  C   UNL     1       1.661  -0.024   0.398  0.00  0.00    +0.114 C 
ATOM      4  C   UNL     1       3.900   0.593  -0.461  0.00  0.00    +0.077 C 
ATOM      5  C   UNL     1       1.283   1.273   0.269  0.00  0.00    +0.083 C 
ATOM      6  C   UNL     1       3.482   1.939  -0.586  0.00  0.00    +0.017 C 
ATOM      7  C   UNL     1       2.226   2.267  -0.235  0.00  0.00    +0.008 C 
ATOM      8  C   UNL     1       3.669  -1.541   0.033  0.00  0.00    +0.173 C 
ATOM      9  C   UNL     1       5.058  -0.104  -0.707  0.00  0.00    +0.116 C 
ENDROOT
BRANCH   5  12
ATOM     10  O   UNL     1      -0.496   1.594   1.771  0.00  0.00    -0.268 OA
ATOM     11  N   UNL     1      -0.738   2.277  -0.433  0.00  0.00    -0.190 N 
ATOM     12  C   UNL     1      -0.070   1.725   0.627  0.00  0.00    +0.270 C 
ATOM     13  H   UNL     1      -0.355   2.304  -1.340  0.00  0.00    +0.183 HD
BRANCH  11  14
ATOM     14  O   UNL     1      -2.010   2.802  -0.136  0.00  0.00    -0.263 OA
BRANCH  14  15
ATOM     15  C   UNL     1      -2.974   2.115  -0.921  0.00  0.00    +0.203 C 
BRANCH  15  16
ATOM     16  C   UNL     1      -4.351   2.670  -0.612  0.00  0.00    +0.172 C 
BRANCH  16  17
ATOM     17  O   UNL     1      -4.636   2.462   0.766  0.00  0.00    -0.379 OA
ATOM     18  H   UNL     1      -5.516   2.815   0.971  0.00  0.00    +0.211 HD
ENDBRANCH  16  17
ENDBRANCH  15  16
ENDBRANCH  14  15
ENDBRANCH  11  14
ENDBRANCH   5  12
BRANCH   3  19
ATOM     19  N   UNL     1       0.876  -1.048   0.857  0.00  0.00    -0.299 N 
ATOM     20  H   UNL     1       1.202  -1.512   1.662  0.00  0.00    +0.153 HD
BRANCH  19  23
ATOM     21  I   UNL     1      -4.524  -3.148  -1.524  0.00  0.00    -0.042 I 
ATOM     22  F   UNL     1      -1.067  -2.179   2.486  0.00  0.00    -0.203 F 
ATOM     23  C   UNL     1      -0.329  -1.517   0.328  0.00  0.00    +0.077 C 
ATOM     24  C   UNL     1      -1.289  -2.081   1.168  0.00  0.00    +0.154 C 
ATOM     25  C   UNL     1      -0.571  -1.420  -1.042  0.00  0.00    +0.017 C 
ATOM     26  C   UNL     1      -2.491  -2.548   0.637  0.00  0.00    +0.037 C 
ATOM     27  C   UNL     1      -1.773  -1.888  -1.573  0.00  0.00    +0.007 C 
ATOM     28  C   UNL     1      -2.733  -2.452  -0.734  0.00  0.00    +0.032 C 
ENDBRANCH  19  23
ENDBRANCH   3  19
TORSDOF 7
