REMARK  Name = 153999
REMARK  2 active torsions:
REMARK  status: ('A' for Active; 'I' for Inactive)
REMARK    1  A    between atoms: C_7  and  C_33
REMARK    2  A    between atoms: C_33  and  N_34
REMARK                            x       y       z     vdW  Elec       q    Type
REMARK                         _______ _______ _______ _____ _____    ______ ____
ROOT
ATOM      1  O   UNL     1       2.327  -0.018  -1.142  0.00  0.00    -0.356 OA
ATOM      2  O   UNL     1      -3.993   1.989   1.673  0.00  0.00    -0.270 OA
ATOM      3  O   UNL     1      -4.289  -2.352   0.242  0.00  0.00    -0.270 OA
ATOM      4  N   UNL     1       0.765   2.216   0.619  0.00  0.00    -0.286 N 
ATOM      5  N   UNL     1       0.266  -1.996  -1.723  0.00  0.00    -0.283 N 
ATOM      6  N   UNL     1      -4.507  -0.205   1.101  0.00  0.00    -0.248 N 
ATOM      7  C   UNL     1       3.446   0.540  -0.445  0.00  0.00    +0.096 C 
ATOM      8  C   UNL     1       3.164   2.024  -0.132  0.00  0.00    +0.049 C 
ATOM      9  C   UNL     1       2.164   2.329   0.992  0.00  0.00    +0.098 C 
ATOM     10  C   UNL     1      -1.313   1.427   0.493  0.00  0.00    +0.021 C 
ATOM     11  C   UNL     1       0.033   3.175  -0.054  0.00  0.00    +0.052 C 
ATOM     12  C   UNL     1      -1.281   2.699  -0.150  0.00  0.00    +0.015 C 
ATOM     13  C   UNL     1      -2.413   0.530   0.596  0.00  0.00    +0.059 C 
ATOM     14  C   UNL     1      -1.486  -1.535  -0.438  0.00  0.00    +0.021 C 
ATOM     15  C   UNL     1      -0.046   1.170   0.975  0.00  0.00    +0.066 C 
ATOM     16  C   UNL     1      -2.489  -0.755   0.200  0.00  0.00    +0.059 C 
ATOM     17  C   UNL     1       1.407  -1.732  -2.586  0.00  0.00    +0.128 C 
ATOM     18  C   UNL     1      -1.032  -2.850  -0.117  0.00  0.00    +0.015 C 
ATOM     19  C   UNL     1       0.062  -3.121  -0.953  0.00  0.00    +0.052 C 
ATOM     20  C   UNL     1       2.622  -1.261  -1.789  0.00  0.00    +0.164 C 
ATOM     21  C   UNL     1      -0.717  -1.074  -1.484  0.00  0.00    +0.066 C 
ATOM     22  C   UNL     1      -3.716   0.903   1.193  0.00  0.00    +0.252 C 
ATOM     23  C   UNL     1       0.414   4.416  -0.591  0.00  0.00    +0.015 C 
ATOM     24  C   UNL     1      -3.854  -1.244   0.506  0.00  0.00    +0.252 C 
ATOM     25  C   UNL     1      -2.238   3.486  -0.829  0.00  0.00    +0.001 C 
ATOM     26  C   UNL     1      -1.408  -3.825   0.833  0.00  0.00    +0.001 C 
ATOM     27  C   UNL     1       0.768  -4.332  -0.889  0.00  0.00    +0.015 C 
ATOM     28  C   UNL     1      -0.556   5.179  -1.246  0.00  0.00    +0.001 C 
ATOM     29  C   UNL     1      -1.863   4.722  -1.366  0.00  0.00    +0.000 C 
ATOM     30  C   UNL     1      -0.713  -5.038   0.896  0.00  0.00    +0.000 C 
ATOM     31  C   UNL     1       0.357  -5.287   0.044  0.00  0.00    +0.001 C 
ATOM     32  H   UNL     1      -5.436  -0.249   1.425  0.00  0.00    +0.158 HD
ENDROOT
BRANCH   7  33
ATOM     33  C   UNL     1       3.788  -0.266   0.807  0.00  0.00    -0.047 C 
BRANCH  33  34
ATOM     34  N   UNL     1       4.958   0.283   1.474  0.00  0.00    +0.386 N 
ATOM     35  C   UNL     1       6.122   0.257   0.584  0.00  0.00    -0.101 C 
ATOM     36  C   UNL     1       5.248  -0.455   2.706  0.00  0.00    -0.101 C 
ATOM     37  H   UNL     1       4.756   1.253   1.716  0.00  0.00    -0.080 HD
ENDBRANCH  33  34
ENDBRANCH   7  33
TORSDOF 2
