REMARK  Name = 35775
REMARK  1 active torsions:
REMARK  status: ('A' for Active; 'I' for Inactive)
REMARK    1  A    between atoms: C_8  and  C_16
REMARK                            x       y       z     vdW  Elec       q    Type
REMARK                         _______ _______ _______ _____ _____    ______ ____
ROOT
ATOM      1  O   UNL     1      -2.711  -2.970  -0.007  0.00  0.00    -0.272 OA
ATOM      2  N   UNL     1      -2.628  -0.652  -0.205  0.00  0.00    -0.241 N 
ATOM      3  N   UNL     1      -2.230   1.736  -0.277  0.00  0.00    -0.236 N 
ATOM      4  N   UNL     1      -1.308   2.679  -0.035  0.00  0.00    -0.172 NA
ATOM      5  N   UNL     1       0.071  -1.656   1.058  0.00  0.00    -0.260 NA
ATOM      6  C   UNL     1      -1.805   0.459  -0.027  0.00  0.00    +0.137 A 
ATOM      7  C   UNL     1      -0.473   0.573   0.331  0.00  0.00    +0.064 A 
ATOM      8  C   UNL     1       0.448  -0.524   0.570  0.00  0.00    +0.083 C 
ATOM      9  C   UNL     1      -0.237   1.970   0.324  0.00  0.00    +0.083 A 
ATOM     10  C   UNL     1      -2.248  -1.882   0.345  0.00  0.00    +0.255 C 
ATOM     11  C   UNL     1      -1.296  -1.823   1.521  0.00  0.00    +0.210 C 
ATOM     12  C   UNL     1      -3.850  -0.572  -1.001  0.00  0.00    +0.122 C 
ATOM     13  C   UNL     1      -3.548   2.216  -0.631  0.00  0.00    +0.155 C 
ATOM     14  C   UNL     1       1.009   2.688   0.648  0.00  0.00    +0.054 C 
ENDROOT
BRANCH   8  16
ATOM     15  F   UNL     1       1.486  -1.179  -1.971  0.00  0.00    -0.204 F 
ATOM     16  C   UNL     1       1.879  -0.346   0.218  0.00  0.00    +0.045 C 
ATOM     17  C   UNL     1       2.330  -0.687  -1.054  0.00  0.00    +0.142 C 
ATOM     18  C   UNL     1       2.763   0.164   1.166  0.00  0.00    +0.004 C 
ATOM     19  C   UNL     1       3.676  -0.518  -1.381  0.00  0.00    +0.030 C 
ATOM     20  C   UNL     1       4.108   0.333   0.839  0.00  0.00    +0.000 C 
ATOM     21  C   UNL     1       4.565  -0.008  -0.434  0.00  0.00    +0.002 C 
ENDBRANCH   8  16
TORSDOF 1
