REMARK  Name = 64685
REMARK  1 active torsions:
REMARK  status: ('A' for Active; 'I' for Inactive)
REMARK    1  A    between atoms: C_4  and  O_11
REMARK                            x       y       z     vdW  Elec       q    Type
REMARK                         _______ _______ _______ _____ _____    ______ ____
ROOT
ATOM      1  C   UNL     1      -0.172  -0.692   0.321  0.00  0.00    +0.025 C 
ATOM      2  C   UNL     1       1.107  -0.035  -0.281  0.00  0.00    +0.002 C 
ATOM      3  C   UNL     1       0.425   1.360  -0.306  0.00  0.00    +0.002 C 
ATOM      4  C   UNL     1      -1.266  -0.310  -0.721  0.00  0.00    +0.110 C 
ATOM      5  C   UNL     1      -0.420   0.154   1.603  0.00  0.00    +0.002 C 
ATOM      6  C   UNL     1      -0.869   1.123  -1.122  0.00  0.00    +0.029 C 
ATOM      7  C   UNL     1      -0.018   1.570   1.159  0.00  0.00    +0.000 C 
ATOM      8  C   UNL     1      -0.108  -2.180   0.608  0.00  0.00    +0.002 C 
ATOM      9  C   UNL     1       1.532  -0.552  -1.670  0.00  0.00    +0.000 C 
ATOM     10  C   UNL     1       2.368  -0.101   0.604  0.00  0.00    +0.000 C 
ENDROOT
BRANCH   4  11
ATOM     11  O   UNL     1      -2.581  -0.336  -0.194  0.00  0.00    -0.384 OA
ATOM     12  H   UNL     1      -2.812  -1.246   0.053  0.00  0.00    +0.210 HD
ENDBRANCH   4  11
TORSDOF 1
