REMARK  Name = 72157
REMARK  4 active torsions:
REMARK  status: ('A' for Active; 'I' for Inactive)
REMARK    1  A    between atoms: C_7  and  O_16
REMARK    2  A    between atoms: C_12  and  O_14
REMARK    3  A    between atoms: O_16  and  C_17
REMARK    4  A    between atoms: C_17  and  C_18
REMARK                            x       y       z     vdW  Elec       q    Type
REMARK                         _______ _______ _______ _____ _____    ______ ____
ROOT
ATOM      1  S   UNL     1      -0.751  -1.584   0.479  0.00  0.00    -0.056 S 
ATOM      2  O   UNL     1      -4.497   1.032  -0.399  0.00  0.00    -0.226 OA
ATOM      3  N   UNL     1      -1.551   0.801  -0.090  0.00  0.00    -0.384 NA
ATOM      4  N   UNL     1      -3.248  -0.892   0.115  0.00  0.00    -0.220 N 
ATOM      5  C   UNL     1       0.452  -0.358   0.327  0.00  0.00    +0.132 C 
ATOM      6  C   UNL     1      -0.169   0.856   0.018  0.00  0.00    +0.126 C 
ATOM      7  C   UNL     1       2.618   0.688   0.294  0.00  0.00    +0.136 C 
ATOM      8  C   UNL     1       1.845  -0.463   0.469  0.00  0.00    +0.029 C 
ATOM      9  C   UNL     1       0.636   2.004  -0.154  0.00  0.00    +0.032 C 
ATOM     10  C   UNL     1       2.023   1.906  -0.013  0.00  0.00    +0.039 C 
ATOM     11  C   UNL     1      -1.961  -0.426   0.131  0.00  0.00    +0.216 C 
ATOM     12  C   UNL     1      -4.411  -0.162  -0.141  0.00  0.00    +0.408 C 
ATOM     13  H   UNL     1      -3.368  -1.850   0.306  0.00  0.00    +0.161 HD
ENDROOT
BRANCH  12  14
ATOM     14  O   UNL     1      -5.496  -0.995  -0.062  0.00  0.00    -0.430 OA
ATOM     15  C   UNL     1      -6.772  -0.391  -0.302  0.00  0.00    +0.257 C 
ENDBRANCH  12  14
BRANCH   7  16
ATOM     16  O   UNL     1       3.972   0.612   0.427  0.00  0.00    -0.476 OA
BRANCH  16  17
ATOM     17  C   UNL     1       4.588  -0.629   0.090  0.00  0.00    +0.205 C 
BRANCH  17  18
ATOM     18  C   UNL     1       6.003  -0.360  -0.399  0.00  0.00    +0.047 C 
ATOM     19  C   UNL     1       6.718  -1.640  -0.792  0.00  0.00    +0.004 C 
ENDBRANCH  17  18
ENDBRANCH  16  17
ENDBRANCH   7  16
TORSDOF 4
