REMARK  Name = 5338
REMARK  3 active torsions:
REMARK  status: ('A' for Active; 'I' for Inactive)
REMARK    1  A    between atoms: S_1  and  N_4
REMARK    2  A    between atoms: S_1  and  C_16
REMARK    3  A    between atoms: C_21  and  N_22
REMARK                            x       y       z     vdW  Elec       q    Type
REMARK                         _______ _______ _______ _____ _____    ______ ____
ROOT
ATOM      1  S   UNL     1       1.802  -2.028  -0.544  0.00  0.00    +0.075 S 
ATOM      2  O   UNL     1       3.006  -2.770  -0.219  0.00  0.00    -0.150 OA
ATOM      3  O   UNL     1       1.211  -2.155  -1.862  0.00  0.00    -0.150 OA
ENDROOT
BRANCH   1   4
ATOM      4  N   UNL     1       0.612  -2.326   0.667  0.00  0.00    -0.191 N 
ATOM      5  N   UNL     1      -1.045  -1.052  -0.439  0.00  0.00    -0.391 NA
ATOM      6  N   UNL     1      -2.171  -0.328   1.996  0.00  0.00    -0.263 NA
ATOM      7  C   UNL     1      -0.534  -1.481   0.729  0.00  0.00    +0.200 C 
ATOM      8  C   UNL     1      -2.127  -0.255  -0.394  0.00  0.00    +0.128 C 
ATOM      9  C   UNL     1      -2.697   0.111   0.839  0.00  0.00    +0.084 C 
ATOM     10  C   UNL     1      -1.089  -1.125   1.929  0.00  0.00    +0.201 C 
ATOM     11  C   UNL     1      -2.699   0.219  -1.572  0.00  0.00    +0.086 C 
ATOM     12  C   UNL     1      -3.818   0.938   0.848  0.00  0.00    +0.073 C 
ATOM     13  C   UNL     1      -3.820   1.046  -1.552  0.00  0.00    -0.023 C 
ATOM     14  C   UNL     1      -4.382   1.407  -0.337  0.00  0.00    -0.024 C 
ATOM     15  H   UNL     1       0.722  -3.067   1.306  0.00  0.00    +0.176 HD
ENDBRANCH   1   4
BRANCH   1  16
ATOM     16  C   UNL     1       2.168  -0.317  -0.279  0.00  0.00    +0.125 C 
ATOM     17  C   UNL     1       3.178   0.028   0.601  0.00  0.00    +0.021 C 
ATOM     18  C   UNL     1       1.438   0.642  -0.958  0.00  0.00    +0.021 C 
ATOM     19  C   UNL     1       3.467   1.376   0.811  0.00  0.00    +0.015 C 
ATOM     20  C   UNL     1       1.726   1.990  -0.748  0.00  0.00    +0.015 C 
ATOM     21  C   UNL     1       2.741   2.357   0.136  0.00  0.00    +0.042 C 
BRANCH  21  22
ATOM     22  N   UNL     1       3.034   3.721   0.346  0.00  0.00    -0.357 N 
ATOM     23  H   UNL     1       3.750   3.980   0.970  0.00  0.00    +0.142 HD
ATOM     24  H   UNL     1       2.522   4.414  -0.131  0.00  0.00    +0.142 HD
ENDBRANCH  21  22
ENDBRANCH   1  16
TORSDOF 3
