REMARK  Name = 11400
REMARK  4 active torsions:
REMARK  status: ('A' for Active; 'I' for Inactive)
REMARK    1  A    between atoms: C_1  and  C_11
REMARK    2  A    between atoms: C_3  and  N_7
REMARK    3  A    between atoms: C_11  and  O_12
REMARK    4  A    between atoms: O_12  and  C_13
REMARK                            x       y       z     vdW  Elec       q    Type
REMARK                         _______ _______ _______ _____ _____    ______ ____
ROOT
ATOM      1  C   UNL     1       0.190  -0.105  -0.001  0.00  0.00    +0.077 C 
ATOM      2  C   UNL     1       1.335  -0.900   0.000  0.00  0.00    +0.021 C 
ATOM      3  C   UNL     1       2.597  -0.306   0.001  0.00  0.00    +0.042 C 
ATOM      4  C   UNL     1       0.306   1.285  -0.002  0.00  0.00    +0.007 C 
ATOM      5  C   UNL     1       2.713   1.084   0.001  0.00  0.00    +0.014 C 
ATOM      6  C   UNL     1       1.567   1.880  -0.001  0.00  0.00    +0.001 C 
ENDROOT
BRANCH   3   7
ATOM      7  N   UNL     1       3.756  -1.110   0.001  0.00  0.00    -0.357 N 
ATOM      8  H   UNL     1       3.674  -2.091   0.002  0.00  0.00    +0.142 HD
ATOM      9  H   UNL     1       4.647  -0.690   0.001  0.00  0.00    +0.142 HD
ENDBRANCH   3   7
BRANCH   1  11
ATOM     10  O   UNL     1      -1.325  -1.946  -0.001  0.00  0.00    -0.245 OA
ATOM     11  C   UNL     1      -1.126  -0.724  -0.001  0.00  0.00    +0.341 C 
BRANCH  11  12
ATOM     12  O   UNL     1      -2.123   0.213   0.000  0.00  0.00    -0.445 OA
BRANCH  12  13
ATOM     13  C   UNL     1      -3.469  -0.275   0.001  0.00  0.00    +0.209 C 
ATOM     14  C   UNL     1      -4.420   0.903   0.002  0.00  0.00    +0.051 C 
ENDBRANCH  12  13
ENDBRANCH  11  12
ENDBRANCH   1  11
TORSDOF 4
