REMARK  Name = 11955855
REMARK  4 active torsions:
REMARK  status: ('A' for Active; 'I' for Inactive)
REMARK    1  A    between atoms: C_2  and  O_22
REMARK    2  A    between atoms: C_3  and  N_10
REMARK    3  A    between atoms: O_22  and  C_23
REMARK    4  A    between atoms: C_23  and  C_26
REMARK                            x       y       z     vdW  Elec       q    Type
REMARK                         _______ _______ _______ _____ _____    ______ ____
ROOT
ATOM      1 BR   UNL     1       2.406   5.212  -0.893  0.00  0.00    -0.049 Br
ATOM      2  C   UNL     1       2.547   0.770   0.564  0.00  0.00    +0.152 C 
ATOM      3  C   UNL     1       1.332   1.366   0.247  0.00  0.00    +0.086 C 
ATOM      4  C   UNL     1       3.736   1.482   0.453  0.00  0.00    +0.034 C 
ATOM      5  C   UNL     1       3.709   2.808   0.019  0.00  0.00    -0.013 C 
ATOM      6  C   UNL     1       1.304   2.691  -0.186  0.00  0.00    +0.024 C 
ATOM      7  C   UNL     1       2.493   3.412  -0.300  0.00  0.00    +0.032 C 
ATOM      8  C   UNL     1       5.007   3.540  -0.090  0.00  0.00    +0.032 C 
ENDROOT
BRANCH   3  10
ATOM      9  O   UNL     1      -1.474   2.222  -0.315  0.00  0.00    -0.252 OA
ATOM     10  N   UNL     1       0.134   0.655   0.356  0.00  0.00    -0.266 N 
ATOM     11  N   UNL     1      -2.096   0.060   0.324  0.00  0.00    -0.256 N 
ATOM     12  N   UNL     1      -4.087   1.213  -0.252  0.00  0.00    -0.252 NA
ATOM     13  N   UNL     1      -5.541  -1.107   0.356  0.00  0.00    -0.269 NA
ATOM     14  C   UNL     1      -1.182   1.097   0.080  0.00  0.00    +0.309 C 
ATOM     15  C   UNL     1      -3.503   0.086   0.173  0.00  0.00    +0.132 C 
ATOM     16  C   UNL     1      -4.200  -1.054   0.474  0.00  0.00    +0.185 C 
ATOM     17  C   UNL     1      -6.143   0.021  -0.071  0.00  0.00    +0.057 C 
ATOM     18  C   UNL     1      -5.429   1.161  -0.369  0.00  0.00    +0.167 C 
ATOM     19  C   UNL     1      -7.625  -0.001  -0.211  0.00  0.00    +0.049 C 
ATOM     20  H   UNL     1       0.215  -0.275   0.667  0.00  0.00    +0.157 HD
ATOM     21  H   UNL     1      -1.711  -0.790   0.639  0.00  0.00    +0.158 HD
ENDBRANCH   3  10
BRANCH   2  22
ATOM     22  O   UNL     1       2.596  -0.533   0.991  0.00  0.00    -0.472 OA
BRANCH  22  23
ATOM     23  C   UNL     1       3.351  -1.440   0.206  0.00  0.00    +0.232 C 
BRANCH  23  26
ATOM     24  O   UNL     1       1.380  -2.748  -0.118  0.00  0.00    -0.357 OA
ATOM     25  N   UNL     1       2.856  -5.161  -0.421  0.00  0.00    +0.387 N 
ATOM     26  C   UNL     1       2.736  -2.826   0.336  0.00  0.00    +0.138 C 
ATOM     27  C   UNL     1       3.505  -3.851  -0.503  0.00  0.00    -0.048 C 
ATOM     28  C   UNL     1       1.458  -5.060  -0.844  0.00  0.00    -0.049 C 
ATOM     29  C   UNL     1       0.729  -4.015  -0.008  0.00  0.00    +0.119 C 
ATOM     30  H   UNL     1       2.894  -5.497   0.541  0.00  0.00    -0.084 HD
ATOM     31  H   UNL     1       3.343  -5.813  -1.036  0.00  0.00    -0.084 HD
ENDBRANCH  23  26
ENDBRANCH  22  23
ENDBRANCH   2  22
TORSDOF 4
