REMARK  Name = 7019
REMARK  1 active torsions:
REMARK  status: ('A' for Active; 'I' for Inactive)
REMARK    1  A    between atoms: C_4  and  N_15
REMARK                            x       y       z     vdW  Elec       q    Type
REMARK                         _______ _______ _______ _____ _____    ______ ____
ROOT
ATOM      1  N   UNL     1       0.000   1.550   0.000  0.00  0.00    -0.410 NA
ATOM      2  C   UNL     1      -1.215  -0.527   0.000  0.00  0.00    +0.022 C 
ATOM      3  C   UNL     1       1.215  -0.527   0.000  0.00  0.00    +0.022 C 
ATOM      4  C   UNL     1       0.000  -1.220   0.000  0.00  0.00    +0.101 C 
ATOM      5  C   UNL     1      -1.167   0.877   0.000  0.00  0.00    +0.110 C 
ATOM      6  C   UNL     1       1.167   0.877   0.000  0.00  0.00    +0.110 C 
ATOM      7  C   UNL     1      -2.450  -1.198   0.000  0.00  0.00    -0.001 C 
ATOM      8  C   UNL     1       2.450  -1.198   0.000  0.00  0.00    -0.001 C 
ATOM      9  C   UNL     1      -2.373   1.573   0.000  0.00  0.00    +0.085 C 
ATOM     10  C   UNL     1       2.373   1.573   0.000  0.00  0.00    +0.085 C 
ATOM     11  C   UNL     1      -3.642  -0.479   0.000  0.00  0.00    -0.004 C 
ATOM     12  C   UNL     1       3.642  -0.479   0.000  0.00  0.00    -0.004 C 
ATOM     13  C   UNL     1      -3.603   0.909   0.000  0.00  0.00    -0.019 C 
ATOM     14  C   UNL     1       3.603   0.910   0.000  0.00  0.00    -0.019 C 
ENDROOT
BRANCH   4  15
ATOM     15  N   UNL     1       0.000  -2.642   0.000  0.00  0.00    -0.315 NA
ATOM     16  H   UNL     1      -0.852  -3.134   0.000  0.00  0.00    +0.119 HD
ATOM     17  H   UNL     1       0.853  -3.134   0.000  0.00  0.00    +0.119 HD
ENDBRANCH   4  15
TORSDOF 1
