REMARK  Name = 24751752
REMARK  5 active torsions:
REMARK  status: ('A' for Active; 'I' for Inactive)
REMARK    1  A    between atoms: S_1  and  N_4
REMARK    2  A    between atoms: S_1  and  C_18
REMARK    3  A    between atoms: C_7  and  O_10
REMARK    4  A    between atoms: O_10  and  C_13
REMARK    5  A    between atoms: C_18  and  C_23
REMARK                            x       y       z     vdW  Elec       q    Type
REMARK                         _______ _______ _______ _____ _____    ______ ____
ROOT
ATOM      1  S   UNL     1      -2.358   1.738  -0.519  0.00  0.00    +0.046 S 
ATOM      2  O   UNL     1      -2.728   1.333  -1.857  0.00  0.00    -0.157 OA
ATOM      3  O   UNL     1      -2.844   2.967   0.067  0.00  0.00    -0.157 OA
ENDROOT
BRANCH   1   4
ATOM      4  N   UNL     1      -0.650   1.703  -0.388  0.00  0.00    -0.159 NA
ATOM      5  C   UNL     1       0.019   0.556  -1.071  0.00  0.00    +0.099 C 
ATOM      6  C   UNL     1      -0.112   1.931   0.986  0.00  0.00    +0.099 C 
ATOM      7  C   UNL     1       2.129   1.093   0.197  0.00  0.00    +0.170 C 
ATOM      8  C   UNL     1       1.515   0.826  -1.177  0.00  0.00    +0.063 C 
ATOM      9  C   UNL     1       1.383   2.219   0.908  0.00  0.00    +0.063 C 
BRANCH   7  10
ATOM     10  O   UNL     1       3.494   1.468   0.050  0.00  0.00    -0.464 OA
BRANCH  10  13
ATOM     11 CL   UNL     1       7.330  -2.899   0.125  0.00  0.00    -0.081 Cl
ATOM     12  N   UNL     1       3.944  -0.802   0.216  0.00  0.00    -0.209 NA
ATOM     13  C   UNL     1       4.417   0.456   0.064  0.00  0.00    +0.225 C 
ATOM     14  C   UNL     1       5.759   0.768  -0.075  0.00  0.00    +0.059 C 
ATOM     15  C   UNL     1       6.676  -0.277  -0.058  0.00  0.00    +0.018 C 
ATOM     16  C   UNL     1       4.864  -1.792   0.228  0.00  0.00    +0.113 C 
ATOM     17  C   UNL     1       6.228  -1.585   0.096  0.00  0.00    +0.077 C 
ENDBRANCH  10  13
ENDBRANCH   7  10
ENDBRANCH   1   4
BRANCH   1  18
ATOM     18  C   UNL     1      -2.753   0.407   0.586  0.00  0.00    +0.196 C 
BRANCH  18  23
ATOM     19  O   UNL     1      -4.516  -1.194   2.501  0.00  0.00    -0.273 OA
ATOM     20  O   UNL     1      -4.620  -2.996  -1.713  0.00  0.00    -0.252 OA
ATOM     21  N   UNL     1      -4.208  -0.829  -0.939  0.00  0.00    -0.283 N 
ATOM     22  N   UNL     1      -4.650  -2.429   0.542  0.00  0.00    -0.238 N 
ATOM     23  C   UNL     1      -4.142  -0.133   0.330  0.00  0.00    +0.151 C 
ATOM     24  C   UNL     1      -5.214   0.945   0.424  0.00  0.00    +0.031 C 
ATOM     25  C   UNL     1      -4.455  -1.289   1.283  0.00  0.00    +0.247 C 
ATOM     26  C   UNL     1      -4.506  -2.185  -0.804  0.00  0.00    +0.307 C 
ATOM     27  H   UNL     1      -4.057  -0.390  -1.808  0.00  0.00    +0.151 HD
ATOM     28  H   UNL     1      -4.865  -3.310   0.926  0.00  0.00    +0.159 HD
ENDBRANCH  18  23
ENDBRANCH   1  18
TORSDOF 5
