REMARK  Name = 31236
REMARK  4 active torsions:
REMARK  status: ('A' for Active; 'I' for Inactive)
REMARK    1  A    between atoms: C_1  and  O_7
REMARK    2  A    between atoms: O_7  and  C_8
REMARK    3  A    between atoms: C_8  and  C_9
REMARK    4  A    between atoms: C_9  and  O_10
REMARK                            x       y       z     vdW  Elec       q    Type
REMARK                         _______ _______ _______ _____ _____    ______ ____
ROOT
ATOM      1  C   UNL     1      -0.287  -0.180   0.145  0.00  0.00    +0.139 C 
ATOM      2  C   UNL     1      -0.852   1.094   0.211  0.00  0.00    +0.037 C 
ATOM      3  C   UNL     1      -1.103  -1.295  -0.047  0.00  0.00    +0.037 C 
ATOM      4  C   UNL     1      -2.232   1.253   0.084  0.00  0.00    +0.003 C 
ATOM      5  C   UNL     1      -2.483  -1.136  -0.173  0.00  0.00    +0.003 C 
ATOM      6  C   UNL     1      -3.048   0.138  -0.108  0.00  0.00    +0.000 C 
ENDROOT
BRANCH   1   7
ATOM      7  O   UNL     1       1.059  -0.335   0.268  0.00  0.00    -0.473 OA
BRANCH   7   8
ATOM      8  C   UNL     1       1.881   0.740  -0.185  0.00  0.00    +0.237 C 
BRANCH   8   9
ATOM      9  C   UNL     1       3.214   0.183  -0.645  0.00  0.00    +0.185 C 
BRANCH   9  10
ATOM     10  O   UNL     1       3.851  -0.462   0.451  0.00  0.00    -0.378 OA
ATOM     11  H   UNL     1       4.706  -0.820   0.163  0.00  0.00    +0.211 HD
ENDBRANCH   9  10
ENDBRANCH   8   9
ENDBRANCH   7   8
ENDBRANCH   1   7
TORSDOF 4
