REMARK  Name = 4284
REMARK  3 active torsions:
REMARK  status: ('A' for Active; 'I' for Inactive)
REMARK    1  A    between atoms: N_2  and  C_11
REMARK    2  A    between atoms: N_2  and  C_13
REMARK    3  A    between atoms: C_3  and  C_4
REMARK                            x       y       z     vdW  Elec       q    Type
REMARK                         _______ _______ _______ _____ _____    ______ ____
ROOT
ATOM      1  O   UNL     1      -1.217  -1.338   1.566  0.00  0.00    -0.270 OA
ATOM      2  N   UNL     1      -1.899   0.260   0.002  0.00  0.00    -0.276 N 
ATOM      3  C   UNL     1      -0.951  -0.562   0.639  0.00  0.00    +0.249 C 
ENDROOT
BRANCH   3   4
ATOM      4  C   UNL     1       0.430  -0.523   0.187  0.00  0.00    +0.053 C 
ATOM      5  C   UNL     1       1.328   0.377   0.761  0.00  0.00    +0.000 C 
ATOM      6  C   UNL     1       2.654   0.411   0.328  0.00  0.00    -0.022 C 
ATOM      7  C   UNL     1       0.858  -1.389  -0.820  0.00  0.00    +0.004 C 
ATOM      8  C   UNL     1       3.082  -0.454  -0.679  0.00  0.00    -0.004 C 
ATOM      9  C   UNL     1       2.184  -1.354  -1.253  0.00  0.00    -0.000 C 
ATOM     10  C   UNL     1       3.614   1.373   0.942  0.00  0.00    +0.031 C 
ENDBRANCH   3   4
BRANCH   2  11
ATOM     11  C   UNL     1      -3.304   0.266   0.387  0.00  0.00    +0.094 C 
ATOM     12  C   UNL     1      -4.099  -0.756  -0.399  0.00  0.00    +0.023 C 
ENDBRANCH   2  11
BRANCH   2  13
ATOM     13  C   UNL     1      -1.539   1.162  -1.090  0.00  0.00    +0.094 C 
ATOM     14  C   UNL     1      -1.141   2.529  -0.571  0.00  0.00    +0.023 C 
ENDBRANCH   2  13
TORSDOF 3
