REMARK  Name = 4578
REMARK  3 active torsions:
REMARK  status: ('A' for Active; 'I' for Inactive)
REMARK    1  A    between atoms: C_7  and  O_15
REMARK    2  A    between atoms: O_15  and  C_16
REMARK    3  A    between atoms: C_16  and  C_17
REMARK                            x       y       z     vdW  Elec       q    Type
REMARK                         _______ _______ _______ _____ _____    ______ ____
ROOT
ATOM      1  N   UNL     1      -1.939  -2.170   0.003  0.00  0.00    -0.266 NA
ATOM      2  N   UNL     1      -1.291   1.450   0.010  0.00  0.00    -0.293 NA
ATOM      3  N   UNL     1      -4.076  -1.534  -0.015  0.00  0.00    -0.296 N 
ATOM      4  N   UNL     1      -3.658   0.861  -0.011  0.00  0.00    -0.316 NA
ATOM      5  N   UNL     1      -2.959   3.093  -0.004  0.00  0.00    -0.283 N 
ATOM      6  C   UNL     1      -1.920  -0.805   0.004  0.00  0.00    +0.215 C 
ATOM      7  C   UNL     1      -0.921   0.149   0.013  0.00  0.00    +0.288 C 
ATOM      8  C   UNL     1      -3.257  -0.434  -0.008  0.00  0.00    +0.196 C 
ATOM      9  C   UNL     1      -3.252  -2.561  -0.009  0.00  0.00    +0.164 C 
ATOM     10  C   UNL     1      -2.617   1.721  -0.001  0.00  0.00    +0.200 C 
ATOM     11  H   UNL     1      -1.155  -2.765   0.010  0.00  0.00    +0.126 HD
ATOM     12  H   UNL     1      -5.060  -1.552  -0.024  0.00  0.00    +0.150 HD
ATOM     13  H   UNL     1      -2.250   3.777   0.003  0.00  0.00    +0.156 HD
ATOM     14  H   UNL     1      -3.905   3.365  -0.012  0.00  0.00    +0.156 HD
ENDROOT
BRANCH   7  15
ATOM     15  O   UNL     1       0.414  -0.161   0.024  0.00  0.00    -0.448 OA
BRANCH  15  16
ATOM     16  C   UNL     1       1.325   0.932   0.033  0.00  0.00    +0.234 C 
BRANCH  16  17
ATOM     17  C   UNL     1       2.728   0.401   0.012  0.00  0.00    +0.021 C 
ATOM     18  C   UNL     1       3.382   0.139   1.211  0.00  0.00    -0.001 C 
ATOM     19  C   UNL     1       3.361   0.176  -1.205  0.00  0.00    -0.001 C 
ATOM     20  C   UNL     1       4.687  -0.355   1.192  0.00  0.00    -0.000 C 
ATOM     21  C   UNL     1       4.665  -0.318  -1.224  0.00  0.00    -0.000 C 
ATOM     22  C   UNL     1       5.328  -0.584  -0.025  0.00  0.00    -0.000 C 
ENDBRANCH  16  17
ENDBRANCH  15  16
ENDBRANCH   7  15
TORSDOF 3
