REMARK  Name = 11462174
REMARK  5 active torsions:
REMARK  status: ('A' for Active; 'I' for Inactive)
REMARK    1  A    between atoms: N_2  and  C_23
REMARK    2  A    between atoms: C_3  and  C_12
REMARK    3  A    between atoms: C_12  and  C_14
REMARK    4  A    between atoms: C_23  and  C_25
REMARK    5  A    between atoms: C_25  and  O_26
REMARK                            x       y       z     vdW  Elec       q    Type
REMARK                         _______ _______ _______ _____ _____    ______ ____
ROOT
ATOM      1  F   UNL     1       0.227  -4.401   0.132  0.00  0.00    -0.204 F 
ATOM      2  N   UNL     1       2.837   0.367  -0.374  0.00  0.00    -0.321 N 
ATOM      3  C   UNL     1       0.909   0.255  -1.420  0.00  0.00    -0.002 A 
ATOM      4  C   UNL     1       1.967   1.073  -1.161  0.00  0.00    +0.034 A 
ATOM      5  C   UNL     1       1.113  -0.987  -0.787  0.00  0.00    +0.016 A 
ATOM      6  C   UNL     1       2.341  -0.894  -0.130  0.00  0.00    +0.060 A 
ATOM      7  C   UNL     1       2.243   2.462  -1.583  0.00  0.00    +0.050 C 
ATOM      8  C   UNL     1       0.385  -2.190  -0.699  0.00  0.00    +0.031 C 
ATOM      9  C   UNL     1       2.881  -1.949   0.615  0.00  0.00    +0.019 C 
ATOM     10  C   UNL     1       0.912  -3.253   0.043  0.00  0.00    +0.140 C 
ATOM     11  C   UNL     1       2.141  -3.132   0.689  0.00  0.00    +0.031 C 
ENDROOT
BRANCH   3  12
ATOM     12  C   UNL     1      -0.287   0.622  -2.252  0.00  0.00    +0.086 C 
BRANCH  12  14
ATOM     13  N   UNL     1      -2.187  -0.207  -1.002  0.00  0.00    -0.410 NA
ATOM     14  C   UNL     1      -1.420   0.864  -1.311  0.00  0.00    +0.113 C 
ATOM     15  C   UNL     1      -1.628   2.134  -0.813  0.00  0.00    +0.028 C 
ATOM     16  C   UNL     1      -3.219  -0.028  -0.155  0.00  0.00    +0.113 C 
ATOM     17  C   UNL     1      -3.511   1.233   0.406  0.00  0.00    +0.026 C 
ATOM     18  C   UNL     1      -2.692   2.315   0.059  0.00  0.00    +0.005 C 
ATOM     19  C   UNL     1      -4.033  -1.103   0.190  0.00  0.00    +0.085 C 
ATOM     20  C   UNL     1      -4.596   1.383   1.286  0.00  0.00    +0.002 C 
ATOM     21  C   UNL     1      -5.112  -0.954   1.065  0.00  0.00    -0.019 C 
ATOM     22  C   UNL     1      -5.394   0.291   1.614  0.00  0.00    -0.004 C 
ENDBRANCH  12  14
ENDBRANCH   3  12
BRANCH   2  23
ATOM     23  C   UNL     1       4.098   0.872   0.130  0.00  0.00    +0.216 C 
BRANCH  23  25
ATOM     24  O   UNL     1       2.915   1.680   2.101  0.00  0.00    -0.248 OA
ATOM     25  C   UNL     1       3.951   1.546   1.467  0.00  0.00    +0.337 C 
BRANCH  25  26
ATOM     26  O   UNL     1       5.158   2.002   1.891  0.00  0.00    -0.479 OA
ATOM     27  H   UNL     1       5.920   1.871   1.362  0.00  0.00    +0.295 HD
ENDBRANCH  25  26
ENDBRANCH  23  25
ENDBRANCH   2  23
TORSDOF 5
