REMARK  Name = 44631912
REMARK  3 active torsions:
REMARK  status: ('A' for Active; 'I' for Inactive)
REMARK    1  A    between atoms: N_1  and  C_31
REMARK    2  A    between atoms: C_6  and  C_28
REMARK    3  A    between atoms: C_12  and  N_18
REMARK                            x       y       z     vdW  Elec       q    Type
REMARK                         _______ _______ _______ _____ _____    ______ ____
ROOT
ATOM      1  N   UNL     1      -3.682  -0.198  -0.177  0.00  0.00    -0.260 N 
ATOM      2  N   UNL     1      -1.336  -0.730  -0.011  0.00  0.00    -0.322 NA
ATOM      3  N   UNL     1       0.100   1.216  -0.291  0.00  0.00    -0.170 NA
ATOM      4  N   UNL     1       0.985  -0.907   0.095  0.00  0.00    -0.232 N 
ATOM      5  N   UNL     1       2.776   0.650  -0.110  0.00  0.00    -0.227 NA
ATOM      6  C   UNL     1      -4.435   0.928  -0.389  0.00  0.00    +0.108 C 
ATOM      7  C   UNL     1      -2.353   0.132  -0.188  0.00  0.00    +0.201 C 
ATOM      8  C   UNL     1      -2.253   1.499  -0.415  0.00  0.00    +0.067 C 
ATOM      9  C   UNL     1      -3.576   1.995  -0.540  0.00  0.00    +0.025 C 
ATOM     10  C   UNL     1      -0.966   2.032  -0.462  0.00  0.00    +0.116 C 
ATOM     11  C   UNL     1      -0.148  -0.096  -0.079  0.00  0.00    +0.151 C 
ATOM     12  C   UNL     1       5.056  -0.127   0.096  0.00  0.00    +0.067 C 
ATOM     13  C   UNL     1       2.373  -0.624   0.092  0.00  0.00    +0.141 C 
ATOM     14  C   UNL     1       4.603  -1.425   0.300  0.00  0.00    +0.019 C 
ATOM     15  C   UNL     1       4.111   0.866  -0.103  0.00  0.00    +0.115 C 
ATOM     16  C   UNL     1       3.238  -1.687   0.299  0.00  0.00    +0.036 C 
ATOM     17  H   UNL     1       0.773  -1.857   0.247  0.00  0.00    +0.166 HD
ENDROOT
BRANCH  12  18
ATOM     18  N   UNL     1       6.425   0.167   0.090  0.00  0.00    -0.311 N 
ATOM     19  N   UNL     1       9.181   0.871  -0.146  0.00  0.00    +0.386 N 
ATOM     20  C   UNL     1       6.887   1.485   0.540  0.00  0.00    +0.067 C 
ATOM     21  C   UNL     1       7.271  -0.498  -0.909  0.00  0.00    +0.067 C 
ATOM     22  C   UNL     1       8.364   1.429   0.930  0.00  0.00    -0.060 C 
ATOM     23  C   UNL     1       8.734  -0.484  -0.465  0.00  0.00    -0.060 C 
ATOM     24  H   UNL     1      10.156   0.843   0.151  0.00  0.00    -0.084 HD
ATOM     25  H   UNL     1       9.087   1.458  -0.975  0.00  0.00    -0.084 HD
ENDBRANCH  12  18
BRANCH   6  28
ATOM     26  O   UNL     1      -6.431   0.247  -1.304  0.00  0.00    -0.269 OA
ATOM     27  N   UNL     1      -6.591   1.744   0.485  0.00  0.00    -0.272 N 
ATOM     28  C   UNL     1      -5.866   0.950  -0.440  0.00  0.00    +0.263 C 
ATOM     29  C   UNL     1      -8.047   1.771   0.463  0.00  0.00    +0.115 C 
ATOM     30  C   UNL     1      -5.958   2.576   1.506  0.00  0.00    +0.115 C 
ENDBRANCH   6  28
BRANCH   1  31
ATOM     31  C   UNL     1      -4.231  -1.591   0.037  0.00  0.00    +0.080 C 
ATOM     32  C   UNL     1      -3.756  -2.584  -1.040  0.00  0.00    +0.020 C 
ATOM     33  C   UNL     1      -3.850  -2.229   1.389  0.00  0.00    +0.020 C 
ATOM     34  C   UNL     1      -3.588  -3.903  -0.301  0.00  0.00    +0.002 C 
ATOM     35  C   UNL     1      -3.038  -3.473   1.047  0.00  0.00    +0.002 C 
ENDBRANCH   1  31
TORSDOF 3
