REMARK  Name = 21389
REMARK  4 active torsions:
REMARK  status: ('A' for Active; 'I' for Inactive)
REMARK    1  A    between atoms: N_2  and  C_9
REMARK    2  A    between atoms: N_3  and  C_21
REMARK    3  A    between atoms: C_7  and  C_16
REMARK    4  A    between atoms: C_19  and  C_28
REMARK                            x       y       z     vdW  Elec       q    Type
REMARK                         _______ _______ _______ _____ _____    ______ ____
ROOT
ATOM      1  O   UNL     1      -0.716   0.820  -0.004  0.00  0.00    -0.252 OA
ATOM      2  N   UNL     1      -1.064  -1.497  -0.001  0.00  0.00    -0.268 N 
ATOM      3  N   UNL     1       1.091  -0.665  -0.002  0.00  0.00    -0.268 N 
ATOM      4  C   UNL     1      -0.271  -0.324  -0.002  0.00  0.00    +0.308 C 
ATOM      5  H   UNL     1      -0.568  -2.348  -0.001  0.00  0.00    +0.156 HD
ATOM      6  H   UNL     1       1.294  -1.628  -0.001  0.00  0.00    +0.156 HD
ENDROOT
BRANCH   2   9
ATOM      7  C   UNL     1      -4.637  -0.573   0.001  0.00  0.00    +0.033 C 
ATOM      8  C   UNL     1      -3.247  -0.461  -0.001  0.00  0.00    +0.017 C 
ATOM      9  C   UNL     1      -2.455  -1.609  -0.002  0.00  0.00    +0.052 C 
ATOM     10  C   UNL     1      -5.236  -1.833   0.002  0.00  0.00    +0.003 C 
ATOM     11  C   UNL     1      -3.053  -2.869  -0.001  0.00  0.00    +0.015 C 
ATOM     12  C   UNL     1      -4.444  -2.981   0.001  0.00  0.00    +0.001 C 
BRANCH   7  16
ATOM     13  N   UNL     1      -6.829   0.569   0.002  0.00  0.00    -0.296 N 
ATOM     14  N   UNL     1      -4.946   1.830   0.000  0.00  0.00    -0.228 NA
ATOM     15  C   UNL     1      -7.387   1.888   0.009  0.00  0.00    +0.084 C 
ATOM     16  C   UNL     1      -5.464   0.624   0.001  0.00  0.00    +0.132 C 
ATOM     17  C   UNL     1      -6.121   2.749  -0.004  0.00  0.00    +0.116 C 
ATOM     18  H   UNL     1      -7.356  -0.262  -0.002  0.00  0.00    +0.154 HD
ENDBRANCH   7  16
ENDBRANCH   2   9
BRANCH   3  21
ATOM     19  C   UNL     1       4.584   0.528   0.000  0.00  0.00    +0.033 C 
ATOM     20  C   UNL     1       3.484  -0.330  -0.001  0.00  0.00    +0.017 C 
ATOM     21  C   UNL     1       2.206   0.205  -0.002  0.00  0.00    +0.052 C 
ATOM     22  C   UNL     1       4.390   1.910   0.000  0.00  0.00    +0.003 C 
ATOM     23  C   UNL     1       1.998   1.575  -0.003  0.00  0.00    +0.015 C 
ATOM     24  C   UNL     1       3.097   2.433  -0.002  0.00  0.00    +0.001 C 
BRANCH  19  28
ATOM     25  N   UNL     1       7.042   0.780   0.001  0.00  0.00    -0.296 N 
ATOM     26  N   UNL     1       6.163  -1.308   0.001  0.00  0.00    -0.228 NA
ATOM     27  C   UNL     1       8.233  -0.015   0.009  0.00  0.00    +0.084 C 
ATOM     28  C   UNL     1       5.932  -0.017   0.001  0.00  0.00    +0.132 C 
ATOM     29  C   UNL     1       7.649  -1.430  -0.002  0.00  0.00    +0.116 C 
ATOM     30  H   UNL     1       7.025   1.764  -0.003  0.00  0.00    +0.154 HD
ENDBRANCH  19  28
ENDBRANCH   3  21
TORSDOF 4
