REMARK  Name = 68602
REMARK  2 active torsions:
REMARK  status: ('A' for Active; 'I' for Inactive)
REMARK    1  A    between atoms: C_1  and  C_3
REMARK    2  A    between atoms: C_1  and  C_13
REMARK                            x       y       z     vdW  Elec       q    Type
REMARK                         _______ _______ _______ _____ _____    ______ ____
ROOT
ATOM      1  C   UNL     1       0.725  -0.520  -1.083  0.00  0.00    +0.059 C 
ATOM      2  C   UNL     1       1.109  -1.857  -1.765  0.00  0.00    +0.011 C 
ENDROOT
BRANCH   1   3
ATOM      3  C   UNL     1      -0.607  -0.502  -0.409  0.00  0.00    -0.021 C 
ATOM      4  C   UNL     1      -1.393   0.651  -0.398  0.00  0.00    -0.029 C 
ATOM      5  C   UNL     1      -2.635   0.642   0.238  0.00  0.00    -0.026 C 
ATOM      6  C   UNL     1      -1.063  -1.663   0.216  0.00  0.00    -0.004 C 
ATOM      7  C   UNL     1      -0.904   1.896  -1.066  0.00  0.00    +0.030 C 
ATOM      8  C   UNL     1      -3.090  -0.519   0.863  0.00  0.00    -0.005 C 
ATOM      9  C   UNL     1      -2.304  -1.671   0.852  0.00  0.00    -0.001 C 
ATOM     10  C   UNL     1      -3.496   1.862   0.265  0.00  0.00    +0.031 C 
ENDBRANCH   1   3
BRANCH   1  13
ATOM     11  N   UNL     1       2.591   1.015  -0.476  0.00  0.00    -0.318 N 
ATOM     12  N   UNL     1       3.369   0.179   1.428  0.00  0.00    -0.315 N 
ATOM     13  C   UNL     1       1.869  -0.064  -0.170  0.00  0.00    +0.041 C 
ATOM     14  C   UNL     1       2.322  -0.581   0.973  0.00  0.00    +0.069 C 
ATOM     15  C   UNL     1       3.506   1.131   0.533  0.00  0.00    +0.182 C 
ATOM     16  H   UNL     1       2.487   1.601  -1.260  0.00  0.00    +0.148 HD
ATOM     17  H   UNL     1       3.901   0.041   2.245  0.00  0.00    +0.148 HD
ENDBRANCH   1  13
TORSDOF 2
