REMARK  Name = 2871
REMARK  6 active torsions:
REMARK  status: ('A' for Active; 'I' for Inactive)
REMARK    1  A    between atoms: C_7  and  O_14
REMARK    2  A    between atoms: O_14  and  P_16
REMARK    3  A    between atoms: P_16  and  O_17
REMARK    4  A    between atoms: P_16  and  O_20
REMARK    5  A    between atoms: O_17  and  C_18
REMARK    6  A    between atoms: O_20  and  C_21
REMARK                            x       y       z     vdW  Elec       q    Type
REMARK                         _______ _______ _______ _____ _____    ______ ____
ROOT
ATOM      1 CL   UNL     1       5.999   0.344   0.147  0.00  0.00    -0.076 Cl
ATOM      2  O   UNL     1       2.150   1.382   0.140  0.00  0.00    -0.420 OA
ATOM      3  O   UNL     1       4.096   2.537   0.360  0.00  0.00    -0.244 OA
ATOM      4  C   UNL     1       2.187  -1.036  -0.168  0.00  0.00    +0.032 A 
ATOM      5  C   UNL     1       1.482   0.159  -0.042  0.00  0.00    +0.151 A 
ATOM      6  C   UNL     1       3.663  -1.006  -0.110  0.00  0.00    -0.002 A 
ATOM      7  C   UNL     1      -0.637  -0.957  -0.263  0.00  0.00    +0.149 C 
ATOM      8  C   UNL     1       0.086   0.217  -0.086  0.00  0.00    +0.075 C 
ATOM      9  C   UNL     1       1.435  -2.208  -0.346  0.00  0.00    +0.006 C 
ATOM     10  C   UNL     1       0.036  -2.168  -0.393  0.00  0.00    +0.038 C 
ATOM     11  C   UNL     1       4.274   0.181   0.065  0.00  0.00    +0.130 A 
ATOM     12  C   UNL     1       4.388  -2.322  -0.253  0.00  0.00    +0.032 C 
ATOM     13  C   UNL     1       3.533   1.459   0.201  0.00  0.00    +0.356 A 
ENDROOT
BRANCH   7  14
ATOM     14  O   UNL     1      -1.996  -0.922  -0.308  0.00  0.00    -0.425 OA
BRANCH  14  16
ATOM     15  S   UNL     1      -2.716   0.348   2.372  0.00  0.00    +0.036 S 
ATOM     16  P   UNL     1      -2.968   0.140   0.449  0.00  0.00    +0.363 P 
BRANCH  16  17
ATOM     17  O   UNL     1      -4.438  -0.379  -0.024  0.00  0.00    -0.288 OA
BRANCH  17  18
ATOM     18  C   UNL     1      -4.855  -1.697   0.290  0.00  0.00    +0.152 C 
ATOM     19  C   UNL     1      -6.247  -1.918  -0.262  0.00  0.00    +0.035 C 
ENDBRANCH  17  18
ENDBRANCH  16  17
BRANCH  16  20
ATOM     20  O   UNL     1      -2.799   1.469  -0.474  0.00  0.00    -0.288 OA
BRANCH  20  21
ATOM     21  C   UNL     1      -3.504   2.652  -0.141  0.00  0.00    +0.152 C 
ATOM     22  C   UNL     1      -3.170   3.727  -1.153  0.00  0.00    +0.035 C 
ENDBRANCH  20  21
ENDBRANCH  16  20
ENDBRANCH  14  16
ENDBRANCH   7  14
TORSDOF 6
