REMARK  Name = 26533
REMARK  3 active torsions:
REMARK  status: ('A' for Active; 'I' for Inactive)
REMARK    1  A    between atoms: C_2  and  C_9
REMARK    2  A    between atoms: C_2  and  N_13
REMARK    3  A    between atoms: N_13  and  C_16
REMARK                            x       y       z     vdW  Elec       q    Type
REMARK                         _______ _______ _______ _____ _____    ______ ____
ROOT
ATOM      1  O   UNL     1      -1.474  -0.670   2.157  0.00  0.00    -0.298 OA
ATOM      2  C   UNL     1      -0.379  -0.469  -0.015  0.00  0.00    +0.033 C 
ATOM      3  C   UNL     1      -1.175  -0.601  -1.333  0.00  0.00    -0.008 C 
ATOM      4  C   UNL     1      -2.004   0.643  -1.669  0.00  0.00    -0.001 C 
ATOM      5  C   UNL     1      -2.984   0.960  -0.544  0.00  0.00    +0.008 C 
ATOM      6  C   UNL     1      -1.396  -0.085   1.075  0.00  0.00    +0.137 C 
ATOM      7  C   UNL     1      -2.274   1.120   0.790  0.00  0.00    +0.063 C 
ENDROOT
BRANCH   2   9
ATOM      8  S   UNL     1       1.735   0.744   1.381  0.00  0.00    -0.092 S 
ATOM      9  C   UNL     1       0.781   0.542  -0.026  0.00  0.00    -0.005 C 
ATOM     10  C   UNL     1       1.195   1.359  -1.054  0.00  0.00    +0.001 C 
ATOM     11  C   UNL     1       2.311   2.162  -0.682  0.00  0.00    +0.007 C 
ATOM     12  C   UNL     1       2.707   1.928   0.617  0.00  0.00    +0.035 C 
ENDBRANCH   2   9
BRANCH   2  13
ATOM     13  N   UNL     1       0.141  -1.806   0.313  0.00  0.00    +0.393 N 
ATOM     14  H   UNL     1      -0.632  -2.470   0.329  0.00  0.00    -0.083 HD
ATOM     15  H   UNL     1       0.595  -1.766   1.225  0.00  0.00    -0.083 HD
BRANCH  13  16
ATOM     16  C   UNL     1       1.119  -2.235  -0.676  0.00  0.00    -0.081 C 
ATOM     17  C   UNL     1       1.694  -3.594  -0.333  0.00  0.00    -0.025 C 
ENDBRANCH  13  16
ENDBRANCH   2  13
TORSDOF 3
