REMARK  Name = 9454
REMARK  8 active torsions:
REMARK  status: ('A' for Active; 'I' for Inactive)
REMARK    1  A    between atoms: C_7  and  O_14
REMARK    2  A    between atoms: O_14  and  P_15
REMARK    3  A    between atoms: P_15  and  O_17
REMARK    4  A    between atoms: P_15  and  O_21
REMARK    5  A    between atoms: O_17  and  C_18
REMARK    6  A    between atoms: C_18  and  C_20
REMARK    7  A    between atoms: O_21  and  C_22
REMARK    8  A    between atoms: C_22  and  C_24
REMARK                            x       y       z     vdW  Elec       q    Type
REMARK                         _______ _______ _______ _____ _____    ______ ____
ROOT
ATOM      1 CL   UNL     1      -6.258   0.038   0.043  0.00  0.00    -0.076 Cl
ATOM      2  O   UNL     1      -2.506  -0.905   1.009  0.00  0.00    -0.420 OA
ATOM      3  O   UNL     1      -4.537  -1.794   1.512  0.00  0.00    -0.244 OA
ATOM      4  C   UNL     1      -2.350   1.064  -0.420  0.00  0.00    +0.032 A 
ATOM      5  C   UNL     1      -1.743   0.073   0.349  0.00  0.00    +0.151 A 
ATOM      6  C   UNL     1      -3.823   1.078  -0.538  0.00  0.00    -0.002 A 
ATOM      7  C   UNL     1       0.457   0.927  -0.116  0.00  0.00    +0.152 C 
ATOM      8  C   UNL     1      -0.357  -0.009   0.510  0.00  0.00    +0.075 C 
ATOM      9  C   UNL     1      -1.508   1.999  -1.042  0.00  0.00    +0.006 C 
ATOM     10  C   UNL     1      -0.118   1.931  -0.891  0.00  0.00    +0.038 C 
ATOM     11  C   UNL     1      -4.526   0.127   0.107  0.00  0.00    +0.130 A 
ATOM     12  C   UNL     1      -4.440   2.166  -1.381  0.00  0.00    +0.032 C 
ATOM     13  C   UNL     1      -3.890  -0.932   0.927  0.00  0.00    +0.356 A 
ENDROOT
BRANCH   7  14
ATOM     14  O   UNL     1       1.808   0.865   0.029  0.00  0.00    -0.402 OA
BRANCH  14  15
ATOM     15  P   UNL     1       2.605  -0.246   0.899  0.00  0.00    +0.535 P 
ATOM     16  O   UNL     1       2.254  -0.276   2.360  0.00  0.00    -0.215 OA
BRANCH  15  17
ATOM     17  O   UNL     1       4.165   0.041   0.568  0.00  0.00    -0.262 OA
BRANCH  17  18
ATOM     18  C   UNL     1       4.737   1.259   1.013  0.00  0.00    +0.172 C 
BRANCH  18  20
ATOM     19 CL   UNL     1       6.353   1.259  -1.175  0.00  0.00    -0.111 Cl
ATOM     20  C   UNL     1       6.195   1.322   0.599  0.00  0.00    +0.127 C 
ENDBRANCH  18  20
ENDBRANCH  17  18
ENDBRANCH  15  17
BRANCH  15  21
ATOM     21  O   UNL     1       2.288  -1.637   0.128  0.00  0.00    -0.262 OA
BRANCH  21  22
ATOM     22  C   UNL     1       2.567  -1.760  -1.257  0.00  0.00    +0.172 C 
BRANCH  22  24
ATOM     23 CL   UNL     1       0.442  -3.441  -1.498  0.00  0.00    -0.111 Cl
ATOM     24  C   UNL     1       2.183  -3.148  -1.735  0.00  0.00    +0.127 C 
ENDBRANCH  22  24
ENDBRANCH  21  22
ENDBRANCH  15  21
ENDBRANCH  14  15
ENDBRANCH   7  14
TORSDOF 8
