REMARK  Name = 24872560
REMARK  5 active torsions:
REMARK  status: ('A' for Active; 'I' for Inactive)
REMARK    1  A    between atoms: N_3  and  C_12
REMARK    2  A    between atoms: N_4  and  C_24
REMARK    3  A    between atoms: C_17  and  C_20
REMARK    4  A    between atoms: C_27  and  C_32
REMARK    5  A    between atoms: C_28  and  C_34
REMARK                            x       y       z     vdW  Elec       q    Type
REMARK                         _______ _______ _______ _____ _____    ______ ____
ROOT
ATOM      1  S   UNL     1       0.213  -1.154   1.500  0.00  0.00    -0.017 S 
ATOM      2  O   UNL     1       1.452   3.176  -0.873  0.00  0.00    -0.272 OA
ATOM      3  N   UNL     1      -1.115   0.954   0.257  0.00  0.00    -0.265 N 
ATOM      4  N   UNL     1       1.184   1.067   0.130  0.00  0.00    -0.217 N 
ATOM      5  C   UNL     1      -0.795   2.367  -0.131  0.00  0.00    +0.133 C 
ATOM      6  C   UNL     1      -1.628   3.037  -1.250  0.00  0.00    +0.028 C 
ATOM      7  C   UNL     1      -1.253   3.484   0.841  0.00  0.00    +0.028 C 
ATOM      8  C   UNL     1      -1.705   4.306  -0.380  0.00  0.00    +0.004 C 
ATOM      9  C   UNL     1       0.763   2.305  -0.349  0.00  0.00    +0.251 C 
ATOM     10  C   UNL     1       0.103   0.255   0.578  0.00  0.00    +0.152 C 
ENDROOT
BRANCH   3  12
ATOM     11  F   UNL     1      -3.891  -2.836  -0.788  0.00  0.00    -0.204 F 
ATOM     12  C   UNL     1      -2.410   0.352   0.142  0.00  0.00    +0.055 C 
ATOM     13  C   UNL     1      -2.529  -0.974  -0.275  0.00  0.00    +0.045 C 
ATOM     14  C   UNL     1      -3.553   1.091   0.448  0.00  0.00    +0.015 C 
ATOM     15  C   UNL     1      -3.789  -1.561  -0.386  0.00  0.00    +0.146 C 
ATOM     16  C   UNL     1      -4.814   0.505   0.337  0.00  0.00    +0.008 C 
ATOM     17  C   UNL     1      -4.932  -0.821  -0.080  0.00  0.00    +0.081 C 
BRANCH  17  20
ATOM     18  O   UNL     1      -6.455  -2.338  -1.016  0.00  0.00    -0.270 OA
ATOM     19  N   UNL     1      -7.241  -0.960   0.675  0.00  0.00    -0.299 N 
ATOM     20  C   UNL     1      -6.248  -1.429  -0.193  0.00  0.00    +0.248 C 
ATOM     21  C   UNL     1      -8.590  -1.479   0.701  0.00  0.00    +0.111 C 
ATOM     22  H   UNL     1      -7.008  -0.237   1.302  0.00  0.00    +0.150 HD
ENDBRANCH  17  20
ENDBRANCH   3  12
BRANCH   4  24
ATOM     23  N   UNL     1       4.884   1.378   0.236  0.00  0.00    -0.232 NA
ATOM     24  C   UNL     1       2.566   0.700   0.117  0.00  0.00    +0.079 C 
ATOM     25  C   UNL     1       2.954  -0.629  -0.013  0.00  0.00    +0.023 C 
ATOM     26  C   UNL     1       3.561   1.657   0.238  0.00  0.00    +0.115 C 
ATOM     27  C   UNL     1       4.306  -0.955  -0.020  0.00  0.00    +0.100 C 
ATOM     28  C   UNL     1       5.222   0.076   0.107  0.00  0.00    +0.153 C 
BRANCH  27  32
ATOM     29  F   UNL     1       3.670  -3.248  -0.267  0.00  0.00    -0.166 F 
ATOM     30  F   UNL     1       5.496  -2.622  -1.255  0.00  0.00    -0.166 F 
ATOM     31  F   UNL     1       5.448  -2.822   0.910  0.00  0.00    -0.166 F 
ATOM     32  C   UNL     1       4.720  -2.381  -0.157  0.00  0.00    +0.421 C 
ENDBRANCH  27  32
BRANCH  28  34
ATOM     33  N   UNL     1       7.777  -0.345   0.108  0.00  0.00    -0.189 NA
ATOM     34  C   UNL     1       6.631  -0.156   0.108  0.00  0.00    +0.120 C 
ENDBRANCH  28  34
ENDBRANCH   4  24
TORSDOF 5
