REMARK  Name = 11292191
REMARK  6 active torsions:
REMARK  status: ('A' for Active; 'I' for Inactive)
REMARK    1  A    between atoms: N_1  and  C_24
REMARK    2  A    between atoms: C_5  and  S_16
REMARK    3  A    between atoms: C_6  and  N_12
REMARK    4  A    between atoms: S_16  and  C_18
REMARK    5  A    between atoms: C_24  and  C_26
REMARK    6  A    between atoms: C_26  and  O_27
REMARK                            x       y       z     vdW  Elec       q    Type
REMARK                         _______ _______ _______ _____ _____    ______ ____
ROOT
ATOM      1  N   UNL     1      -1.248   1.749   0.259  0.00  0.00    -0.320 N 
ATOM      2  C   UNL     1      -1.920   0.585   0.557  0.00  0.00    +0.062 A 
ATOM      3  C   UNL     1      -1.205  -0.463  -0.027  0.00  0.00    +0.036 A 
ATOM      4  C   UNL     1      -0.135   1.474  -0.490  0.00  0.00    +0.044 A 
ATOM      5  C   UNL     1      -0.082   0.113  -0.683  0.00  0.00    +0.044 A 
ATOM      6  C   UNL     1      -1.684  -1.779   0.128  0.00  0.00    +0.052 C 
ATOM      7  C   UNL     1      -3.095   0.382   1.290  0.00  0.00    +0.017 C 
ATOM      8  C   UNL     1       0.773   2.548  -0.951  0.00  0.00    +0.051 C 
ATOM      9  C   UNL     1      -2.857  -1.997   0.859  0.00  0.00    +0.015 C 
ATOM     10  C   UNL     1      -3.550  -0.932   1.430  0.00  0.00    +0.003 C 
ENDROOT
BRANCH   6  12
ATOM     11  O   UNL     1      -2.365  -4.710   0.224  0.00  0.00    -0.275 OA
ATOM     12  N   UNL     1      -1.027  -2.881  -0.423  0.00  0.00    -0.284 N 
ATOM     13  C   UNL     1      -1.390  -4.231  -0.345  0.00  0.00    +0.227 C 
ATOM     14  C   UNL     1      -0.412  -5.116  -1.078  0.00  0.00    +0.095 C 
ATOM     15  H   UNL     1      -0.206  -2.684  -0.929  0.00  0.00    +0.155 HD
ENDBRANCH   6  12
BRANCH   5  16
ATOM     16  S   UNL     1       1.160  -0.729  -1.584  0.00  0.00    -0.086 S 
BRANCH  16  18
ATOM     17 CL   UNL     1       6.377   0.776   1.596  0.00  0.00    -0.082 Cl
ATOM     18  C   UNL     1       2.647  -0.300  -0.678  0.00  0.00    +0.030 C 
ATOM     19  C   UNL     1       2.757  -0.648   0.663  0.00  0.00    +0.007 C 
ATOM     20  C   UNL     1       3.673   0.376  -1.325  0.00  0.00    +0.007 C 
ATOM     21  C   UNL     1       3.914  -0.314   1.368  0.00  0.00    +0.012 C 
ATOM     22  C   UNL     1       4.830   0.710  -0.620  0.00  0.00    +0.012 C 
ATOM     23  C   UNL     1       4.950   0.365   0.727  0.00  0.00    +0.058 C 
ENDBRANCH  16  18
ENDBRANCH   5  16
BRANCH   1  24
ATOM     24  C   UNL     1      -1.660   3.073   0.679  0.00  0.00    +0.216 C 
BRANCH  24  26
ATOM     25  O   UNL     1      -2.954   3.253  -1.377  0.00  0.00    -0.248 OA
ATOM     26  C   UNL     1      -2.572   3.731  -0.320  0.00  0.00    +0.337 C 
BRANCH  26  27
ATOM     27  O   UNL     1      -2.925   4.966   0.120  0.00  0.00    -0.479 OA
ATOM     28  H   UNL     1      -2.602   5.282   0.941  0.00  0.00    +0.295 HD
ENDBRANCH  26  27
ENDBRANCH  24  26
ENDBRANCH   1  24
TORSDOF 6
