REMARK  Name = 445900
REMARK  1 active torsions:
REMARK  status: ('A' for Active; 'I' for Inactive)
REMARK    1  A    between atoms: C_7  and  C_18
REMARK                            x       y       z     vdW  Elec       q    Type
REMARK                         _______ _______ _______ _____ _____    ______ ____
ROOT
ATOM      1  O   UNL     1      -3.109   2.134   0.352  0.00  0.00    -0.275 OA
ATOM      2  O   UNL     1       1.318   3.924  -0.131  0.00  0.00    -0.273 OA
ATOM      3  N   UNL     1       1.794   1.653   0.050  0.00  0.00    -0.274 N 
ATOM      4  N   UNL     1      -0.955   1.252   0.404  0.00  0.00    -0.269 N 
ATOM      5  C   UNL     1       1.374   0.389   0.672  0.00  0.00    +0.117 C 
ATOM      6  C   UNL     1      -0.067   0.095   0.242  0.00  0.00    +0.118 C 
ATOM      7  C   UNL     1      -2.337   1.184   0.199  0.00  0.00    +0.226 C 
ATOM      8  C   UNL     1       2.280  -0.793   0.376  0.00  0.00    -0.007 C 
ATOM      9  C   UNL     1       3.151   1.766  -0.474  0.00  0.00    +0.098 C 
ATOM     10  C   UNL     1      -0.359   2.516   0.829  0.00  0.00    +0.179 C 
ATOM     11  C   UNL     1       3.496   0.575  -1.355  0.00  0.00    +0.048 C 
ATOM     12  C   UNL     1       0.976   2.777   0.158  0.00  0.00    +0.246 C 
ATOM     13  C   UNL     1       3.292  -0.708  -0.598  0.00  0.00    -0.023 C 
ATOM     14  C   UNL     1       2.112  -1.996   1.079  0.00  0.00    -0.003 C 
ATOM     15  C   UNL     1       4.084  -1.829  -0.882  0.00  0.00    -0.004 C 
ATOM     16  C   UNL     1       2.917  -3.102   0.801  0.00  0.00    -0.000 C 
ATOM     17  C   UNL     1       3.898  -3.020  -0.182  0.00  0.00    -0.000 C 
ENDROOT
BRANCH   7  18
ATOM     18  C   UNL     1      -2.877  -0.147  -0.231  0.00  0.00    +0.077 C 
ATOM     19  C   UNL     1      -3.211  -0.996   0.998  0.00  0.00    +0.009 C 
ATOM     20  C   UNL     1      -4.104   0.052  -1.124  0.00  0.00    +0.009 C 
ATOM     21  C   UNL     1      -3.853  -2.325   0.608  0.00  0.00    +0.000 C 
ATOM     22  C   UNL     1      -4.743  -1.280  -1.509  0.00  0.00    +0.000 C 
ATOM     23  C   UNL     1      -5.076  -2.120  -0.280  0.00  0.00    +0.000 C 
ENDBRANCH   7  18
TORSDOF 1
