REMARK  Name = 100773
REMARK  5 active torsions:
REMARK  status: ('A' for Active; 'I' for Inactive)
REMARK    1  A    between atoms: N_2  and  C_8
REMARK    2  A    between atoms: N_3  and  N_7
REMARK    3  A    between atoms: N_3  and  C_14
REMARK    4  A    between atoms: C_8  and  C_11
REMARK    5  A    between atoms: C_14  and  C_16
REMARK                            x       y       z     vdW  Elec       q    Type
REMARK                         _______ _______ _______ _____ _____    ______ ____
ROOT
ATOM      1  O   UNL     1       0.295  -0.948  -1.360  0.00  0.00    -0.251 OA
ATOM      2  N   UNL     1       1.044   0.618   0.153  0.00  0.00    -0.253 N 
ATOM      3  N   UNL     1      -1.280   0.451  -0.439  0.00  0.00    -0.163 N 
ATOM      4  C   UNL     1       0.033  -0.014  -0.590  0.00  0.00    +0.324 C 
ATOM      5  C   UNL     1       0.794   1.218   1.462  0.00  0.00    +0.117 C 
ENDROOT
BRANCH   3   7
ATOM      6  O   UNL     1      -2.761   2.140   0.000  0.00  0.00    -0.078 OA
ATOM      7  N   UNL     1      -1.557   1.878  -0.099  0.00  0.00    +0.054 NA
ENDBRANCH   3   7
BRANCH   2   8
ATOM      8  C   UNL     1       2.415   0.721  -0.328  0.00  0.00    +0.180 C 
BRANCH   8  11
ATOM      9  O   UNL     1       2.741  -1.393   0.807  0.00  0.00    -0.273 OA
ATOM     10  N   UNL     1       4.531  -0.413  -0.251  0.00  0.00    -0.327 N 
ATOM     11  C   UNL     1       3.208  -0.481   0.131  0.00  0.00    +0.240 C 
ATOM     12  H   UNL     1       5.151  -1.139  -0.011  0.00  0.00    +0.145 HD
ATOM     13  H   UNL     1       4.856   0.362  -0.765  0.00  0.00    +0.145 HD
ENDBRANCH   8  11
ENDBRANCH   2   8
BRANCH   3  14
ATOM     14  C   UNL     1      -2.418  -0.445  -0.611  0.00  0.00    +0.134 C 
BRANCH  14  16
ATOM     15 CL   UNL     1      -4.216  -2.211   0.439  0.00  0.00    -0.112 Cl
ATOM     16  C   UNL     1      -2.829  -1.121   0.687  0.00  0.00    +0.118 C 
ENDBRANCH  14  16
ENDBRANCH   3  14
TORSDOF 5
