REMARK  Name = 6472
REMARK  8 active torsions:
REMARK  status: ('A' for Active; 'I' for Inactive)
REMARK    1  A    between atoms: C_1  and  C_6
REMARK    2  A    between atoms: C_1  and  C_13
REMARK    3  A    between atoms: C_13  and  O_14
REMARK    4  A    between atoms: O_14  and  C_15
REMARK    5  A    between atoms: C_15  and  C_16
REMARK    6  A    between atoms: C_16  and  N_17
REMARK    7  A    between atoms: N_17  and  C_19
REMARK    8  A    between atoms: N_17  and  C_21
REMARK                            x       y       z     vdW  Elec       q    Type
REMARK                         _______ _______ _______ _____ _____    ______ ____
ROOT
ATOM      1  C   UNL     1      -2.002  -0.789   0.049  0.00  0.00    +0.108 C 
ATOM      2  C   UNL     1      -3.113  -1.586  -0.662  0.00  0.00    +0.015 C 
ATOM      3  C   UNL     1      -2.046  -1.419   1.455  0.00  0.00    +0.015 C 
ATOM      4  C   UNL     1      -3.011  -3.010  -0.121  0.00  0.00    +0.001 C 
ATOM      5  C   UNL     1      -2.322  -2.903   1.234  0.00  0.00    +0.001 C 
ENDROOT
BRANCH   1   6
ATOM      6  C   UNL     1      -2.205   0.720   0.032  0.00  0.00    -0.013 C 
ATOM      7  C   UNL     1      -1.757   1.498   1.100  0.00  0.00    -0.004 C 
ATOM      8  C   UNL     1      -2.841   1.327  -1.053  0.00  0.00    -0.004 C 
ATOM      9  C   UNL     1      -1.944   2.880   1.083  0.00  0.00    -0.000 C 
ATOM     10  C   UNL     1      -3.028   2.709  -1.069  0.00  0.00    -0.000 C 
ATOM     11  C   UNL     1      -2.579   3.486  -0.001  0.00  0.00    -0.000 C 
ENDBRANCH   1   6
BRANCH   1  13
ATOM     12  O   UNL     1      -0.533  -1.782  -1.597  0.00  0.00    -0.250 OA
ATOM     13  C   UNL     1      -0.669  -1.088  -0.599  0.00  0.00    +0.320 C 
BRANCH  13  14
ATOM     14  O   UNL     1       0.326  -0.472   0.101  0.00  0.00    -0.451 OA
BRANCH  14  15
ATOM     15  C   UNL     1       1.649  -0.672  -0.406  0.00  0.00    +0.186 C 
BRANCH  15  16
ATOM     16  C   UNL     1       2.631   0.076   0.481  0.00  0.00    -0.029 C 
BRANCH  16  17
ATOM     17  N   UNL     1       3.996  -0.114   0.012  0.00  0.00    +0.389 N 
ATOM     18  H   UNL     1       4.199  -1.113   0.031  0.00  0.00    -0.080 HD
BRANCH  17  19
ATOM     19  C   UNL     1       4.946   0.573   0.890  0.00  0.00    -0.077 C 
ATOM     20  C   UNL     1       4.813   0.091   2.325  0.00  0.00    -0.025 C 
ENDBRANCH  17  19
BRANCH  17  21
ATOM     21  C   UNL     1       4.142   0.366  -1.365  0.00  0.00    -0.077 C 
ATOM     22  C   UNL     1       5.545   0.109  -1.889  0.00  0.00    -0.025 C 
ENDBRANCH  17  21
ENDBRANCH  16  17
ENDBRANCH  15  16
ENDBRANCH  14  15
ENDBRANCH  13  14
ENDBRANCH   1  13
TORSDOF 8
