REMARK  Name = 2683
REMARK  15 active torsions:
REMARK  status: ('A' for Active; 'I' for Inactive)
REMARK    1  A    between atoms: C_1  and  C_2
REMARK    2  A    between atoms: C_1  and  C_12
REMARK    3  A    between atoms: C_2  and  C_3
REMARK    4  A    between atoms: C_3  and  C_4
REMARK    5  A    between atoms: C_4  and  C_5
REMARK    6  A    between atoms: C_5  and  C_6
REMARK    7  A    between atoms: C_6  and  C_7
REMARK    8  A    between atoms: C_7  and  C_8
REMARK    9  A    between atoms: C_8  and  C_9
REMARK   10  A    between atoms: C_9  and  C_10
REMARK   11  A    between atoms: C_12  and  C_13
REMARK   12  A    between atoms: C_13  and  C_14
REMARK   13  A    between atoms: C_14  and  C_15
REMARK   14  A    between atoms: C_15  and  C_16
REMARK   15  A    between atoms: C_16  and  N_17
REMARK                            x       y       z     vdW  Elec       q    Type
REMARK                         _______ _______ _______ _____ _____    ______ ____
ROOT
ATOM      1  C   UNL     1      -0.003   0.054  -0.261  0.00  0.00    +0.000 C 
ENDROOT
BRANCH   1   2
ATOM      2  C   UNL     1       1.336   0.700   0.108  0.00  0.00    +0.000 C 
BRANCH   2   3
ATOM      3  C   UNL     1       2.590  -0.064  -0.329  0.00  0.00    +0.000 C 
BRANCH   3   4
ATOM      4  C   UNL     1       3.895   0.601   0.116  0.00  0.00    +0.000 C 
BRANCH   4   5
ATOM      5  C   UNL     1       5.112  -0.200  -0.355  0.00  0.00    +0.000 C 
BRANCH   5   6
ATOM      6  C   UNL     1       6.448   0.407   0.084  0.00  0.00    +0.000 C 
BRANCH   6   7
ATOM      7  C   UNL     1       7.661  -0.434  -0.324  0.00  0.00    +0.000 C 
BRANCH   7   8
ATOM      8  C   UNL     1       8.961   0.180   0.202  0.00  0.00    +0.000 C 
BRANCH   8   9
ATOM      9  C   UNL     1      10.207  -0.636  -0.154  0.00  0.00    +0.000 C 
BRANCH   9  10
ATOM     10  C   UNL     1      11.508  -0.012   0.350  0.00  0.00    +0.000 C 
ATOM     11  C   UNL     1      12.714  -0.853  -0.039  0.00  0.00    +0.000 C 
ENDBRANCH   9  10
ENDBRANCH   8   9
ENDBRANCH   7   8
ENDBRANCH   6   7
ENDBRANCH   5   6
ENDBRANCH   4   5
ENDBRANCH   3   4
ENDBRANCH   2   3
ENDBRANCH   1   2
BRANCH   1  12
ATOM     12  C   UNL     1      -1.218   0.849   0.222  0.00  0.00    +0.000 C 
BRANCH  12  13
ATOM     13  C   UNL     1      -2.524   0.141  -0.145  0.00  0.00    +0.000 C 
BRANCH  13  14
ATOM     14  C   UNL     1      -3.739   0.917   0.366  0.00  0.00    +0.002 C 
BRANCH  14  15
ATOM     15  C   UNL     1      -5.043   0.193   0.029  0.00  0.00    +0.021 C 
BRANCH  15  16
ATOM     16  C   UNL     1      -6.249   0.949   0.574  0.00  0.00    +0.091 C 
BRANCH  16  17
ATOM     17  N   UNL     1      -7.484   0.209   0.235  0.00  0.00    -0.303 N 
ATOM     18  C   UNL     1      -7.942  -0.711   1.095  0.00  0.00    +0.117 C 
ATOM     19  C   UNL     1      -8.104   0.483  -0.921  0.00  0.00    +0.062 C 
ATOM     20  C   UNL     1      -9.098  -1.420   0.803  0.00  0.00    -0.005 C 
ATOM     21  C   UNL     1      -9.264  -0.196  -1.265  0.00  0.00    +0.016 C 
ATOM     22  C   UNL     1      -9.764  -1.157  -0.391  0.00  0.00    -0.002 C 
ENDBRANCH  16  17
ENDBRANCH  15  16
ENDBRANCH  14  15
ENDBRANCH  13  14
ENDBRANCH  12  13
ENDBRANCH   1  12
TORSDOF 15
