REMARK  Name = 9794203
REMARK  4 active torsions:
REMARK  status: ('A' for Active; 'I' for Inactive)
REMARK    1  A    between atoms: C_1  and  C_2
REMARK    2  A    between atoms: C_1  and  N_8
REMARK    3  A    between atoms: C_1  and  C_12
REMARK    4  A    between atoms: C_12  and  C_14
REMARK                            x       y       z     vdW  Elec       q    Type
REMARK                         _______ _______ _______ _____ _____    ______ ____
ROOT
ATOM      1  C   UNL     1       0.616   1.695   0.390  0.00  0.00    -0.036 C 
ENDROOT
BRANCH   1   2
ATOM      2  C   UNL     1       1.437   0.456   0.265  0.00  0.00    -0.042 C 
ATOM      3  C   UNL     1       1.131  -0.664   1.039  0.00  0.00    -0.006 C 
ATOM      4  C   UNL     1       2.510   0.417  -0.625  0.00  0.00    -0.006 C 
ATOM      5  C   UNL     1       1.899  -1.823   0.922  0.00  0.00    -0.000 C 
ATOM      6  C   UNL     1       3.277  -0.742  -0.742  0.00  0.00    -0.000 C 
ATOM      7  C   UNL     1       2.972  -1.862   0.032  0.00  0.00    -0.000 C 
ENDBRANCH   1   2
BRANCH   1   8
ATOM      8  N   UNL     1       1.431   2.915   0.203  0.00  0.00    +0.385 N 
ATOM      9  H   UNL     1       0.836   3.739   0.295  0.00  0.00    -0.089 HD
ATOM     10  H   UNL     1       1.853   2.903  -0.726  0.00  0.00    -0.089 HD
ATOM     11  H   UNL     1       2.165   2.946   0.910  0.00  0.00    -0.089 HD
ENDBRANCH   1   8
BRANCH   1  12
ATOM     12  C   UNL     1      -0.600   1.752  -0.580  0.00  0.00    +0.028 C 
BRANCH  12  14
ATOM     13  N   UNL     1      -1.372  -0.495  -1.046  0.00  0.00    -0.248 NA
ATOM     14  C   UNL     1      -1.588   0.631  -0.346  0.00  0.00    +0.057 C 
ATOM     15  C   UNL     1      -2.616   0.834   0.545  0.00  0.00    +0.015 C 
ATOM     16  C   UNL     1      -3.507  -0.216   0.738  0.00  0.00    +0.003 C 
ATOM     17  C   UNL     1      -2.259  -1.494  -0.833  0.00  0.00    +0.098 C 
ATOM     18  C   UNL     1      -3.332  -1.406   0.039  0.00  0.00    +0.021 C 
ENDBRANCH  12  14
ENDBRANCH   1  12
TORSDOF 4
