REMARK  Name = 214351
REMARK  5 active torsions:
REMARK  status: ('A' for Active; 'I' for Inactive)
REMARK    1  A    between atoms: C_5  and  S_17
REMARK    2  A    between atoms: C_6  and  N_12
REMARK    3  A    between atoms: S_17  and  C_19
REMARK    4  A    between atoms: C_19  and  C_21
REMARK    5  A    between atoms: C_23  and  O_27
REMARK                            x       y       z     vdW  Elec       q    Type
REMARK                         _______ _______ _______ _____ _____    ______ ____
ROOT
ATOM      1  N   UNL     1      -1.206   1.091   0.800  0.00  0.00    -0.307 N 
ATOM      2  N   UNL     1      -0.423  -0.789  -0.091  0.00  0.00    -0.307 N 
ATOM      3  C   UNL     1      -2.312   0.393   0.387  0.00  0.00    +0.061 C 
ATOM      4  C   UNL     1      -1.797  -0.776  -0.165  0.00  0.00    +0.060 C 
ATOM      5  C   UNL     1      -0.103   0.344   0.492  0.00  0.00    +0.226 C 
ATOM      6  C   UNL     1      -4.543  -0.286  -0.082  0.00  0.00    +0.057 C 
ATOM      7  C   UNL     1      -3.677   0.676   0.449  0.00  0.00    +0.031 C 
ATOM      8  C   UNL     1      -2.682  -1.732  -0.693  0.00  0.00    +0.017 C 
ATOM      9  C   UNL     1      -4.057  -1.469  -0.642  0.00  0.00    +0.016 C 
ATOM     10  H   UNL     1      -1.206   1.972   1.239  0.00  0.00    +0.149 HD
ATOM     11  H   UNL     1       0.187  -1.494  -0.407  0.00  0.00    +0.149 HD
ENDROOT
BRANCH   6  12
ATOM     12  N   UNL     1      -5.909  -0.060  -0.048  0.00  0.00    -0.263 N 
ATOM     13  C   UNL     1      -6.874  -0.915  -0.530  0.00  0.00    +0.070 C 
ATOM     14  C   UNL     1      -6.523   1.056   0.475  0.00  0.00    +0.070 C 
ATOM     15  C   UNL     1      -8.106  -0.339  -0.312  0.00  0.00    +0.018 C 
ATOM     16  C   UNL     1      -7.884   0.908   0.323  0.00  0.00    +0.018 C 
ENDBRANCH   6  12
BRANCH   5  17
ATOM     17  S   UNL     1       1.578   0.846   0.839  0.00  0.00    +0.085 S 
ATOM     18  O   UNL     1       1.661   2.321   0.552  0.00  0.00    -0.252 OA
BRANCH  17  19
ATOM     19  C   UNL     1       2.377  -0.008  -0.546  0.00  0.00    +0.140 C 
BRANCH  19  21
ATOM     20  N   UNL     1       4.282   1.288  -1.251  0.00  0.00    -0.247 NA
ATOM     21  C   UNL     1       3.862   0.214  -0.552  0.00  0.00    +0.072 C 
ATOM     22  C   UNL     1       4.694  -0.653   0.129  0.00  0.00    +0.027 C 
ATOM     23  C   UNL     1       6.061  -0.400   0.090  0.00  0.00    +0.137 C 
ATOM     24  C   UNL     1       4.159  -1.824   0.882  0.00  0.00    +0.035 C 
ATOM     25  C   UNL     1       6.539   0.697  -0.619  0.00  0.00    +0.057 C 
ATOM     26  C   UNL     1       5.617   1.503  -1.266  0.00  0.00    +0.102 C 
BRANCH  23  27
ATOM     27  O   UNL     1       6.942  -1.211   0.737  0.00  0.00    -0.472 OA
ATOM     28  C   UNL     1       8.325  -0.874   0.643  0.00  0.00    +0.252 C 
ENDBRANCH  23  27
ENDBRANCH  19  21
ENDBRANCH  17  19
ENDBRANCH   5  17
TORSDOF 5
