REMARK  Name = 54459
REMARK  1 active torsions:
REMARK  status: ('A' for Active; 'I' for Inactive)
REMARK    1  A    between atoms: C_3  and  C_13
REMARK                            x       y       z     vdW  Elec       q    Type
REMARK                         _______ _______ _______ _____ _____    ______ ____
ROOT
ATOM      1  O   UNL     1       0.018   0.779  -0.084  0.00  0.00    -0.465 OA
ATOM      2  O   UNL     1      -1.073  -1.890  -0.011  0.00  0.00    -0.468 OA
ATOM      3  C   UNL     1       0.757  -0.381  -0.463  0.00  0.00    +0.263 C 
ATOM      4  C   UNL     1       0.285  -1.591   0.322  0.00  0.00    +0.256 C 
ATOM      5  C   UNL     1      -1.329   0.528  -0.035  0.00  0.00    +0.173 C 
ATOM      6  C   UNL     1      -1.858  -0.766  -0.011  0.00  0.00    +0.172 C 
ATOM      7  C   UNL     1      -2.181   1.632   0.000  0.00  0.00    +0.040 C 
ATOM      8  C   UNL     1      -3.240  -0.955   0.004  0.00  0.00    +0.040 C 
ATOM      9  C   UNL     1      -3.563   1.441   0.029  0.00  0.00    +0.003 C 
ATOM     10  C   UNL     1      -4.091   0.150   0.026  0.00  0.00    +0.003 C 
ENDROOT
BRANCH   3  13
ATOM     11  N   UNL     1       3.116   0.053  -1.119  0.00  0.00    -0.296 N 
ATOM     12  N   UNL     1       2.572   0.175   1.087  0.00  0.00    -0.228 NA
ATOM     13  C   UNL     1       2.176  -0.051  -0.140  0.00  0.00    +0.153 C 
ATOM     14  C   UNL     1       4.379   0.416  -0.551  0.00  0.00    +0.084 C 
ATOM     15  C   UNL     1       4.033   0.462   0.945  0.00  0.00    +0.116 C 
ATOM     16  H   UNL     1       2.952  -0.100  -2.078  0.00  0.00    +0.153 HD
ENDBRANCH   3  13
TORSDOF 1
