11223423
  -OEChem-10051722553D

 54 58  0     0  0  0  0  0  0999 V2000
    7.4050    1.2735   -0.0265 O   0  0  0  0  0  0  0  0  0  0  0  0
   -3.7674    2.6660    0.1013 O   0  0  0  0  0  0  0  0  0  0  0  0
    1.8957    0.3371    0.0620 N   0  0  0  0  0  0  0  0  0  0  0  0
   -2.5072   -1.4087    0.0463 N   0  0  0  0  0  0  0  0  0  0  0  0
    1.6260   -2.1403    0.0333 N   0  0  0  0  0  0  0  0  0  0  0  0
   -5.2244    0.7610    0.0549 N   0  0  0  0  0  0  0  0  0  0  0  0
   -2.9867   -0.1471    0.0558 N   0  0  0  0  0  0  0  0  0  0  0  0
   -6.0764    2.8710    0.0507 N   0  0  0  0  0  0  0  0  0  0  0  0
   -0.4857    0.8456    0.0320 C   0  0  0  0  0  0  0  0  0  0  0  0
   -0.2274   -0.6167    0.0590 C   0  0  0  0  0  0  0  0  0  0  0  0
    0.9151    1.4095    0.3158 C   0  0  0  0  0  0  0  0  0  0  0  0
    1.1409   -0.8825    0.0425 C   0  0  0  0  0  0  0  0  0  0  0  0
   -1.1466   -1.6501    0.0501 C   0  0  0  0  0  0  0  0  0  0  0  0
    3.2741    0.5721    0.0256 C   0  0  0  0  0  0  0  0  0  0  0  0
   -0.6645   -2.9521    0.0405 C   0  0  0  0  0  0  0  0  0  0  0  0
    0.7123   -3.1419    0.0326 C   0  0  0  0  0  0  0  0  0  0  0  0
    3.9775    0.7419   -1.1909 C   0  0  0  0  0  0  0  0  0  0  0  0
   -4.3116   -0.3162    0.0489 C   0  0  0  0  0  0  0  0  0  0  0  0
   -6.6727    0.6225    0.1267 C   0  0  0  0  0  0  0  0  0  0  0  0
    4.0235    0.6492    1.2229 C   0  0  0  0  0  0  0  0  0  0  0  0
   -3.4957   -2.3582    0.0333 C   0  0  0  0  0  0  0  0  0  0  0  0
   -7.2230    2.0206   -0.0744 C   0  0  0  0  0  0  0  0  0  0  0  0
   -4.6862   -1.6732    0.0350 C   0  0  0  0  0  0  0  0  0  0  0  0
   -4.8730    2.1419    0.0689 C   0  0  0  0  0  0  0  0  0  0  0  0
    5.3526    0.9754   -1.2081 C   0  0  0  0  0  0  0  0  0  0  0  0
    1.2536   -4.5332    0.0207 C   0  0  0  0  0  0  0  0  0  0  0  0
    3.2414    0.6711   -2.4892 C   0  0  0  0  0  0  0  0  0  0  0  0
    5.3986    0.8828    1.2056 C   0  0  0  0  0  0  0  0  0  0  0  0
    6.0631    1.0459   -0.0100 C   0  0  0  0  0  0  0  0  0  0  0  0
    8.0690    1.3332    1.2350 C   0  0  0  0  0  0  0  0  0  0  0  0
   -0.8318    1.1663   -0.9562 H   0  0  0  0  0  0  0  0  0  0  0  0
   -1.1589    1.2013    0.8165 H   0  0  0  0  0  0  0  0  0  0  0  0
    1.1111    2.2904   -0.3069 H   0  0  0  0  0  0  0  0  0  0  0  0
    0.9884    1.7224    1.3659 H   0  0  0  0  0  0  0  0  0  0  0  0
   -1.3017   -3.8285    0.0363 H   0  0  0  0  0  0  0  0  0  0  0  0
   -6.9321    0.2345    1.1180 H   0  0  0  0  0  0  0  0  0  0  0  0
   -7.0355   -0.0679   -0.6412 H   0  0  0  0  0  0  0  0  0  0  0  0
    3.5214    0.5237    2.1804 H   0  0  0  0  0  0  0  0  0  0  0  0
   -3.3197   -3.4240    0.0241 H   0  0  0  0  0  0  0  0  0  0  0  0
   -7.6371    2.1550   -1.0783 H   0  0  0  0  0  0  0  0  0  0  0  0
   -7.9765    2.2938    0.6687 H   0  0  0  0  0  0  0  0  0  0  0  0
   -5.6748   -2.1090    0.0279 H   0  0  0  0  0  0  0  0  0  0  0  0
    5.8810    1.1036   -2.1497 H   0  0  0  0  0  0  0  0  0  0  0  0
    2.3486   -4.5291    0.0171 H   0  0  0  0  0  0  0  0  0  0  0  0
    0.9214   -5.0787    0.9096 H   0  0  0  0  0  0  0  0  0  0  0  0
    0.9154   -5.0657   -0.8739 H   0  0  0  0  0  0  0  0  0  0  0  0
   -6.1154    3.8853    0.0460 H   0  0  0  0  0  0  0  0  0  0  0  0
    3.9004    0.8659   -3.3423 H   0  0  0  0  0  0  0  0  0  0  0  0
    2.8101   -0.3253   -2.6308 H   0  0  0  0  0  0  0  0  0  0  0  0
    2.4429    1.4197   -2.5213 H   0  0  0  0  0  0  0  0  0  0  0  0
    5.8885    0.9254    2.1723 H   0  0  0  0  0  0  0  0  0  0  0  0
    8.0090    0.3776    1.7669 H   0  0  0  0  0  0  0  0  0  0  0  0
    7.7059    2.1696    1.8417 H   0  0  0  0  0  0  0  0  0  0  0  0
    9.1288    1.5207    1.0338 H   0  0  0  0  0  0  0  0  0  0  0  0
  1 29  1  0  0  0  0
  1 30  1  0  0  0  0
  2 24  2  0  0  0  0
  3 11  1  0  0  0  0
  3 12  1  0  0  0  0
  3 14  1  0  0  0  0
  4  7  1  0  0  0  0
  4 13  1  0  0  0  0
  4 21  1  0  0  0  0
  5 12  2  0  0  0  0
  5 16  1  0  0  0  0
  6 18  1  0  0  0  0
  6 19  1  0  0  0  0
  6 24  1  0  0  0  0
  7 18  2  0  0  0  0
  8 22  1  0  0  0  0
  8 24  1  0  0  0  0
  8 47  1  0  0  0  0
  9 10  1  0  0  0  0
  9 11  1  0  0  0  0
  9 31  1  0  0  0  0
  9 32  1  0  0  0  0
 10 12  1  0  0  0  0
 10 13  2  0  0  0  0
 11 33  1  0  0  0  0
 11 34  1  0  0  0  0
 13 15  1  0  0  0  0
 14 17  2  0  0  0  0
 14 20  1  0  0  0  0
 15 16  2  0  0  0  0
 15 35  1  0  0  0  0
 16 26  1  0  0  0  0
 17 25  1  0  0  0  0
 17 27  1  0  0  0  0
 18 23  1  0  0  0  0
 19 22  1  0  0  0  0
 19 36  1  0  0  0  0
 19 37  1  0  0  0  0
 20 28  2  0  0  0  0
 20 38  1  0  0  0  0
 21 23  2  0  0  0  0
 21 39  1  0  0  0  0
 22 40  1  0  0  0  0
 22 41  1  0  0  0  0
 23 42  1  0  0  0  0
 25 29  2  0  0  0  0
 25 43  1  0  0  0  0
 26 44  1  0  0  0  0
 26 45  1  0  0  0  0
 26 46  1  0  0  0  0
 27 48  1  0  0  0  0
 27 49  1  0  0  0  0
 27 50  1  0  0  0  0
 28 29  1  0  0  0  0
 28 51  1  0  0  0  0
 30 52  1  0  0  0  0
 30 53  1  0  0  0  0
 30 54  1  0  0  0  0
M  END
> <DATABASE_ID>
DB12910

> <DATABASE_NAME>
drugbank

> <ORIGINAL_SOURCE>
PUBCHEM

> <ORIGINAL_SOURCE_URL>
https://pubchem.ncbi.nlm.nih.gov/rest/pug/compound/inchikey/JFHJGXQFESYQGY-UHFFFAOYSA-N/SDF?record_type=3d

> <SMILES>
COC1=CC=C(N2CCC3=C2N=C(C)C=C3N2C=CC(=N2)N2CCNC2=O)C(C)=C1

> <INCHI_IDENTIFIER>
InChI=1S/C22H24N6O2/c1-14-12-16(30-3)4-5-18(14)26-9-6-17-19(13-15(2)24-21(17)26)28-10-7-20(25-28)27-11-8-23-22(27)29/h4-5,7,10,12-13H,6,8-9,11H2,1-3H3,(H,23,29)

> <INCHI_KEY>
JFHJGXQFESYQGY-UHFFFAOYSA-N

> <FORMULA>
C22H24N6O2

> <MOLECULAR_WEIGHT>
404.474

> <EXACT_MASS>
404.196074037

> <JCHEM_ACCEPTOR_COUNT>
5

> <JCHEM_ATOM_COUNT>
54

> <JCHEM_AVERAGE_POLARIZABILITY>
44.85184315781792

> <JCHEM_BIOAVAILABILITY>
1

> <JCHEM_DONOR_COUNT>
1

> <JCHEM_FORMAL_CHARGE>
0

> <JCHEM_GHOSE_FILTER>
1

> <JCHEM_IUPAC>
1-{1-[1-(4-methoxy-2-methylphenyl)-6-methyl-1H,2H,3H-pyrrolo[2,3-b]pyridin-4-yl]-1H-pyrazol-3-yl}imidazolidin-2-one

> <ALOGPS_LOGP>
2.46

> <JCHEM_LOGP>
3.041299620000001

> <ALOGPS_LOGS>
-3.14

> <JCHEM_MDDR_LIKE_RULE>
0

> <JCHEM_NUMBER_OF_RINGS>
5

> <JCHEM_PHYSIOLOGICAL_CHARGE>
1

> <JCHEM_PKA_STRONGEST_ACIDIC>
15.53884984994032

> <JCHEM_PKA_STRONGEST_BASIC>
9.340556181773986

> <JCHEM_POLAR_SURFACE_AREA>
75.52000000000001

> <JCHEM_REFRACTIVITY>
115.26150000000001

> <JCHEM_ROTATABLE_BOND_COUNT>
4

> <JCHEM_RULE_OF_FIVE>
1

> <ALOGPS_SOLUBILITY>
2.96e-01 g/l

> <JCHEM_TRADITIONAL_IUPAC>
1-{1-[1-(4-methoxy-2-methylphenyl)-6-methyl-2H,3H-pyrrolo[2,3-b]pyridin-4-yl]pyrazol-3-yl}imidazolidin-2-one

> <JCHEM_VEBER_RULE>
0

> <DRUGBANK_ID>
DB12910

> <DRUG_GROUPS>
investigational

> <GENERIC_NAME>
Emicerfont

$$$$
