REMARK  Name = 11488110
REMARK  9 active torsions:
REMARK  status: ('A' for Active; 'I' for Inactive)
REMARK    1  A    between atoms: C_6  and  N_27
REMARK    2  A    between atoms: C_7  and  C_13
REMARK    3  A    between atoms: C_16  and  O_19
REMARK    4  A    between atoms: O_19  and  C_20
REMARK    5  A    between atoms: C_20  and  C_21
REMARK    6  A    between atoms: C_21  and  C_22
REMARK    7  A    between atoms: C_22  and  N_23
REMARK    8  A    between atoms: N_27  and  C_29
REMARK    9  A    between atoms: C_29  and  C_34
REMARK                            x       y       z     vdW  Elec       q    Type
REMARK                         _______ _______ _______ _____ _____    ______ ____
ROOT
ATOM      1 CL   UNL     1       1.700  -3.959  -0.510  0.00  0.00    -0.047 Cl
ATOM      2  N   UNL     1       3.673  -0.052  -0.017  0.00  0.00    -0.107 N 
ATOM      3  N   UNL     1       3.737  -2.411  -0.452  0.00  0.00    -0.324 NA
ATOM      4  N   UNL     1       4.551   0.982   0.073  0.00  0.00    -0.139 NA
ATOM      5  N   UNL     1       5.664  -0.946  -0.400  0.00  0.00    -0.145 NA
ATOM      6  C   UNL     1       2.278  -0.033   0.140  0.00  0.00    +0.136 C 
ATOM      7  C   UNL     1       1.603  -1.196   0.003  0.00  0.00    +0.076 C 
ATOM      8  C   UNL     1       4.379  -1.221  -0.307  0.00  0.00    +0.175 C 
ATOM      9  C   UNL     1       2.446  -2.403  -0.309  0.00  0.00    +0.204 C 
ATOM     10  C   UNL     1       5.717   0.389  -0.163  0.00  0.00    +0.230 C 
ENDROOT
BRANCH   7  13
ATOM     11  F   UNL     1       0.373  -1.709   2.476  0.00  0.00    -0.204 F 
ATOM     12  F   UNL     1      -0.140  -0.859  -2.175  0.00  0.00    -0.204 F 
ATOM     13  C   UNL     1       0.158  -1.281   0.146  0.00  0.00    +0.061 C 
ATOM     14  C   UNL     1      -0.405  -1.536   1.397  0.00  0.00    +0.145 C 
ATOM     15  C   UNL     1      -0.665  -1.105  -0.966  0.00  0.00    +0.145 C 
ATOM     16  C   UNL     1      -2.614  -1.441   0.422  0.00  0.00    +0.143 C 
ATOM     17  C   UNL     1      -1.791  -1.617   1.535  0.00  0.00    +0.067 C 
ATOM     18  C   UNL     1      -2.051  -1.185  -0.828  0.00  0.00    +0.067 C 
BRANCH  16  19
ATOM     19  O   UNL     1      -3.966  -1.522   0.557  0.00  0.00    -0.475 OA
BRANCH  19  20
ATOM     20  C   UNL     1      -4.755  -0.739  -0.337  0.00  0.00    +0.203 C 
BRANCH  20  21
ATOM     21  C   UNL     1      -6.062  -0.372   0.352  0.00  0.00    +0.024 C 
BRANCH  21  22
ATOM     22  C   UNL     1      -6.949   0.482  -0.548  0.00  0.00    -0.078 C 
BRANCH  22  23
ATOM     23  N   UNL     1      -8.182   0.836   0.145  0.00  0.00    +0.382 N 
ATOM     24  C   UNL     1      -9.024   1.680  -0.691  0.00  0.00    -0.106 C 
ATOM     25  H   UNL     1      -7.951   1.339   1.002  0.00  0.00    -0.085 HD
ATOM     26  H   UNL     1      -8.692  -0.021   0.361  0.00  0.00    -0.085 HD
ENDBRANCH  22  23
ENDBRANCH  21  22
ENDBRANCH  20  21
ENDBRANCH  19  20
ENDBRANCH  16  19
ENDBRANCH   7  13
BRANCH   6  27
ATOM     27  N   UNL     1       1.717   1.183   0.422  0.00  0.00    -0.314 N 
ATOM     28  H   UNL     1       1.234   1.290   1.273  0.00  0.00    +0.148 HD
BRANCH  27  29
ATOM     29  C   UNL     1       1.799   2.313  -0.463  0.00  0.00    +0.166 C 
ATOM     30  C   UNL     1       0.783   2.149  -1.586  0.00  0.00    +0.030 C 
BRANCH  29  34
ATOM     31  F   UNL     1       1.661   4.686  -0.455  0.00  0.00    -0.168 F 
ATOM     32  F   UNL     1       2.466   3.711   1.324  0.00  0.00    -0.168 F 
ATOM     33  F   UNL     1       0.335   3.590   0.890  0.00  0.00    -0.168 F 
ATOM     34  C   UNL     1       1.563   3.588   0.325  0.00  0.00    +0.414 C 
ENDBRANCH  29  34
ENDBRANCH  27  29
ENDBRANCH   6  27
TORSDOF 9
