REMARK  Name = 60848
REMARK  4 active torsions:
REMARK  status: ('A' for Active; 'I' for Inactive)
REMARK    1  A    between atoms: C_8  and  C_10
REMARK    2  A    between atoms: C_16  and  O_19
REMARK    3  A    between atoms: C_23  and  N_27
REMARK    4  A    between atoms: N_27  and  C_29
REMARK                            x       y       z     vdW  Elec       q    Type
REMARK                         _______ _______ _______ _____ _____    ______ ____
ROOT
ATOM      1  O   UNL     1       1.020  -3.601   0.625  0.00  0.00    -0.269 OA
ATOM      2  N   UNL     1      -2.828  -0.682  -0.035  0.00  0.00    -0.289 N 
ATOM      3  N   UNL     1      -0.331  -1.727   0.757  0.00  0.00    -0.272 N 
ATOM      4  C   UNL     1      -2.634  -2.141   0.010  0.00  0.00    +0.114 C 
ATOM      5  C   UNL     1      -1.616   0.127  -0.223  0.00  0.00    +0.114 C 
ATOM      6  C   UNL     1      -1.540  -2.505   1.013  0.00  0.00    +0.115 C 
ATOM      7  C   UNL     1      -0.547  -0.278   0.790  0.00  0.00    +0.115 C 
ATOM      8  C   UNL     1       0.903  -2.375   0.577  0.00  0.00    +0.263 C 
ATOM      9  N   UNL     1      -4.749  -0.939  -1.442  0.00  0.00    -0.228 NA
ATOM     10  C   UNL     1      -4.056  -0.206  -0.509  0.00  0.00    +0.145 C 
ATOM     11  C   UNL     1      -4.570   1.015  -0.030  0.00  0.00    +0.077 C 
ATOM     12  C   UNL     1      -5.791   1.480  -0.506  0.00  0.00    +0.019 C 
ATOM     13  C   UNL     1      -5.932  -0.454  -1.882  0.00  0.00    +0.100 C 
ATOM     14  C   UNL     1      -6.491   0.738  -1.450  0.00  0.00    +0.022 C 
ENDROOT
BRANCH   8  16
ATOM     15  N   UNL     1       2.869  -1.037   1.310  0.00  0.00    -0.309 N 
ATOM     16  C   UNL     1       2.068  -1.536   0.322  0.00  0.00    +0.103 C 
ATOM     17  C   UNL     1       2.558  -1.109  -0.886  0.00  0.00    +0.021 C 
ATOM     18  C   UNL     1       3.709  -0.314  -0.626  0.00  0.00    +0.018 C 
ATOM     19  C   UNL     1       3.882  -0.285   0.760  0.00  0.00    +0.049 C 
ATOM     20  C   UNL     1       4.624   0.386  -1.438  0.00  0.00    +0.038 C 
ATOM     21  C   UNL     1       4.928   0.411   1.376  0.00  0.00    +0.018 C 
ATOM     22  C   UNL     1       5.675   1.087  -0.835  0.00  0.00    +0.139 C 
ATOM     23  C   UNL     1       5.822   1.098   0.550  0.00  0.00    +0.038 C 
ATOM     24  H   UNL     1       2.740  -1.192   2.274  0.00  0.00    +0.152 HD
BRANCH  22  25
ATOM     25  O   UNL     1       6.563   1.766  -1.615  0.00  0.00    -0.471 OA
ATOM     26  C   UNL     1       7.612   2.462  -0.945  0.00  0.00    +0.252 C 
ENDBRANCH  22  25
ENDBRANCH   8  16
BRANCH  11  27
ATOM     27  N   UNL     1      -3.859   1.765   0.926  0.00  0.00    -0.330 N 
ATOM     28  H   UNL     1      -3.175   1.310   1.467  0.00  0.00    +0.147 HD
BRANCH  27  29
ATOM     29  C   UNL     1      -4.087   3.162   1.147  0.00  0.00    +0.087 C 
ATOM     30  C   UNL     1      -3.200   3.693   2.260  0.00  0.00    +0.023 C 
ENDBRANCH  27  29
ENDBRANCH  11  27
TORSDOF 4
