REMARK  Name = 72402
REMARK  3 active torsions:
REMARK  status: ('A' for Active; 'I' for Inactive)
REMARK    1  A    between atoms: C_6  and  O_27
REMARK    2  A    between atoms: C_6  and  C_29
REMARK    3  A    between atoms: C_20  and  N_24
REMARK                            x       y       z     vdW  Elec       q    Type
REMARK                         _______ _______ _______ _____ _____    ______ ____
ROOT
ATOM      1  O   UNL     1      -5.042  -0.827   0.409  0.00  0.00    -0.442 OA
ATOM      2  O   UNL     1      -1.742  -3.409  -0.185  0.00  0.00    -0.270 OA
ATOM      3  O   UNL     1      -5.657   1.185   1.193  0.00  0.00    -0.247 OA
ATOM      4  N   UNL     1      -0.264  -1.635  -0.072  0.00  0.00    -0.249 N 
ATOM      5  N   UNL     1       2.023   1.140   0.058  0.00  0.00    -0.405 NA
ATOM      6  C   UNL     1      -3.552   1.088   0.014  0.00  0.00    +0.196 C 
ATOM      7  C   UNL     1      -2.410   0.109   0.007  0.00  0.00    +0.017 C 
ATOM      8  C   UNL     1      -0.036  -0.270  -0.008  0.00  0.00    +0.084 C 
ATOM      9  C   UNL     1      -2.658  -1.211  -0.069  0.00  0.00    +0.074 C 
ATOM     10  C   UNL     1       1.010  -2.384  -0.103  0.00  0.00    +0.128 C 
ATOM     11  C   UNL     1      -1.043   0.607   0.027  0.00  0.00    +0.016 C 
ATOM     12  C   UNL     1       2.022  -1.287  -0.052  0.00  0.00    +0.029 C 
ATOM     13  C   UNL     1       1.402  -0.046   0.003  0.00  0.00    +0.142 C 
ATOM     14  C   UNL     1      -1.524  -2.202  -0.113  0.00  0.00    +0.252 C 
ATOM     15  C   UNL     1      -4.053  -1.732  -0.128  0.00  0.00    +0.239 C 
ATOM     16  C   UNL     1      -4.827   0.495   0.603  0.00  0.00    +0.346 C 
ATOM     17  C   UNL     1       3.396  -1.334  -0.052  0.00  0.00    +0.003 C 
ATOM     18  C   UNL     1       4.101  -0.120   0.006  0.00  0.00    +0.038 C 
ATOM     19  C   UNL     1       3.371   1.101   0.060  0.00  0.00    +0.114 C 
ATOM     20  C   UNL     1       5.505  -0.102   0.011  0.00  0.00    +0.043 C 
ATOM     21  C   UNL     1       4.091   2.289   0.117  0.00  0.00    +0.085 C 
ATOM     22  C   UNL     1       6.195   1.106   0.069  0.00  0.00    +0.010 C 
ATOM     23  C   UNL     1       5.488   2.301   0.122  0.00  0.00    -0.017 C 
ENDROOT
BRANCH  20  24
ATOM     24  N   UNL     1       6.265  -1.296  -0.042  0.00  0.00    -0.357 N 
ATOM     25  H   UNL     1       5.809  -2.168  -0.084  0.00  0.00    +0.142 HD
ATOM     26  H   UNL     1       7.248  -1.254  -0.038  0.00  0.00    +0.142 HD
ENDBRANCH  20  24
BRANCH   6  27
ATOM     27  O   UNL     1      -3.240   2.189   0.871  0.00  0.00    -0.373 OA
ATOM     28  H   UNL     1      -2.431   2.623   0.557  0.00  0.00    +0.211 HD
ENDBRANCH   6  27
BRANCH   6  29
ATOM     29  C   UNL     1      -3.847   1.620  -1.391  0.00  0.00    +0.042 C 
ATOM     30  C   UNL     1      -4.970   2.624  -1.356  0.00  0.00    +0.003 C 
ENDBRANCH   6  29
TORSDOF 3
