9869229
  -OEChem-10051722483D

 53 55  0     0  0  0  0  0  0999 V2000
   -5.4949    1.9039   -2.3429 Cl  0  0  0  0  0  0  0  0  0  0  0  0
   -5.4809    3.5766    2.7729 Cl  0  0  0  0  0  0  0  0  0  0  0  0
    4.7067   -0.9683    1.1487 S   0  0  0  0  0  0  0  0  0  0  0  0
    4.6912   -0.2419    2.4067 O   0  0  0  0  0  0  0  0  0  0  0  0
    5.6479   -2.0550    0.9354 O   0  0  0  0  0  0  0  0  0  0  0  0
    1.9691    0.4909    0.9428 O   0  0  0  0  0  0  0  0  0  0  0  0
   -2.6600   -1.0438   -1.0902 N   0  0  0  0  0  0  0  0  0  0  0  0
    3.1313   -1.5381    0.7860 N   0  0  0  0  0  0  0  0  0  0  0  0
   -2.8810   -3.2011   -0.6032 N   0  0  0  0  0  0  0  0  0  0  0  0
    6.2758    0.8748   -0.0848 C   0  0  0  0  0  0  0  0  0  0  0  0
    4.9165    0.1953   -0.1628 C   0  0  0  0  0  0  0  0  0  0  0  0
   -1.4763   -1.4095   -0.5021 C   0  0  0  0  0  0  0  0  0  0  0  0
    6.4961    1.9162   -1.1842 C   0  0  0  0  0  0  0  0  0  0  0  0
   -2.9922    0.2744   -1.5813 C   0  0  0  0  0  0  0  0  0  0  0  0
   -1.6392   -2.7601   -0.2072 C   0  0  0  0  0  0  0  0  0  0  0  0
   -3.4658   -2.1476   -1.1278 C   0  0  0  0  0  0  0  0  0  0  0  0
    7.8902    2.5438   -1.1533 C   0  0  0  0  0  0  0  0  0  0  0  0
   -0.3128   -0.6962   -0.2116 C   0  0  0  0  0  0  0  0  0  0  0  0
    0.6968   -1.4195    0.4003 C   0  0  0  0  0  0  0  0  0  0  0  0
   -0.5891   -3.4568    0.4143 C   0  0  0  0  0  0  0  0  0  0  0  0
   -3.6387    1.1123   -0.5115 C   0  0  0  0  0  0  0  0  0  0  0  0
    1.9610   -0.7156    0.7345 C   0  0  0  0  0  0  0  0  0  0  0  0
    0.5886   -2.7612    0.7153 C   0  0  0  0  0  0  0  0  0  0  0  0
   -4.8265   -2.1086   -1.7013 C   0  0  0  0  0  0  0  0  0  0  0  0
    8.0849    3.5186   -2.3047 C   0  0  0  0  0  0  0  0  0  0  0  0
   -4.7700    1.8742   -0.7766 C   0  0  0  0  0  0  0  0  0  0  0  0
   -3.0698    1.1029    0.7567 C   0  0  0  0  0  0  0  0  0  0  0  0
   -5.3413    2.6380    0.2411 C   0  0  0  0  0  0  0  0  0  0  0  0
   -3.6409    1.8668    1.7744 C   0  0  0  0  0  0  0  0  0  0  0  0
   -4.7768    2.6344    1.5165 C   0  0  0  0  0  0  0  0  0  0  0  0
    6.3927    1.3598    0.8923 H   0  0  0  0  0  0  0  0  0  0  0  0
    7.0654    0.1156   -0.1468 H   0  0  0  0  0  0  0  0  0  0  0  0
    4.1339    0.9530   -0.0921 H   0  0  0  0  0  0  0  0  0  0  0  0
    4.8109   -0.3449   -1.1090 H   0  0  0  0  0  0  0  0  0  0  0  0
    5.7393    2.7049   -1.0912 H   0  0  0  0  0  0  0  0  0  0  0  0
    6.3384    1.4401   -2.1601 H   0  0  0  0  0  0  0  0  0  0  0  0
   -3.6008    0.1345   -2.4772 H   0  0  0  0  0  0  0  0  0  0  0  0
   -2.0702    0.7634   -1.9176 H   0  0  0  0  0  0  0  0  0  0  0  0
    8.0395    3.0681   -0.2025 H   0  0  0  0  0  0  0  0  0  0  0  0
    8.6527    1.7588   -1.2150 H   0  0  0  0  0  0  0  0  0  0  0  0
   -0.2088    0.3525   -0.4645 H   0  0  0  0  0  0  0  0  0  0  0  0
    3.0933   -2.4749    0.3647 H   0  0  0  0  0  0  0  0  0  0  0  0
   -0.6864   -4.5086    0.6641 H   0  0  0  0  0  0  0  0  0  0  0  0
    1.3744   -3.3114    1.2245 H   0  0  0  0  0  0  0  0  0  0  0  0
   -4.7977   -1.8784   -2.7706 H   0  0  0  0  0  0  0  0  0  0  0  0
   -5.3144   -3.0822   -1.5870 H   0  0  0  0  0  0  0  0  0  0  0  0
   -5.4505   -1.3671   -1.1937 H   0  0  0  0  0  0  0  0  0  0  0  0
    9.0863    3.9584   -2.2631 H   0  0  0  0  0  0  0  0  0  0  0  0
    7.9757    3.0135   -3.2697 H   0  0  0  0  0  0  0  0  0  0  0  0
    7.3541    4.3322   -2.2574 H   0  0  0  0  0  0  0  0  0  0  0  0
   -2.1838    0.5471    1.0209 H   0  0  0  0  0  0  0  0  0  0  0  0
   -6.2271    3.2374    0.0418 H   0  0  0  0  0  0  0  0  0  0  0  0
   -3.1888    1.8578    2.7629 H   0  0  0  0  0  0  0  0  0  0  0  0
  1 26  1  0  0  0  0
  2 30  1  0  0  0  0
  3  4  2  0  0  0  0
  3  5  2  0  0  0  0
  3  8  1  0  0  0  0
  3 11  1  0  0  0  0
  6 22  2  0  0  0  0
  7 12  1  0  0  0  0
  7 14  1  0  0  0  0
  7 16  1  0  0  0  0
  8 22  1  0  0  0  0
  8 42  1  0  0  0  0
  9 15  1  0  0  0  0
  9 16  2  0  0  0  0
 10 11  1  0  0  0  0
 10 13  1  0  0  0  0
 10 31  1  0  0  0  0
 10 32  1  0  0  0  0
 11 33  1  0  0  0  0
 11 34  1  0  0  0  0
 12 15  2  0  0  0  0
 12 18  1  0  0  0  0
 13 17  1  0  0  0  0
 13 35  1  0  0  0  0
 13 36  1  0  0  0  0
 14 21  1  0  0  0  0
 14 37  1  0  0  0  0
 14 38  1  0  0  0  0
 15 20  1  0  0  0  0
 16 24  1  0  0  0  0
 17 25  1  0  0  0  0
 17 39  1  0  0  0  0
 17 40  1  0  0  0  0
 18 19  2  0  0  0  0
 18 41  1  0  0  0  0
 19 22  1  0  0  0  0
 19 23  1  0  0  0  0
 20 23  2  0  0  0  0
 20 43  1  0  0  0  0
 21 26  2  0  0  0  0
 21 27  1  0  0  0  0
 23 44  1  0  0  0  0
 24 45  1  0  0  0  0
 24 46  1  0  0  0  0
 24 47  1  0  0  0  0
 25 48  1  0  0  0  0
 25 49  1  0  0  0  0
 25 50  1  0  0  0  0
 26 28  1  0  0  0  0
 27 29  2  0  0  0  0
 27 51  1  0  0  0  0
 28 30  2  0  0  0  0
 28 52  1  0  0  0  0
 29 30  1  0  0  0  0
 29 53  1  0  0  0  0
M  END
> <DATABASE_ID>
DB12557

> <DATABASE_NAME>
drugbank

> <ORIGINAL_SOURCE>
PUBCHEM

> <ORIGINAL_SOURCE_URL>
https://pubchem.ncbi.nlm.nih.gov/rest/pug/compound/inchikey/UYGZODVVDUIDDQ-UHFFFAOYSA-N/SDF?record_type=3d

> <SMILES>
CCCCCS(=O)(=O)NC(=O)C1=CC=C2N=C(C)N(CC3=CC=C(Cl)C=C3Cl)C2=C1

> <INCHI_IDENTIFIER>
InChI=1S/C21H23Cl2N3O3S/c1-3-4-5-10-30(28,29)25-21(27)15-7-9-19-20(11-15)26(14(2)24-19)13-16-6-8-17(22)12-18(16)23/h6-9,11-12H,3-5,10,13H2,1-2H3,(H,25,27)

> <INCHI_KEY>
UYGZODVVDUIDDQ-UHFFFAOYSA-N

> <FORMULA>
C21H23Cl2N3O3S

> <MOLECULAR_WEIGHT>
468.39

> <EXACT_MASS>
467.0837182

> <JCHEM_ACCEPTOR_COUNT>
4

> <JCHEM_ATOM_COUNT>
53

> <JCHEM_AVERAGE_POLARIZABILITY>
46.69862268964281

> <JCHEM_BIOAVAILABILITY>
1

> <JCHEM_DONOR_COUNT>
1

> <JCHEM_FORMAL_CHARGE>
0

> <JCHEM_GHOSE_FILTER>
1

> <JCHEM_IUPAC>
1-[(2,4-dichlorophenyl)methyl]-2-methyl-N-(pentane-1-sulfonyl)-1H-1,3-benzodiazole-6-carboxamide

> <ALOGPS_LOGP>
4.85

> <JCHEM_LOGP>
3.273554791955951

> <ALOGPS_LOGS>
-5.07

> <JCHEM_MDDR_LIKE_RULE>
1

> <JCHEM_NUMBER_OF_RINGS>
3

> <JCHEM_PHYSIOLOGICAL_CHARGE>
-1

> <JCHEM_PKA_STRONGEST_ACIDIC>
3.9375722864656484

> <JCHEM_PKA_STRONGEST_BASIC>
5.911945631879316

> <JCHEM_POLAR_SURFACE_AREA>
81.06

> <JCHEM_REFRACTIVITY>
119.37179999999998

> <JCHEM_ROTATABLE_BOND_COUNT>
7

> <JCHEM_RULE_OF_FIVE>
1

> <ALOGPS_SOLUBILITY>
3.96e-03 g/l

> <JCHEM_TRADITIONAL_IUPAC>
3-[(2,4-dichlorophenyl)methyl]-2-methyl-N-(pentane-1-sulfonyl)-1,3-benzodiazole-5-carboxamide

> <JCHEM_VEBER_RULE>
0

> <DRUGBANK_ID>
DB12557

> <DRUG_GROUPS>
investigational

> <GENERIC_NAME>
FK-614

$$$$
