REMARK  Name = 5944
REMARK  0 active torsions:
REMARK  status: ('A' for Active; 'I' for Inactive)
REMARK                            x       y       z     vdW  Elec       q    Type
REMARK                         _______ _______ _______ _____ _____    ______ ____
ROOT
ATOM      1  O   UNL     1       0.928  -0.003   1.543  0.00  0.00    -0.358 OA
ATOM      2  O   UNL     1      -2.063   0.000   0.453  0.00  0.00    -0.392 OA
ATOM      3  O   UNL     1      -1.768  -2.259   0.371  0.00  0.00    -0.250 OA
ATOM      4  O   UNL     1      -1.768   2.260   0.369  0.00  0.00    -0.250 OA
ATOM      5  C   UNL     1      -0.016  -0.768  -0.428  0.00  0.00    +0.127 C 
ATOM      6  C   UNL     1      -0.016   0.768  -0.427  0.00  0.00    +0.127 C 
ATOM      7  C   UNL     1       1.095  -1.089   0.592  0.00  0.00    +0.126 C 
ATOM      8  C   UNL     1       1.095   1.087   0.596  0.00  0.00    +0.126 C 
ATOM      9  C   UNL     1       2.496  -0.765   0.071  0.00  0.00    +0.033 C 
ATOM     10  C   UNL     1       2.496   0.766   0.075  0.00  0.00    +0.033 C 
ATOM     11  C   UNL     1      -1.359  -1.125   0.165  0.00  0.00    +0.325 C 
ATOM     12  C   UNL     1      -1.359   1.126   0.165  0.00  0.00    +0.325 C 
ATOM     13  C   UNL     1       0.117  -1.473  -1.773  0.00  0.00    +0.014 C 
ATOM     14  C   UNL     1       0.120   1.475  -1.771  0.00  0.00    +0.014 C 
ENDROOT
TORSDOF 0
