REMARK  Name = 5282338
REMARK  10 active torsions:
REMARK  status: ('A' for Active; 'I' for Inactive)
REMARK    1  A    between atoms: C_5  and  C_24
REMARK    2  A    between atoms: C_8  and  C_10
REMARK    3  A    between atoms: C_12  and  O_20
REMARK    4  A    between atoms: C_13  and  O_16
REMARK    5  A    between atoms: C_14  and  O_18
REMARK    6  A    between atoms: N_23  and  C_26
REMARK    7  A    between atoms: C_26  and  C_27
REMARK    8  A    between atoms: C_27  and  N_28
REMARK    9  A    between atoms: N_28  and  C_30
REMARK   10  A    between atoms: N_28  and  C_33
REMARK                            x       y       z     vdW  Elec       q    Type
REMARK                         _______ _______ _______ _____ _____    ______ ____
ROOT
ATOM      1  S   UNL     1      -0.622   3.732   0.390  0.00  0.00    -0.059 S 
ATOM      2  O   UNL     1      -1.380  -0.797  -0.371  0.00  0.00    -0.270 OA
ATOM      3  N   UNL     1       0.493   1.488  -0.246  0.00  0.00    -0.380 NA
ATOM      4  N   UNL     1      -1.882   1.445   0.157  0.00  0.00    -0.251 N 
ATOM      5  C   UNL     1       1.448   2.462  -0.218  0.00  0.00    +0.175 C 
ATOM      6  C   UNL     1       1.068   3.730   0.098  0.00  0.00    +0.129 C 
ATOM      7  C   UNL     1      -0.656   2.048   0.063  0.00  0.00    +0.213 C 
ATOM      8  C   UNL     1      -2.170   0.088  -0.060  0.00  0.00    +0.255 C 
ATOM      9  H   UNL     1      -2.640   2.023   0.402  0.00  0.00    +0.158 HD
ENDROOT
BRANCH   8  10
ATOM     10  C   UNL     1      -3.591  -0.301   0.142  0.00  0.00    +0.091 C 
ATOM     11  C   UNL     1      -4.442  -0.235  -0.942  0.00  0.00    +0.048 C 
ATOM     12  C   UNL     1      -4.018  -0.713   1.388  0.00  0.00    +0.141 C 
ATOM     13  C   UNL     1      -5.779  -0.596  -0.773  0.00  0.00    +0.173 C 
ATOM     14  C   UNL     1      -6.235  -1.015   0.477  0.00  0.00    +0.175 C 
ATOM     15  C   UNL     1      -5.355  -1.074   1.557  0.00  0.00    +0.077 C 
BRANCH  13  16
ATOM     16  O   UNL     1      -6.629  -0.534  -1.835  0.00  0.00    -0.468 OA
ATOM     17  C   UNL     1      -6.747  -1.706  -2.640  0.00  0.00    +0.253 C 
ENDBRANCH  13  16
BRANCH  14  18
ATOM     18  O   UNL     1      -7.538  -1.371   0.655  0.00  0.00    -0.468 OA
ATOM     19  C   UNL     1      -8.445  -0.339   1.038  0.00  0.00    +0.253 C 
ENDBRANCH  14  18
BRANCH  12  20
ATOM     20  O   UNL     1      -3.173  -0.778   2.455  0.00  0.00    -0.505 OA
ATOM     21  H   UNL     1      -2.273  -0.538   2.356  0.00  0.00    +0.292 HD
ENDBRANCH  12  20
ENDBRANCH   8  10
BRANCH   5  24
ATOM     22  O   UNL     1       3.739   2.944  -0.487  0.00  0.00    -0.268 OA
ATOM     23  N   UNL     1       3.069   0.765  -0.832  0.00  0.00    -0.301 N 
ATOM     24  C   UNL     1       2.840   2.105  -0.526  0.00  0.00    +0.272 C 
ATOM     25  H   UNL     1       2.305   0.144  -0.847  0.00  0.00    +0.150 HD
BRANCH  23  26
ATOM     26  C   UNL     1       4.381   0.255  -1.125  0.00  0.00    +0.067 C 
BRANCH  26  27
ATOM     27  C   UNL     1       5.083  -0.219   0.139  0.00  0.00    -0.056 C 
BRANCH  27  28
ATOM     28  N   UNL     1       6.403  -0.759  -0.185  0.00  0.00    +0.391 N 
ATOM     29  H   UNL     1       6.947  -0.029  -0.645  0.00  0.00    -0.079 HD
BRANCH  28  30
ATOM     30  C   UNL     1       6.281  -1.892  -1.102  0.00  0.00    -0.058 C 
ATOM     31  C   UNL     1       5.446  -3.000  -0.466  0.00  0.00    -0.023 C 
ATOM     32  C   UNL     1       7.671  -2.398  -1.472  0.00  0.00    -0.023 C 
ENDBRANCH  28  30
BRANCH  28  33
ATOM     33  C   UNL     1       7.104  -1.162   1.034  0.00  0.00    -0.058 C 
ATOM     34  C   UNL     1       7.327   0.061   1.918  0.00  0.00    -0.023 C 
ATOM     35  C   UNL     1       6.308  -2.234   1.772  0.00  0.00    -0.023 C 
ENDBRANCH  28  33
ENDBRANCH  27  28
ENDBRANCH  26  27
ENDBRANCH  23  26
ENDBRANCH   5  24
TORSDOF 10
