REMARK  Name = 53307207
REMARK  9 active torsions:
REMARK  status: ('A' for Active; 'I' for Inactive)
REMARK    1  A    between atoms: C_7  and  O_22
REMARK    2  A    between atoms: C_10  and  C_14
REMARK    3  A    between atoms: C_14  and  O_15
REMARK    4  A    between atoms: O_15  and  C_16
REMARK    5  A    between atoms: C_16  and  C_17
REMARK    6  A    between atoms: C_17  and  C_18
REMARK    7  A    between atoms: C_17  and  C_20
REMARK    8  A    between atoms: O_22  and  C_24
REMARK    9  A    between atoms: C_25  and  C_34
REMARK                            x       y       z     vdW  Elec       q    Type
REMARK                         _______ _______ _______ _____ _____    ______ ____
ROOT
ATOM      1  N   UNL     1      -1.875  -2.911   1.668  0.00  0.00    +0.392 N 
ATOM      2  C   UNL     1      -0.763  -1.581  -0.725  0.00  0.00    +0.000 C 
ATOM      3  C   UNL     1      -0.781  -3.114  -0.587  0.00  0.00    -0.021 C 
ATOM      4  C   UNL     1       0.402  -1.103  -1.613  0.00  0.00    +0.043 C 
ATOM      5  C   UNL     1       0.586  -3.663  -0.149  0.00  0.00    +0.002 C 
ATOM      6  C   UNL     1      -0.785  -0.894   0.654  0.00  0.00    -0.010 C 
ATOM      7  C   UNL     1       1.762  -1.721  -1.280  0.00  0.00    +0.166 C 
ATOM      8  C   UNL     1      -1.914  -3.555   0.353  0.00  0.00    -0.081 C 
ATOM      9  C   UNL     1       1.685  -3.238  -1.122  0.00  0.00    +0.043 C 
ATOM     10  C   UNL     1      -1.866  -1.450   1.586  0.00  0.00    +0.040 C 
ATOM     11  H   UNL     1      -1.031  -3.215   2.154  0.00  0.00    -0.084 HD
ATOM     12  H   UNL     1      -2.721  -3.184   2.168  0.00  0.00    -0.084 HD
ENDROOT
BRANCH  10  14
ATOM     13  O   UNL     1      -4.166  -1.742   0.939  0.00  0.00    -0.252 OA
ATOM     14  C   UNL     1      -3.242  -0.988   1.215  0.00  0.00    +0.297 C 
BRANCH  14  15
ATOM     15  O   UNL     1      -3.288   0.374   1.239  0.00  0.00    -0.450 OA
BRANCH  15  16
ATOM     16  C   UNL     1      -4.553   0.953   0.903  0.00  0.00    +0.208 C 
BRANCH  16  17
ATOM     17  C   UNL     1      -4.638   1.204  -0.611  0.00  0.00    +0.044 C 
BRANCH  17  18
ATOM     18  C   UNL     1      -3.443   2.030  -1.139  0.00  0.00    +0.004 C 
ATOM     19  C   UNL     1      -3.340   3.445  -0.586  0.00  0.00    +0.000 C 
ENDBRANCH  17  18
BRANCH  17  20
ATOM     20  C   UNL     1      -6.017   1.802  -0.954  0.00  0.00    +0.004 C 
ATOM     21  C   UNL     1      -6.248   2.002  -2.445  0.00  0.00    +0.000 C 
ENDBRANCH  17  20
ENDBRANCH  16  17
ENDBRANCH  15  16
ENDBRANCH  14  15
ENDBRANCH  10  14
BRANCH   7  22
ATOM     22  O   UNL     1       2.277  -1.131  -0.090  0.00  0.00    -0.478 OA
BRANCH  22  24
ATOM     23 CL   UNL     1       4.921   3.267   0.365  0.00  0.00    -0.081 Cl
ATOM     24  C   UNL     1       3.454  -0.442  -0.205  0.00  0.00    +0.149 C 
ATOM     25  C   UNL     1       3.538   0.913   0.115  0.00  0.00    +0.110 C 
ATOM     26  C   UNL     1       4.586  -1.124  -0.652  0.00  0.00    +0.038 C 
ATOM     27  C   UNL     1       4.754   1.586  -0.014  0.00  0.00    +0.070 C 
ATOM     28  C   UNL     1       5.801  -0.452  -0.781  0.00  0.00    +0.004 C 
ATOM     29  C   UNL     1       5.885   0.904  -0.461  0.00  0.00    +0.012 C 
BRANCH  25  34
ATOM     30  N   UNL     1       2.008   1.685   1.862  0.00  0.00    -0.110 NA
ATOM     31  N   UNL     1       1.492   2.218  -0.277  0.00  0.00    -0.087 NA
ATOM     32  N   UNL     1       0.879   2.395   1.734  0.00  0.00    -0.140 N 
ATOM     33  N   UNL     1       0.534   2.733   0.484  0.00  0.00    -0.022 NA
ATOM     34  C   UNL     1       2.356   1.599   0.576  0.00  0.00    +0.077 C 
ATOM     35  H   UNL     1       0.334   2.653   2.512  0.00  0.00    +0.197 HD
ENDBRANCH  25  34
ENDBRANCH  22  24
ENDBRANCH   7  22
TORSDOF 9
