REMARK  Name = 14866
REMARK  8 active torsions:
REMARK  status: ('A' for Active; 'I' for Inactive)
REMARK    1  A    between atoms: O_1  and  C_3
REMARK    2  A    between atoms: O_1  and  C_10
REMARK    3  A    between atoms: C_3  and  C_5
REMARK    4  A    between atoms: C_10  and  C_11
REMARK    5  A    between atoms: C_11  and  O_12
REMARK    6  A    between atoms: O_12  and  C_13
REMARK    7  A    between atoms: C_13  and  C_14
REMARK    8  A    between atoms: C_14  and  C_15
REMARK                            x       y       z     vdW  Elec       q    Type
REMARK                         _______ _______ _______ _____ _____    ______ ____
ROOT
ATOM      1  O   UNL     1       0.474  -1.165  -0.242  0.00  0.00    -0.443 OA
ENDROOT
BRANCH   1   3
ATOM      2  O   UNL     1       2.198  -2.337   0.734  0.00  0.00    -0.245 OA
ATOM      3  C   UNL     1       1.737  -1.319   0.239  0.00  0.00    +0.343 C 
BRANCH   3   5
ATOM      4  N   UNL     1       2.580   2.211  -0.643  0.00  0.00    -0.242 NA
ATOM      5  C   UNL     1       2.515  -0.063   0.089  0.00  0.00    +0.095 C 
ATOM      6  C   UNL     1       3.819  -0.010   0.517  0.00  0.00    +0.010 C 
ATOM      7  C   UNL     1       1.929   1.038  -0.477  0.00  0.00    +0.105 C 
ATOM      8  C   UNL     1       4.522   1.180   0.363  0.00  0.00    +0.021 C 
ATOM      9  C   UNL     1       3.863   2.252  -0.218  0.00  0.00    +0.099 C 
ENDBRANCH   3   5
ENDBRANCH   1   3
BRANCH   1  10
ATOM     10  C   UNL     1      -0.372  -2.305  -0.152  0.00  0.00    +0.241 C 
BRANCH  10  11
ATOM     11  C   UNL     1      -1.731  -1.959  -0.730  0.00  0.00    +0.189 C 
BRANCH  11  12
ATOM     12  O   UNL     1      -2.299  -0.896   0.023  0.00  0.00    -0.350 OA
BRANCH  12  13
ATOM     13  C   UNL     1      -3.568  -0.513  -0.488  0.00  0.00    +0.142 C 
BRANCH  13  14
ATOM     14  C   UNL     1      -4.118   0.625   0.360  0.00  0.00    +0.032 C 
BRANCH  14  15
ATOM     15  C   UNL     1      -5.492   1.077  -0.125  0.00  0.00    +0.003 C 
ATOM     16  C   UNL     1      -6.056   2.184   0.751  0.00  0.00    +0.000 C 
ENDBRANCH  14  15
ENDBRANCH  13  14
ENDBRANCH  12  13
ENDBRANCH  11  12
ENDBRANCH  10  11
ENDBRANCH   1  10
TORSDOF 8
