REMARK  Name = 50922691
REMARK  4 active torsions:
REMARK  status: ('A' for Active; 'I' for Inactive)
REMARK    1  A    between atoms: N_1  and  C_32
REMARK    2  A    between atoms: C_5  and  C_25
REMARK    3  A    between atoms: N_24  and  C_26
REMARK    4  A    between atoms: N_24  and  C_29
REMARK                            x       y       z     vdW  Elec       q    Type
REMARK                         _______ _______ _______ _____ _____    ______ ____
ROOT
ATOM      1  N   UNL     1       0.905   0.952  -0.406  0.00  0.00    -0.259 N 
ATOM      2  N   UNL     1      -1.394   0.122  -0.160  0.00  0.00    -0.370 NA
ATOM      3  N   UNL     1       0.264  -3.625  -0.335  0.00  0.00    -0.284 N 
ATOM      4  N   UNL     1      -1.966  -3.601  -0.097  0.00  0.00    -0.243 NA
ATOM      5  C   UNL     1       2.144   0.348  -0.538  0.00  0.00    +0.108 C 
ATOM      6  C   UNL     1       1.986  -1.028  -0.520  0.00  0.00    +0.025 C 
ATOM      7  C   UNL     1       0.600  -1.212  -0.372  0.00  0.00    +0.061 C 
ATOM      8  C   UNL     1      -0.061  -0.014  -0.302  0.00  0.00    +0.190 C 
ATOM      9  C   UNL     1      -0.129  -2.348  -0.294  0.00  0.00    +0.074 C 
ATOM     10  C   UNL     1      -1.495  -2.311  -0.148  0.00  0.00    +0.135 C 
ATOM     11  C   UNL     1      -2.108  -1.048  -0.083  0.00  0.00    +0.205 C 
ATOM     12  C   UNL     1      -0.891  -4.363  -0.211  0.00  0.00    +0.220 C 
ATOM     13  C   UNL     1       1.583  -4.191  -0.476  0.00  0.00    +0.114 C 
ATOM     14  N   UNL     1      -3.507  -0.976   0.065  0.00  0.00    -0.271 N 
ATOM     15  N   UNL     1      -4.075   1.402   0.124  0.00  0.00    -0.163 NA
ATOM     16  N   UNL     1      -5.261   2.021   0.249  0.00  0.00    -0.212 N 
ATOM     17  C   UNL     1      -4.403   0.107   0.160  0.00  0.00    +0.153 C 
ATOM     18  C   UNL     1      -5.788  -0.098   0.307  0.00  0.00    +0.048 C 
ATOM     19  C   UNL     1      -6.319   1.167   0.362  0.00  0.00    +0.050 C 
ATOM     20  C   UNL     1      -7.712   1.628   0.511  0.00  0.00    +0.049 C 
ATOM     21  C   UNL     1      -5.306   3.465   0.259  0.00  0.00    +0.139 C 
ATOM     22  H   UNL     1      -3.945  -1.857   0.113  0.00  0.00    +0.156 HD
ENDROOT
BRANCH   5  25
ATOM     23  O   UNL     1       3.511   1.841  -1.643  0.00  0.00    -0.269 OA
ATOM     24  N   UNL     1       4.398   0.889   0.297  0.00  0.00    -0.278 N 
ATOM     25  C   UNL     1       3.374   1.070  -0.670  0.00  0.00    +0.263 C 
BRANCH  24  26
ATOM     26  C   UNL     1       5.664   1.590   0.210  0.00  0.00    +0.076 C 
ATOM     27  C   UNL     1       6.502   1.524  -1.033  0.00  0.00    +0.022 C 
ATOM     28  C   UNL     1       6.968   0.848   0.224  0.00  0.00    +0.022 C 
ENDBRANCH  24  26
BRANCH  24  29
ATOM     29  C   UNL     1       4.233  -0.007   1.424  0.00  0.00    +0.076 C 
ATOM     30  C   UNL     1       4.444   0.470   2.831  0.00  0.00    +0.022 C 
ATOM     31  C   UNL     1       3.064   0.120   2.356  0.00  0.00    +0.022 C 
ENDBRANCH  24  29
ENDBRANCH   5  25
BRANCH   1  32
ATOM     32  C   UNL     1       0.663   2.378  -0.382  0.00  0.00    +0.098 C 
ATOM     33  C   UNL     1       0.111   2.881  -1.707  0.00  0.00    +0.024 C 
ENDBRANCH   1  32
TORSDOF 4
