REMARK  Name = 53340666
REMARK  11 active torsions:
REMARK  status: ('A' for Active; 'I' for Inactive)
REMARK    1  A    between atoms: N_1  and  C_8
REMARK    2  A    between atoms: N_1  and  C_14
REMARK    3  A    between atoms: C_4  and  C_22
REMARK    4  A    between atoms: N_21  and  C_24
REMARK    5  A    between atoms: C_24  and  C_25
REMARK    6  A    between atoms: C_25  and  C_26
REMARK    7  A    between atoms: C_26  and  C_27
REMARK    8  A    between atoms: C_27  and  C_28
REMARK    9  A    between atoms: C_28  and  C_29
REMARK   10  A    between atoms: C_29  and  C_32
REMARK   11  A    between atoms: N_31  and  O_34
REMARK                            x       y       z     vdW  Elec       q    Type
REMARK                         _______ _______ _______ _____ _____    ______ ____
ROOT
ATOM      1  N   UNL     1       3.322   0.226   0.038  0.00  0.00    -0.211 N 
ATOM      2  N   UNL     1       1.664  -1.367  -0.432  0.00  0.00    -0.202 NA
ATOM      3  N   UNL     1       1.598  -0.074   1.601  0.00  0.00    -0.180 NA
ATOM      4  C   UNL     1      -0.119  -1.700   1.151  0.00  0.00    +0.076 C 
ATOM      5  C   UNL     1       2.136  -0.438   0.421  0.00  0.00    +0.098 C 
ATOM      6  C   UNL     1       0.530  -1.981  -0.034  0.00  0.00    +0.170 C 
ATOM      7  C   UNL     1       0.467  -0.728   1.936  0.00  0.00    +0.113 C 
ENDROOT
BRANCH   1   8
ATOM      8  C   UNL     1       4.327  -0.439  -0.792  0.00  0.00    +0.065 C 
ATOM      9  C   UNL     1       4.670   0.096  -2.034  0.00  0.00    +0.016 C 
ATOM     10  C   UNL     1       4.940  -1.607  -0.342  0.00  0.00    +0.016 C 
ATOM     11  C   UNL     1       5.628  -0.538  -2.825  0.00  0.00    +0.001 C 
ATOM     12  C   UNL     1       5.898  -2.241  -1.133  0.00  0.00    +0.001 C 
ATOM     13  C   UNL     1       6.242  -1.707  -2.375  0.00  0.00    +0.000 C 
ENDBRANCH   1   8
BRANCH   1  14
ATOM     14  C   UNL     1       3.588   1.603   0.457  0.00  0.00    +0.065 C 
ATOM     15  C   UNL     1       4.902   2.034   0.640  0.00  0.00    +0.016 C 
ATOM     16  C   UNL     1       2.528   2.483   0.672  0.00  0.00    +0.016 C 
ATOM     17  C   UNL     1       5.155   3.346   1.040  0.00  0.00    +0.001 C 
ATOM     18  C   UNL     1       2.782   3.795   1.072  0.00  0.00    +0.001 C 
ATOM     19  C   UNL     1       4.095   4.227   1.255  0.00  0.00    +0.000 C 
ENDBRANCH   1  14
BRANCH   4  22
ATOM     20  O   UNL     1      -1.642  -2.492   2.748  0.00  0.00    -0.270 OA
ATOM     21  N   UNL     1      -2.157  -2.885   0.521  0.00  0.00    -0.301 N 
ATOM     22  C   UNL     1      -1.366  -2.398   1.555  0.00  0.00    +0.245 C 
ATOM     23  H   UNL     1      -1.851  -2.762  -0.406  0.00  0.00    +0.150 HD
BRANCH  21  24
ATOM     24  C   UNL     1      -3.405  -3.562   0.751  0.00  0.00    +0.090 C 
BRANCH  24  25
ATOM     25  C   UNL     1      -4.575  -2.585   0.779  0.00  0.00    +0.021 C 
BRANCH  25  26
ATOM     26  C   UNL     1      -4.706  -1.835  -0.546  0.00  0.00    +0.002 C 
BRANCH  26  27
ATOM     27  C   UNL     1      -5.904  -0.883  -0.531  0.00  0.00    +0.001 C 
BRANCH  27  28
ATOM     28  C   UNL     1      -6.013  -0.109  -1.849  0.00  0.00    +0.010 C 
BRANCH  28  29
ATOM     29  C   UNL     1      -7.182   0.875  -1.850  0.00  0.00    +0.087 C 
BRANCH  29  32
ATOM     30  O   UNL     1      -7.588   1.803   0.350  0.00  0.00    -0.273 OA
ATOM     31  N   UNL     1      -6.417   3.050  -1.202  0.00  0.00    -0.197 N 
ATOM     32  C   UNL     1      -7.090   1.935  -0.765  0.00  0.00    +0.244 C 
ATOM     33  H   UNL     1      -6.035   3.110  -2.107  0.00  0.00    +0.182 HD
BRANCH  31  34
ATOM     34  O   UNL     1      -6.310   4.098  -0.277  0.00  0.00    -0.295 OA
ATOM     35  H   UNL     1      -5.821   4.834  -0.678  0.00  0.00    +0.241 HD
ENDBRANCH  31  34
ENDBRANCH  29  32
ENDBRANCH  28  29
ENDBRANCH  27  28
ENDBRANCH  26  27
ENDBRANCH  25  26
ENDBRANCH  24  25
ENDBRANCH  21  24
ENDBRANCH   4  22
TORSDOF 11
