REMARK  Name = 11683556
REMARK  4 active torsions:
REMARK  status: ('A' for Active; 'I' for Inactive)
REMARK    1  A    between atoms: C_1  and  C_10
REMARK    2  A    between atoms: C_3  and  O_28
REMARK    3  A    between atoms: C_4  and  N_15
REMARK    4  A    between atoms: N_16  and  C_22
REMARK                            x       y       z     vdW  Elec       q    Type
REMARK                         _______ _______ _______ _____ _____    ______ ____
ROOT
ATOM      1  C   UNL     1       3.002   0.170  -0.086  0.00  0.00    +0.051 C 
ATOM      2  C   UNL     1       1.738  -0.415  -0.013  0.00  0.00    +0.019 C 
ATOM      3  C   UNL     1       3.123   1.552  -0.228  0.00  0.00    +0.140 C 
ATOM      4  C   UNL     1       0.595   0.382  -0.081  0.00  0.00    +0.052 C 
ATOM      5  C   UNL     1       1.980   2.349  -0.296  0.00  0.00    +0.038 C 
ATOM      6  C   UNL     1       0.716   1.764  -0.223  0.00  0.00    +0.018 C 
ENDROOT
BRANCH   1  10
ATOM      7 BR   UNL     1       4.688  -0.729   2.882  0.00  0.00    -0.046 Br
ATOM      8  N   UNL     1       4.769  -1.226  -1.109  0.00  0.00    -0.209 N 
ATOM      9  N   UNL     1       5.846  -1.976  -0.821  0.00  0.00    -0.176 NA
ATOM     10  C   UNL     1       4.173  -0.672  -0.014  0.00  0.00    +0.080 C 
ATOM     11  C   UNL     1       4.912  -1.090   1.066  0.00  0.00    +0.070 C 
ATOM     12  C   UNL     1       4.366  -1.085  -2.490  0.00  0.00    +0.140 C 
ATOM     13  C   UNL     1       5.928  -1.890   0.509  0.00  0.00    +0.126 C 
ENDBRANCH   1  10
BRANCH   4  15
ATOM     14  O   UNL     1      -2.115   1.632  -0.182  0.00  0.00    -0.252 OA
ATOM     15  N   UNL     1      -0.670  -0.203  -0.009  0.00  0.00    -0.268 N 
ATOM     16  N   UNL     1      -2.954  -0.539   0.047  0.00  0.00    -0.266 N 
ATOM     17  C   UNL     1      -1.938   0.424  -0.061  0.00  0.00    +0.308 C 
ATOM     18  H   UNL     1      -0.682  -1.183   0.091  0.00  0.00    +0.156 HD
ATOM     19  H   UNL     1      -2.656  -1.473   0.139  0.00  0.00    +0.156 HD
BRANCH  16  22
ATOM     20  F   UNL     1      -4.723  -2.666   0.282  0.00  0.00    -0.203 F 
ATOM     21  F   UNL     1      -8.418   0.276   0.015  0.00  0.00    -0.204 F 
ATOM     22  C   UNL     1      -4.354  -0.332   0.040  0.00  0.00    +0.079 C 
ATOM     23  C   UNL     1      -5.203  -1.421   0.159  0.00  0.00    +0.156 C 
ATOM     24  C   UNL     1      -4.846   0.956  -0.087  0.00  0.00    +0.019 C 
ATOM     25  C   UNL     1      -6.582  -1.214   0.150  0.00  0.00    +0.061 C 
ATOM     26  C   UNL     1      -6.225   1.163  -0.096  0.00  0.00    +0.031 C 
ATOM     27  C   UNL     1      -7.094   0.077   0.023  0.00  0.00    +0.142 C 
ENDBRANCH  16  22
ENDBRANCH   4  15
BRANCH   3  28
ATOM     28  O   UNL     1       4.346   2.151  -0.302  0.00  0.00    -0.471 OA
ATOM     29  C   UNL     1       4.940   2.563   0.926  0.00  0.00    +0.252 C 
ENDBRANCH   3  28
TORSDOF 4
