REMARK  Name = 57519748
REMARK  6 active torsions:
REMARK  status: ('A' for Active; 'I' for Inactive)
REMARK    1  A    between atoms: N_2  and  C_27
REMARK    2  A    between atoms: C_12  and  C_17
REMARK    3  A    between atoms: C_18  and  C_22
REMARK    4  A    between atoms: C_22  and  O_25
REMARK    5  A    between atoms: C_27  and  C_28
REMARK    6  A    between atoms: C_28  and  O_30
REMARK                            x       y       z     vdW  Elec       q    Type
REMARK                         _______ _______ _______ _____ _____    ______ ____
ROOT
ATOM      1  O   UNL     1       4.324  -2.567   0.912  0.00  0.00    -0.246 OA
ATOM      2  N   UNL     1       2.507  -1.081   0.525  0.00  0.00    -0.277 N 
ATOM      3  N   UNL     1       4.605  -0.233   0.655  0.00  0.00    -0.276 N 
ATOM      4  N   UNL     1       2.940   3.025   0.065  0.00  0.00    -0.242 NA
ATOM      5  C   UNL     1       2.414   0.320   0.341  0.00  0.00    +0.083 A 
ATOM      6  C   UNL     1       3.712   0.819   0.424  0.00  0.00    +0.099 A 
ATOM      7  C   UNL     1       1.332   1.186   0.112  0.00  0.00    +0.035 C 
ATOM      8  C   UNL     1       3.875  -1.444   0.723  0.00  0.00    +0.332 A 
ATOM      9  C   UNL     1       1.672   2.559  -0.020  0.00  0.00    +0.083 C 
ATOM     10  C   UNL     1      -0.029   0.812   0.006  0.00  0.00    +0.003 C 
ATOM     11  C   UNL     1       3.948   2.157   0.285  0.00  0.00    +0.118 C 
ATOM     12  C   UNL     1      -1.024   1.760  -0.224  0.00  0.00    +0.002 C 
ATOM     13  C   UNL     1       6.033  -0.104   0.800  0.00  0.00    +0.135 C 
ATOM     14  C   UNL     1       0.655   3.480  -0.248  0.00  0.00    +0.019 C 
ATOM     15  C   UNL     1      -0.682   3.096  -0.351  0.00  0.00    +0.002 C 
ENDROOT
BRANCH  12  17
ATOM     16  N   UNL     1      -4.607   1.729  -1.263  0.00  0.00    -0.243 NA
ATOM     17  C   UNL     1      -2.409   1.353  -0.329  0.00  0.00    +0.019 C 
ATOM     18  C   UNL     1      -4.219  -0.126   0.238  0.00  0.00    +0.021 C 
ATOM     19  C   UNL     1      -2.884   0.242   0.359  0.00  0.00    +0.001 C 
ATOM     20  C   UNL     1      -3.303   2.056  -1.120  0.00  0.00    +0.099 C 
ATOM     21  C   UNL     1      -5.032   0.644  -0.579  0.00  0.00    +0.097 C 
BRANCH  18  22
ATOM     22  C   UNL     1      -4.757  -1.309   0.960  0.00  0.00    +0.109 C 
ATOM     23  C   UNL     1      -5.904  -0.933   1.931  0.00  0.00    +0.034 C 
ATOM     24  C   UNL     1      -5.253  -2.414  -0.006  0.00  0.00    +0.034 C 
BRANCH  22  25
ATOM     25  O   UNL     1      -3.749  -1.943   1.783  0.00  0.00    -0.383 OA
ATOM     26  H   UNL     1      -3.396  -1.298   2.416  0.00  0.00    +0.211 HD
ENDBRANCH  22  25
ENDBRANCH  18  22
ENDBRANCH  12  17
BRANCH   2  27
ATOM     27  C   UNL     1       1.398  -1.997   0.514  0.00  0.00    +0.140 C 
BRANCH  27  28
ATOM     28  C   UNL     1       0.918  -2.273  -0.907  0.00  0.00    +0.138 C 
ATOM     29  C   UNL     1      -0.270  -3.226  -0.910  0.00  0.00    +0.034 C 
BRANCH  28  30
ATOM     30  O   UNL     1       1.986  -2.871  -1.639  0.00  0.00    -0.352 OA
ATOM     31  C   UNL     1       1.802  -2.719  -3.038  0.00  0.00    +0.174 C 
ENDBRANCH  28  30
ENDBRANCH  27  28
ENDBRANCH   2  27
TORSDOF 6
