REMARK  Name = 9815689
REMARK  9 active torsions:
REMARK  status: ('A' for Active; 'I' for Inactive)
REMARK    1  A    between atoms: C_1  and  O_3
REMARK    2  A    between atoms: C_1  and  C_10
REMARK    3  A    between atoms: O_3  and  C_5
REMARK    4  A    between atoms: C_5  and  C_6
REMARK    5  A    between atoms: C_6  and  C_9
REMARK    6  A    between atoms: C_10  and  C_11
REMARK    7  A    between atoms: C_11  and  C_12
REMARK    8  A    between atoms: C_12  and  C_13
REMARK    9  A    between atoms: C_13  and  C_14
REMARK                            x       y       z     vdW  Elec       q    Type
REMARK                         _______ _______ _______ _____ _____    ______ ____
ROOT
ATOM      1  C   UNL     1       0.662  -1.628  -0.193  0.00  0.00    +0.169 C 
ATOM      2  C   UNL     1       1.582  -2.341  -1.173  0.00  0.00    +0.047 C 
ENDROOT
BRANCH   1   3
ATOM      3  O   UNL     1       1.216  -0.352   0.113  0.00  0.00    -0.449 OA
BRANCH   3   5
ATOM      4  O   UNL     1       2.930  -1.246   1.364  0.00  0.00    -0.244 OA
ATOM      5  C   UNL     1       2.466  -0.360   0.661  0.00  0.00    +0.351 C 
BRANCH   5   6
ATOM      6  C   UNL     1       3.194   0.882   0.277  0.00  0.00    +0.144 C 
ATOM      7  C   UNL     1       4.443   1.040   0.734  0.00  0.00    +0.018 C 
BRANCH   6   9
ATOM      8  N   UNL     1       2.117   2.697  -1.217  0.00  0.00    -0.191 NA
ATOM      9  C   UNL     1       2.602   1.882  -0.547  0.00  0.00    +0.107 C 
ENDBRANCH   6   9
ENDBRANCH   5   6
ENDBRANCH   3   5
ENDBRANCH   1   3
BRANCH   1  10
ATOM     10  C   UNL     1      -0.739  -1.440  -0.784  0.00  0.00    +0.044 C 
BRANCH  10  11
ATOM     11  C   UNL     1      -1.680  -0.709   0.182  0.00  0.00    +0.004 C 
BRANCH  11  12
ATOM     12  C   UNL     1      -3.063  -0.507  -0.441  0.00  0.00    +0.000 C 
BRANCH  12  13
ATOM     13  C   UNL     1      -4.037   0.246   0.470  0.00  0.00    +0.000 C 
BRANCH  13  14
ATOM     14  C   UNL     1      -5.395   0.513  -0.181  0.00  0.00    +0.000 C 
ATOM     15  C   UNL     1      -6.298   1.324   0.735  0.00  0.00    +0.000 C 
ENDBRANCH  13  14
ENDBRANCH  12  13
ENDBRANCH  11  12
ENDBRANCH  10  11
ENDBRANCH   1  10
TORSDOF 9
