REMARK  Name = 2472
REMARK  4 active torsions:
REMARK  status: ('A' for Active; 'I' for Inactive)
REMARK    1  A    between atoms: C_12  and  C_27
REMARK    2  A    between atoms: C_19  and  O_23
REMARK    3  A    between atoms: C_20  and  O_25
REMARK    4  A    between atoms: C_27  and  C_28
REMARK                            x       y       z     vdW  Elec       q    Type
REMARK                         _______ _______ _______ _____ _____    ______ ____
ROOT
ATOM      1  O   UNL     1      -3.959  -2.004   1.041  0.00  0.00    -0.275 OA
ATOM      2  N   UNL     1      -4.156   0.281   0.678  0.00  0.00    -0.278 N 
ATOM      3  N   UNL     1      -1.496   1.507   0.871  0.00  0.00    -0.232 N 
ATOM      4  N   UNL     1       0.517   0.255   1.001  0.00  0.00    -0.332 NA
ATOM      5  N   UNL     1       0.342   2.145  -0.484  0.00  0.00    -0.313 NA
ATOM      6  N   UNL     1       2.161   2.785  -1.832  0.00  0.00    -0.332 N 
ATOM      7  C   UNL     1      -3.251   2.102  -0.762  0.00  0.00    +0.044 C 
ATOM      8  C   UNL     1      -4.491   1.421  -0.183  0.00  0.00    +0.095 C 
ATOM      9  C   UNL     1      -2.288   2.609   0.316  0.00  0.00    +0.105 C 
ATOM     10  C   UNL     1      -3.580   0.617   1.981  0.00  0.00    +0.116 C 
ATOM     11  C   UNL     1      -2.050   0.672   1.946  0.00  0.00    +0.125 C 
ATOM     12  C   UNL     1      -4.246  -1.060   0.301  0.00  0.00    +0.226 C 
ATOM     13  C   UNL     1      -0.177   1.298   0.450  0.00  0.00    +0.204 C 
ATOM     14  C   UNL     1       1.784   0.049   0.602  0.00  0.00    +0.134 C 
ATOM     15  C   UNL     1       2.395   0.875  -0.356  0.00  0.00    +0.074 C 
ATOM     16  C   UNL     1       1.613   1.910  -0.861  0.00  0.00    +0.193 C 
ATOM     17  C   UNL     1       2.535  -0.998   1.130  0.00  0.00    +0.127 C 
ATOM     18  C   UNL     1       3.721   0.650  -0.766  0.00  0.00    +0.046 C 
ATOM     19  C   UNL     1       3.854  -1.229   0.728  0.00  0.00    +0.157 C 
ATOM     20  C   UNL     1       4.448  -0.404  -0.221  0.00  0.00    +0.169 C 
ATOM     21  H   UNL     1       1.617   3.521  -2.195  0.00  0.00    +0.145 HD
ATOM     22  H   UNL     1       3.087   2.658  -2.143  0.00  0.00    +0.145 HD
ENDROOT
BRANCH  19  23
ATOM     23  O   UNL     1       4.548  -2.266   1.275  0.00  0.00    -0.472 OA
ATOM     24  C   UNL     1       4.462  -3.525   0.610  0.00  0.00    +0.252 C 
ENDBRANCH  19  23
BRANCH  20  25
ATOM     25  O   UNL     1       5.731  -0.617  -0.622  0.00  0.00    -0.469 OA
ATOM     26  C   UNL     1       6.262   0.277  -1.600  0.00  0.00    +0.253 C 
ENDBRANCH  20  25
BRANCH  12  27
ATOM     27  C   UNL     1      -4.726  -1.338  -1.101  0.00  0.00    +0.085 C 
BRANCH  27  28
ATOM     28  C   UNL     1      -4.769  -2.834  -1.359  0.00  0.00    +0.010 C 
ATOM     29  C   UNL     1      -5.187  -3.178  -2.782  0.00  0.00    +0.001 C 
ENDBRANCH  27  28
ENDBRANCH  12  27
TORSDOF 4
