REMARK  Name = 171758
REMARK  8 active torsions:
REMARK  status: ('A' for Active; 'I' for Inactive)
REMARK    1  A    between atoms: C_5  and  N_12
REMARK    2  A    between atoms: C_5  and  O_25
REMARK    3  A    between atoms: C_6  and  C_28
REMARK    4  A    between atoms: C_13  and  C_15
REMARK    5  A    between atoms: C_15  and  C_17
REMARK    6  A    between atoms: C_15  and  C_22
REMARK    7  A    between atoms: C_22  and  O_23
REMARK    8  A    between atoms: C_28  and  O_29
REMARK                            x       y       z     vdW  Elec       q    Type
REMARK                         _______ _______ _______ _____ _____    ______ ____
ROOT
ATOM      1  S   UNL     1      -0.832   1.148   0.912  0.00  0.00    -0.116 S 
ATOM      2  O   UNL     1      -2.038  -2.149  -1.751  0.00  0.00    -0.270 OA
ATOM      3  N   UNL     1      -2.433  -0.716   0.083  0.00  0.00    -0.256 N 
ATOM      4  C   UNL     1      -1.371  -0.592   1.084  0.00  0.00    +0.176 C 
ATOM      5  C   UNL     1      -0.585  -1.642   0.286  0.00  0.00    +0.249 C 
ATOM      6  C   UNL     1      -3.064   0.485  -0.426  0.00  0.00    +0.184 C 
ATOM      7  C   UNL     1      -2.550   1.671   0.418  0.00  0.00    +0.068 C 
ATOM      8  C   UNL     1      -1.788  -1.648  -0.678  0.00  0.00    +0.272 C 
ATOM      9  C   UNL     1      -3.350   1.935   1.701  0.00  0.00    +0.013 C 
ATOM     10  C   UNL     1      -2.459   2.951  -0.415  0.00  0.00    +0.013 C 
ENDROOT
BRANCH   5  12
ATOM     11  O   UNL     1       2.016  -1.325   1.495  0.00  0.00    -0.274 OA
ATOM     12  N   UNL     1       0.621  -1.082  -0.342  0.00  0.00    -0.276 N 
ATOM     13  C   UNL     1       1.833  -0.972   0.331  0.00  0.00    +0.239 C 
ATOM     14  H   UNL     1       0.568  -0.773  -1.275  0.00  0.00    +0.152 HD
BRANCH  13  15
ATOM     15  C   UNL     1       2.936  -0.350  -0.525  0.00  0.00    +0.197 C 
BRANCH  15  17
ATOM     16  S   UNL     1       2.682   3.627  -0.919  0.00  0.00    -0.086 S 
ATOM     17  C   UNL     1       2.899   1.154  -0.382  0.00  0.00    +0.004 C 
ATOM     18  C   UNL     1       3.114   1.811   0.845  0.00  0.00    +0.004 C 
ATOM     19  C   UNL     1       2.654   1.992  -1.426  0.00  0.00    +0.032 C 
ATOM     20  C   UNL     1       3.023   3.177   0.697  0.00  0.00    +0.035 C 
ENDBRANCH  15  17
BRANCH  15  22
ATOM     21  O   UNL     1       5.303  -0.255   0.090  0.00  0.00    -0.249 OA
ATOM     22  C   UNL     1       4.324  -0.904  -0.250  0.00  0.00    +0.326 C 
BRANCH  22  23
ATOM     23  O   UNL     1       4.372  -2.239  -0.503  0.00  0.00    -0.480 OA
ATOM     24  H   UNL     1       3.596  -2.695  -0.761  0.00  0.00    +0.295 HD
ENDBRANCH  22  23
ENDBRANCH  15  22
ENDBRANCH  13  15
ENDBRANCH   5  12
BRANCH   5  25
ATOM     25  O   UNL     1      -0.369  -2.927   0.900  0.00  0.00    -0.330 OA
ATOM     26  C   UNL     1      -0.107  -3.996   0.004  0.00  0.00    +0.176 C 
ENDBRANCH   5  25
BRANCH   6  28
ATOM     27  O   UNL     1      -5.088  -0.729   0.079  0.00  0.00    -0.248 OA
ATOM     28  C   UNL     1      -4.542   0.262  -0.382  0.00  0.00    +0.333 C 
BRANCH  28  29
ATOM     29  O   UNL     1      -5.201   1.313  -0.927  0.00  0.00    -0.479 OA
ATOM     30  H   UNL     1      -4.721   2.044  -1.263  0.00  0.00    +0.295 HD
ENDBRANCH  28  29
ENDBRANCH   6  28
TORSDOF 8
