REMARK  Name = 59317190
REMARK  6 active torsions:
REMARK  status: ('A' for Active; 'I' for Inactive)
REMARK    1  A    between atoms: N_4  and  C_15
REMARK    2  A    between atoms: C_5  and  C_9
REMARK    3  A    between atoms: C_5  and  C_27
REMARK    4  A    between atoms: C_18  and  C_24
REMARK    5  A    between atoms: C_20  and  C_26
REMARK    6  A    between atoms: C_27  and  O_28
REMARK                            x       y       z     vdW  Elec       q    Type
REMARK                         _______ _______ _______ _____ _____    ______ ____
ROOT
ATOM      1  O   UNL     1       0.793   1.533  -0.408  0.00  0.00    -0.272 OA
ATOM      2  O   UNL     1       0.669  -3.096  -0.153  0.00  0.00    -0.252 OA
ATOM      3  N   UNL     1       2.360  -1.560  -0.597  0.00  0.00    -0.251 N 
ATOM      4  N   UNL     1       0.297  -0.763  -0.181  0.00  0.00    -0.191 N 
ATOM      5  C   UNL     1       2.521  -0.120  -0.783  0.00  0.00    +0.177 C 
ATOM      6  C   UNL     1       1.094   0.345  -0.446  0.00  0.00    +0.259 C 
ATOM      7  C   UNL     1       1.046  -1.937  -0.276  0.00  0.00    +0.317 C 
ATOM      8  C   UNL     1       3.443  -2.503  -0.825  0.00  0.00    +0.117 C 
ENDROOT
BRANCH   5   9
ATOM      9  C   UNL     1       3.526   0.480   0.197  0.00  0.00    +0.005 C 
ATOM     10  C   UNL     1       3.415   0.212   1.561  0.00  0.00    -0.002 C 
ATOM     11  C   UNL     1       4.554   1.297  -0.273  0.00  0.00    -0.002 C 
ATOM     12  C   UNL     1       4.333   0.761   2.456  0.00  0.00    -0.000 C 
ATOM     13  C   UNL     1       5.473   1.846   0.623  0.00  0.00    -0.000 C 
ATOM     14  C   UNL     1       5.362   1.578   1.987  0.00  0.00    -0.000 C 
ENDBRANCH   5   9
BRANCH   4  15
ATOM     15  C   UNL     1      -1.094  -0.707   0.148  0.00  0.00    +0.062 C 
ATOM     16  C   UNL     1      -1.889   0.323  -0.353  0.00  0.00    +0.020 C 
ATOM     17  C   UNL     1      -1.655  -1.685   0.970  0.00  0.00    +0.016 C 
ATOM     18  C   UNL     1      -3.246   0.377  -0.032  0.00  0.00    +0.082 C 
ATOM     19  C   UNL     1      -3.012  -1.631   1.291  0.00  0.00    +0.012 C 
ATOM     20  C   UNL     1      -3.807  -0.601   0.790  0.00  0.00    +0.072 C 
BRANCH  18  24
ATOM     21  F   UNL     1      -3.335   2.344  -1.363  0.00  0.00    -0.166 F 
ATOM     22  F   UNL     1      -5.101   1.075  -1.372  0.00  0.00    -0.166 F 
ATOM     23  F   UNL     1      -4.640   2.277   0.374  0.00  0.00    -0.166 F 
ATOM     24  C   UNL     1      -4.067   1.496  -0.587  0.00  0.00    +0.419 C 
ENDBRANCH  18  24
BRANCH  20  26
ATOM     25  N   UNL     1      -6.322  -0.541   1.413  0.00  0.00    -0.191 NA
ATOM     26  C   UNL     1      -5.196  -0.568   1.134  0.00  0.00    +0.100 C 
ENDBRANCH  20  26
ENDBRANCH   4  15
BRANCH   5  27
ATOM     27  C   UNL     1       2.744   0.203  -2.270  0.00  0.00    +0.168 C 
BRANCH  27  28
ATOM     28  O   UNL     1       1.734  -0.439  -3.028  0.00  0.00    -0.380 OA
ATOM     29  H   UNL     1       1.863  -0.243  -3.970  0.00  0.00    +0.211 HD
ENDBRANCH  27  28
ENDBRANCH   5  27
TORSDOF 6
