REMARK  Name = 24823
REMARK  0 active torsions:
REMARK  status: ('A' for Active; 'I' for Inactive)
REMARK                            x       y       z     vdW  Elec       q    Type
REMARK                         _______ _______ _______ _____ _____    ______ ____
ROOT
ATOM      1  O   UNL     1      -0.095  -0.494   0.000  0.00  0.00    +0.000 OA
ATOM      2  O   UNL     1       1.149   0.215   0.000  0.00  0.00    +0.000 OA
ATOM      3  O   UNL     1      -1.054   0.279   0.000  0.00  0.00    +0.000 OA
ENDROOT
TORSDOF 0
