REMARK  Name = 46202416
REMARK  4 active torsions:
REMARK  status: ('A' for Active; 'I' for Inactive)
REMARK    1  A    between atoms: C_4  and  C_15
REMARK    2  A    between atoms: C_4  and  C_23
REMARK    3  A    between atoms: C_18  and  C_22
REMARK    4  A    between atoms: C_26  and  C_31
REMARK                            x       y       z     vdW  Elec       q    Type
REMARK                         _______ _______ _______ _____ _____    ______ ____
ROOT
ATOM      1  F   UNL     1       5.447  -2.195   0.878  0.00  0.00    -0.204 F 
ATOM      2  N   UNL     1       1.365  -0.986   1.564  0.00  0.00    -0.248 NA
ATOM      3  N   UNL     1       3.106  -2.220   2.606  0.00  0.00    -0.343 N 
ATOM      4  C   UNL     1       1.179  -0.247   0.249  0.00  0.00    +0.142 C 
ATOM      5  C   UNL     1       2.533  -0.403  -0.418  0.00  0.00    +0.010 C 
ATOM      6  C   UNL     1       3.360  -1.158   0.400  0.00  0.00    +0.057 C 
ATOM      7  C   UNL     1       2.575  -1.479   1.588  0.00  0.00    +0.123 C 
ATOM      8  C   UNL     1       3.018   0.088  -1.622  0.00  0.00    -0.002 C 
ATOM      9  C   UNL     1       4.666  -1.468   0.071  0.00  0.00    +0.143 C 
ATOM     10  C   UNL     1       4.335  -0.210  -1.984  0.00  0.00    +0.002 C 
ATOM     11  C   UNL     1       5.153  -0.984  -1.144  0.00  0.00    +0.030 C 
ATOM     12  H   UNL     1       2.562  -2.427   3.400  0.00  0.00    +0.144 HD
ATOM     13  H   UNL     1       4.033  -2.547   2.546  0.00  0.00    +0.144 HD
ENDROOT
BRANCH   4  15
ATOM     14  N   UNL     1       0.392   3.970   0.918  0.00  0.00    -0.243 NA
ATOM     15  C   UNL     1       0.898   1.255   0.487  0.00  0.00    +0.008 C 
ATOM     16  C   UNL     1       0.082   1.960  -0.389  0.00  0.00    +0.018 C 
ATOM     17  C   UNL     1       1.462   1.905   1.579  0.00  0.00    +0.019 C 
ATOM     18  C   UNL     1      -0.138   3.304  -0.132  0.00  0.00    +0.125 C 
ATOM     19  C   UNL     1       1.181   3.251   1.749  0.00  0.00    +0.098 C 
BRANCH  18  22
ATOM     20  F   UNL     1      -1.144   5.402  -0.686  0.00  0.00    -0.192 F 
ATOM     21  F   UNL     1      -2.285   3.614  -1.138  0.00  0.00    -0.192 F 
ATOM     22  C   UNL     1      -1.009   4.093  -1.052  0.00  0.00    +0.358 C 
ENDBRANCH  18  22
ENDBRANCH   4  15
BRANCH   4  23
ATOM     23  C   UNL     1      -0.001  -0.952  -0.459  0.00  0.00    +0.005 C 
ATOM     24  C   UNL     1      -1.287  -0.867   0.074  0.00  0.00    -0.002 C 
ATOM     25  C   UNL     1       0.222  -1.671  -1.634  0.00  0.00    -0.002 C 
ATOM     26  C   UNL     1      -2.350  -1.502  -0.567  0.00  0.00    +0.003 C 
ATOM     27  C   UNL     1      -0.842  -2.306  -2.275  0.00  0.00    -0.000 C 
ATOM     28  C   UNL     1      -2.128  -2.221  -1.741  0.00  0.00    +0.000 C 
BRANCH  26  31
ATOM     29  N   UNL     1      -5.869  -2.370   0.319  0.00  0.00    -0.222 NA
ATOM     30  N   UNL     1      -5.347  -0.203   1.237  0.00  0.00    -0.222 NA
ATOM     31  C   UNL     1      -3.685  -1.414  -0.014  0.00  0.00    +0.038 C 
ATOM     32  C   UNL     1      -4.616  -2.419  -0.180  0.00  0.00    +0.102 C 
ATOM     33  C   UNL     1      -4.110  -0.319   0.710  0.00  0.00    +0.102 C 
ATOM     34  C   UNL     1      -6.163  -1.250   1.006  0.00  0.00    +0.199 C 
ENDBRANCH  26  31
ENDBRANCH   4  23
TORSDOF 4
