REMARK  Name = 6050
REMARK  14 active torsions:
REMARK  status: ('A' for Active; 'I' for Inactive)
REMARK    1  A    between atoms: C_1  and  O_2
REMARK    2  A    between atoms: C_1  and  C_8
REMARK    3  A    between atoms: C_1  and  C_15
REMARK    4  A    between atoms: O_2  and  C_4
REMARK    5  A    between atoms: C_4  and  C_5
REMARK    6  A    between atoms: C_5  and  C_6
REMARK    7  A    between atoms: C_8  and  O_9
REMARK    8  A    between atoms: O_9  and  C_11
REMARK    9  A    between atoms: C_11  and  C_12
REMARK   10  A    between atoms: C_12  and  C_13
REMARK   11  A    between atoms: C_15  and  O_16
REMARK   12  A    between atoms: O_16  and  C_18
REMARK   13  A    between atoms: C_18  and  C_19
REMARK   14  A    between atoms: C_19  and  C_20
REMARK                            x       y       z     vdW  Elec       q    Type
REMARK                         _______ _______ _______ _____ _____    ______ ____
ROOT
ATOM      1  C   UNL     1       0.069  -0.288   0.950  0.00  0.00    +0.256 C 
ENDROOT
BRANCH   1   2
ATOM      2  O   UNL     1       1.410  -0.760   1.095  0.00  0.00    -0.444 OA
BRANCH   2   4
ATOM      3  O   UNL     1       1.368  -1.560  -1.068  0.00  0.00    -0.250 OA
ATOM      4  C   UNL     1       1.939  -1.382  -0.001  0.00  0.00    +0.317 C 
BRANCH   4   5
ATOM      5  C   UNL     1       3.351  -1.819   0.316  0.00  0.00    +0.110 C 
BRANCH   5   6
ATOM      6  C   UNL     1       4.002  -2.547  -0.857  0.00  0.00    +0.012 C 
ATOM      7  C   UNL     1       5.431  -2.952  -0.539  0.00  0.00    +0.001 C 
ENDBRANCH   5   6
ENDBRANCH   4   5
ENDBRANCH   2   4
ENDBRANCH   1   2
BRANCH   1   8
ATOM      8  C   UNL     1      -0.089   0.953   1.818  0.00  0.00    +0.256 C 
BRANCH   8   9
ATOM      9  O   UNL     1       0.851   1.944   1.388  0.00  0.00    -0.444 OA
BRANCH   9  11
ATOM     10  O   UNL     1      -0.707   2.782  -0.094  0.00  0.00    -0.250 OA
ATOM     11  C   UNL     1       0.404   2.798   0.420  0.00  0.00    +0.317 C 
BRANCH  11  12
ATOM     12  C   UNL     1       1.508   3.773   0.080  0.00  0.00    +0.110 C 
BRANCH  12  13
ATOM     13  C   UNL     1       1.932   3.669  -1.383  0.00  0.00    +0.012 C 
ATOM     14  C   UNL     1       2.476   2.288  -1.709  0.00  0.00    +0.001 C 
ENDBRANCH  12  13
ENDBRANCH  11  12
ENDBRANCH   9  11
ENDBRANCH   8   9
ENDBRANCH   1   8
BRANCH   1  15
ATOM     15  C   UNL     1      -0.889  -1.394   1.379  0.00  0.00    +0.256 C 
BRANCH  15  16
ATOM     16  O   UNL     1      -2.233  -0.937   1.272  0.00  0.00    -0.444 OA
BRANCH  16  18
ATOM     17  O   UNL     1      -2.330  -1.702  -0.903  0.00  0.00    -0.250 OA
ATOM     18  C   UNL     1      -2.842  -1.157   0.065  0.00  0.00    +0.317 C 
BRANCH  18  19
ATOM     19  C   UNL     1      -4.253  -0.616   0.116  0.00  0.00    +0.110 C 
BRANCH  19  20
ATOM     20  C   UNL     1      -4.986  -0.804  -1.210  0.00  0.00    +0.012 C 
ATOM     21  C   UNL     1      -6.413  -0.287  -1.136  0.00  0.00    +0.001 C 
ENDBRANCH  19  20
ENDBRANCH  18  19
ENDBRANCH  16  18
ENDBRANCH  15  16
ENDBRANCH   1  15
TORSDOF 14
