REMARK  Name = 10297043
REMARK  6 active torsions:
REMARK  status: ('A' for Active; 'I' for Inactive)
REMARK    1  A    between atoms: N_2  and  C_30
REMARK    2  A    between atoms: C_5  and  C_16
REMARK    3  A    between atoms: C_13  and  C_19
REMARK    4  A    between atoms: C_19  and  N_20
REMARK    5  A    between atoms: N_21  and  C_28
REMARK    6  A    between atoms: C_30  and  C_32
REMARK                            x       y       z     vdW  Elec       q    Type
REMARK                         _______ _______ _______ _____ _____    ______ ____
ROOT
ATOM      1  N   UNL     1       1.011  -2.577   0.320  0.00  0.00    -0.301 N 
ATOM      2  N   UNL     1       3.896   1.035   0.950  0.00  0.00    -0.319 N 
ATOM      3  N   UNL     1       3.295  -3.150   0.838  0.00  0.00    -0.233 NA
ATOM      4  N   UNL     1       4.717  -1.198   1.148  0.00  0.00    -0.233 NA
ATOM      5  C   UNL     1       0.287  -1.425   0.150  0.00  0.00    +0.046 C 
ATOM      6  C   UNL     1       2.423  -0.877   0.629  0.00  0.00    +0.131 C 
ATOM      7  C   UNL     1       1.137  -0.355   0.336  0.00  0.00    +0.003 C 
ATOM      8  C   UNL     1       2.312  -2.262   0.611  0.00  0.00    +0.117 C 
ATOM      9  C   UNL     1       3.685  -0.355   0.910  0.00  0.00    +0.113 C 
ATOM     10  C   UNL     1       4.462  -2.525   1.097  0.00  0.00    +0.252 C 
ATOM     11  H   UNL     1       0.651  -3.490   0.244  0.00  0.00    +0.153 HD
ATOM     12  H   UNL     1       3.132   1.631   0.774  0.00  0.00    +0.148 HD
ENDROOT
BRANCH   5  16
ATOM     13  C   UNL     1      -3.829  -1.488  -0.787  0.00  0.00    -0.043 C 
ATOM     14  C   UNL     1      -3.279  -2.520  -0.035  0.00  0.00    -0.006 C 
ATOM     15  C   UNL     1      -3.039  -0.436  -1.234  0.00  0.00    -0.006 C 
ATOM     16  C   UNL     1      -1.119  -1.446  -0.170  0.00  0.00    +0.013 C 
ATOM     17  C   UNL     1      -1.919  -2.498   0.275  0.00  0.00    +0.001 C 
ATOM     18  C   UNL     1      -1.679  -0.415  -0.924  0.00  0.00    +0.001 C 
BRANCH  13  19
ATOM     19  C   UNL     1      -5.293  -1.511  -1.121  0.00  0.00    -0.050 C 
BRANCH  19  20
ATOM     20  N   UNL     1      -5.921  -0.208  -0.913  0.00  0.00    +0.387 N 
ATOM     21  N   UNL     1      -7.868   1.546   0.308  0.00  0.00    +0.384 N 
ATOM     22  C   UNL     1      -7.334  -0.241  -1.313  0.00  0.00    -0.100 C 
ATOM     23  C   UNL     1      -5.794   0.215   0.487  0.00  0.00    -0.100 C 
ATOM     24  C   UNL     1      -7.996   1.123  -1.092  0.00  0.00    -0.101 C 
ATOM     25  C   UNL     1      -6.456   1.580   0.706  0.00  0.00    -0.101 C 
ATOM     26  H   UNL     1      -5.437   0.472  -1.500  0.00  0.00    -0.079 HD
ATOM     27  H   UNL     1      -8.351   0.865   0.895  0.00  0.00    -0.080 HD
BRANCH  21  28
ATOM     28  C   UNL     1      -8.498   2.848   0.517  0.00  0.00    -0.078 C 
ATOM     29  C   UNL     1      -8.465   3.245   1.983  0.00  0.00    -0.025 C 
ENDBRANCH  21  28
ENDBRANCH  19  20
ENDBRANCH  13  19
ENDBRANCH   5  16
BRANCH   2  30
ATOM     30  C   UNL     1       5.170   1.624   1.233  0.00  0.00    +0.093 C 
ATOM     31  C   UNL     1       4.960   3.038   1.770  0.00  0.00    +0.026 C 
BRANCH  30  32
ATOM     32  C   UNL     1       6.053   1.580   0.005  0.00  0.00    -0.005 C 
ATOM     33  C   UNL     1       5.473   1.682  -1.248  0.00  0.00    -0.003 C 
ATOM     34  C   UNL     1       7.421   1.438   0.160  0.00  0.00    -0.003 C 
ATOM     35  C   UNL     1       6.286   1.641  -2.380  0.00  0.00    -0.000 C 
ATOM     36  C   UNL     1       8.234   1.397  -0.972  0.00  0.00    -0.000 C 
ATOM     37  C   UNL     1       7.667   1.498  -2.242  0.00  0.00    -0.000 C 
ENDBRANCH  30  32
ENDBRANCH   2  30
TORSDOF 6
