REMARK  Name = 5329099
REMARK  5 active torsions:
REMARK  status: ('A' for Active; 'I' for Inactive)
REMARK    1  A    between atoms: C_2  and  C_21
REMARK    2  A    between atoms: C_4  and  C_11
REMARK    3  A    between atoms: C_21  and  C_22
REMARK    4  A    between atoms: C_22  and  C_24
REMARK    5  A    between atoms: C_24  and  O_25
REMARK                            x       y       z     vdW  Elec       q    Type
REMARK                         _______ _______ _______ _____ _____    ______ ____
ROOT
ATOM      1  N   UNL     1      -0.671  -1.705  -0.910  0.00  0.00    -0.357 N 
ATOM      2  C   UNL     1      -2.447  -0.900   0.153  0.00  0.00    -0.013 A 
ATOM      3  C   UNL     1      -1.289  -0.592   0.910  0.00  0.00    -0.009 A 
ATOM      4  C   UNL     1      -0.275  -1.101   0.217  0.00  0.00    +0.052 A 
ATOM      5  C   UNL     1      -2.035  -1.588  -0.967  0.00  0.00    +0.030 A 
ATOM      6  C   UNL     1      -1.252   0.141   2.193  0.00  0.00    +0.032 C 
ATOM      7  C   UNL     1      -2.801  -2.151  -2.095  0.00  0.00    +0.049 C 
ATOM      8  H   UNL     1      -0.093  -2.149  -1.571  0.00  0.00    +0.166 HD
ENDROOT
BRANCH   4  11
ATOM      9  O   UNL     1       0.540   1.298  -1.135  0.00  0.00    -0.270 OA
ATOM     10  N   UNL     1       2.869   1.671  -0.990  0.00  0.00    -0.280 N 
ATOM     11  C   UNL     1       1.179  -1.117   0.464  0.00  0.00    +0.021 C 
ATOM     12  C   UNL     1       2.054  -0.204   0.040  0.00  0.00    +0.056 C 
ATOM     13  C   UNL     1       3.497  -0.162   0.248  0.00  0.00    +0.018 C 
ATOM     14  C   UNL     1       3.942   0.996  -0.397  0.00  0.00    +0.051 C 
ATOM     15  C   UNL     1       1.662   0.999  -0.769  0.00  0.00    +0.250 C 
ATOM     16  C   UNL     1       4.388  -0.990   0.904  0.00  0.00    +0.001 C 
ATOM     17  C   UNL     1       5.271   1.369  -0.414  0.00  0.00    +0.015 C 
ATOM     18  C   UNL     1       5.740  -0.630   0.900  0.00  0.00    +0.000 C 
ATOM     19  C   UNL     1       6.177   0.538   0.247  0.00  0.00    +0.001 C 
ATOM     20  H   UNL     1       2.952   2.511  -1.496  0.00  0.00    +0.155 HD
ENDBRANCH   4  11
BRANCH   2  21
ATOM     21  C   UNL     1      -3.840  -0.547   0.497  0.00  0.00    +0.039 C 
BRANCH  21  22
ATOM     22  C   UNL     1      -4.310   0.816  -0.050  0.00  0.00    +0.114 C 
BRANCH  22  24
ATOM     23  O   UNL     1      -6.498   0.429   0.952  0.00  0.00    -0.250 OA
ATOM     24  C   UNL     1      -5.752   1.131   0.284  0.00  0.00    +0.314 C 
BRANCH  24  25
ATOM     25  O   UNL     1      -6.148   2.301  -0.282  0.00  0.00    -0.480 OA
ATOM     26  H   UNL     1      -5.542   2.807  -0.786  0.00  0.00    +0.295 HD
ENDBRANCH  24  25
ENDBRANCH  22  24
ENDBRANCH  21  22
ENDBRANCH   2  21
TORSDOF 5
