57519748
  -OEChem-10051722413D

 56 59  0     1  0  0  0  0  0999 V2000
    1.9857   -2.8707   -1.6392 O   0  0  0  0  0  0  0  0  0  0  0  0
    4.3245   -2.5665    0.9123 O   0  0  0  0  0  0  0  0  0  0  0  0
   -3.7489   -1.9427    1.7832 O   0  0  0  0  0  0  0  0  0  0  0  0
    2.5071   -1.0814    0.5248 N   0  0  0  0  0  0  0  0  0  0  0  0
    4.6050   -0.2325    0.6551 N   0  0  0  0  0  0  0  0  0  0  0  0
    2.9400    3.0252    0.0645 N   0  0  0  0  0  0  0  0  0  0  0  0
   -4.6067    1.7294   -1.2629 N   0  0  0  0  0  0  0  0  0  0  0  0
    2.4143    0.3201    0.3407 C   0  0  0  0  0  0  0  0  0  0  0  0
    3.7124    0.8192    0.4245 C   0  0  0  0  0  0  0  0  0  0  0  0
    1.3979   -1.9966    0.5138 C   0  0  0  0  0  0  0  0  0  0  0  0
    1.3319    1.1859    0.1119 C   0  0  0  0  0  0  0  0  0  0  0  0
    3.8753   -1.4437    0.7234 C   0  0  0  0  0  0  0  0  0  0  0  0
    0.9179   -2.2731   -0.9068 C   0  0  2  0  0  0  0  0  0  0  0  0
    1.6720    2.5589   -0.0201 C   0  0  0  0  0  0  0  0  0  0  0  0
   -0.0294    0.8119    0.0056 C   0  0  0  0  0  0  0  0  0  0  0  0
    3.9483    2.1574    0.2853 C   0  0  0  0  0  0  0  0  0  0  0  0
   -1.0245    1.7603   -0.2236 C   0  0  0  0  0  0  0  0  0  0  0  0
    6.0326   -0.1043    0.7997 C   0  0  0  0  0  0  0  0  0  0  0  0
    0.6550    3.4801   -0.2484 C   0  0  0  0  0  0  0  0  0  0  0  0
   -0.2698   -3.2257   -0.9100 C   0  0  0  0  0  0  0  0  0  0  0  0
   -2.4086    1.3525   -0.3289 C   0  0  0  0  0  0  0  0  0  0  0  0
   -0.6816    3.0963   -0.3507 C   0  0  0  0  0  0  0  0  0  0  0  0
   -4.7574   -1.3094    0.9603 C   0  0  0  0  0  0  0  0  0  0  0  0
   -4.2189   -0.1263    0.2376 C   0  0  0  0  0  0  0  0  0  0  0  0
   -2.8835    0.2416    0.3594 C   0  0  0  0  0  0  0  0  0  0  0  0
   -5.9045   -0.9335    1.9312 C   0  0  0  0  0  0  0  0  0  0  0  0
   -5.2529   -2.4139   -0.0062 C   0  0  0  0  0  0  0  0  0  0  0  0
   -3.3027    2.0564   -1.1197 C   0  0  0  0  0  0  0  0  0  0  0  0
   -5.0319    0.6437   -0.5786 C   0  0  0  0  0  0  0  0  0  0  0  0
    1.8015   -2.7186   -3.0384 C   0  0  0  0  0  0  0  0  0  0  0  0
    0.6154   -1.6440    1.1914 H   0  0  0  0  0  0  0  0  0  0  0  0
    1.7610   -2.9390    0.9447 H   0  0  0  0  0  0  0  0  0  0  0  0
    0.6331   -1.3437   -1.4069 H   0  0  0  0  0  0  0  0  0  0  0  0
   -0.3201   -0.2203    0.1005 H   0  0  0  0  0  0  0  0  0  0  0  0
    4.9387    2.5908    0.3428 H   0  0  0  0  0  0  0  0  0  0  0  0
    6.2513    0.5462    1.6512 H   0  0  0  0  0  0  0  0  0  0  0  0
    6.4496    0.3273   -0.1146 H   0  0  0  0  0  0  0  0  0  0  0  0
    6.4851   -1.0846    0.9720 H   0  0  0  0  0  0  0  0  0  0  0  0
    0.8974    4.5374   -0.3464 H   0  0  0  0  0  0  0  0  0  0  0  0
    0.0237   -4.2202   -0.5564 H   0  0  0  0  0  0  0  0  0  0  0  0
   -1.0754   -2.8508   -0.2701 H   0  0  0  0  0  0  0  0  0  0  0  0
   -0.6829   -3.3559   -1.9145 H   0  0  0  0  0  0  0  0  0  0  0  0
   -1.4189    3.8795   -0.5033 H   0  0  0  0  0  0  0  0  0  0  0  0
   -2.2305   -0.3217    1.0186 H   0  0  0  0  0  0  0  0  0  0  0  0
   -6.0786   -2.0690   -0.6372 H   0  0  0  0  0  0  0  0  0  0  0  0
   -4.4376   -2.7450   -0.6608 H   0  0  0  0  0  0  0  0  0  0  0  0
   -5.5901   -3.2988    0.5459 H   0  0  0  0  0  0  0  0  0  0  0  0
   -5.5607   -0.1933    2.6638 H   0  0  0  0  0  0  0  0  0  0  0  0
   -6.7713   -0.5182    1.4070 H   0  0  0  0  0  0  0  0  0  0  0  0
   -6.2384   -1.8072    2.5030 H   0  0  0  0  0  0  0  0  0  0  0  0
   -3.0142    2.9184   -1.7130 H   0  0  0  0  0  0  0  0  0  0  0  0
   -6.0828    0.4131   -0.7218 H   0  0  0  0  0  0  0  0  0  0  0  0
    2.6790   -3.1375   -3.5395 H   0  0  0  0  0  0  0  0  0  0  0  0
    1.7303   -1.6612   -3.3128 H   0  0  0  0  0  0  0  0  0  0  0  0
    0.9237   -3.2646   -3.3927 H   0  0  0  0  0  0  0  0  0  0  0  0
   -4.1539   -2.7072    2.2272 H   0  0  0  0  0  0  0  0  0  0  0  0
  1 13  1  0  0  0  0
  1 30  1  0  0  0  0
  2 12  2  0  0  0  0
  3 23  1  0  0  0  0
  3 56  1  0  0  0  0
  4  8  1  0  0  0  0
  4 10  1  0  0  0  0
  4 12  1  0  0  0  0
  5  9  1  0  0  0  0
  5 12  1  0  0  0  0
  5 18  1  0  0  0  0
  6 14  2  0  0  0  0
  6 16  1  0  0  0  0
  7 28  2  0  0  0  0
  7 29  1  0  0  0  0
  8  9  1  0  0  0  0
  8 11  2  0  0  0  0
  9 16  2  0  0  0  0
 10 13  1  0  0  0  0
 10 31  1  0  0  0  0
 10 32  1  0  0  0  0
 11 14  1  0  0  0  0
 11 15  1  0  0  0  0
 13 20  1  0  0  0  0
 13 33  1  0  0  0  0
 14 19  1  0  0  0  0
 15 17  2  0  0  0  0
 15 34  1  0  0  0  0
 16 35  1  0  0  0  0
 17 21  1  0  0  0  0
 17 22  1  0  0  0  0
 18 36  1  0  0  0  0
 18 37  1  0  0  0  0
 18 38  1  0  0  0  0
 19 22  2  0  0  0  0
 19 39  1  0  0  0  0
 20 40  1  0  0  0  0
 20 41  1  0  0  0  0
 20 42  1  0  0  0  0
 21 25  2  0  0  0  0
 21 28  1  0  0  0  0
 22 43  1  0  0  0  0
 23 24  1  0  0  0  0
 23 26  1  0  0  0  0
 23 27  1  0  0  0  0
 24 25  1  0  0  0  0
 24 29  2  0  0  0  0
 25 44  1  0  0  0  0
 26 48  1  0  0  0  0
 26 49  1  0  0  0  0
 26 50  1  0  0  0  0
 27 45  1  0  0  0  0
 27 46  1  0  0  0  0
 27 47  1  0  0  0  0
 28 51  1  0  0  0  0
 29 52  1  0  0  0  0
 30 53  1  0  0  0  0
 30 54  1  0  0  0  0
 30 55  1  0  0  0  0
M  END
> <DATABASE_ID>
DB12167

> <DATABASE_NAME>
drugbank

> <ORIGINAL_SOURCE>
PUBCHEM

> <ORIGINAL_SOURCE_URL>
https://pubchem.ncbi.nlm.nih.gov/rest/pug/compound/inchikey/ACCFLVVUVBJNGT-AWEZNQCLSA-N/SDF?record_type=3d

> <SMILES>
CO[C@@H](C)CN1C(=O)N(C)C2=C1C1=CC(=CC=C1N=C2)C1=CC(=CN=C1)C(C)(C)O

> <INCHI_IDENTIFIER>
InChI=1S/C23H26N4O3/c1-14(30-5)13-27-21-18-9-15(16-8-17(11-24-10-16)23(2,3)29)6-7-19(18)25-12-20(21)26(4)22(27)28/h6-12,14,29H,13H2,1-5H3/t14-/m0/s1

> <INCHI_KEY>
ACCFLVVUVBJNGT-AWEZNQCLSA-N

> <FORMULA>
C23H26N4O3

> <MOLECULAR_WEIGHT>
406.486

> <EXACT_MASS>
406.200490713

> <JCHEM_ACCEPTOR_COUNT>
5

> <JCHEM_ATOM_COUNT>
56

> <JCHEM_AVERAGE_POLARIZABILITY>
44.33555456957296

> <JCHEM_BIOAVAILABILITY>
1

> <JCHEM_DONOR_COUNT>
1

> <JCHEM_FORMAL_CHARGE>
0

> <JCHEM_GHOSE_FILTER>
1

> <JCHEM_IUPAC>
8-[5-(2-hydroxypropan-2-yl)pyridin-3-yl]-1-[(2S)-2-methoxypropyl]-3-methyl-1H,2H,3H-imidazo[4,5-c]quinolin-2-one

> <ALOGPS_LOGP>
2.36

> <JCHEM_LOGP>
2.1220171813333337

> <ALOGPS_LOGS>
-3.66

> <JCHEM_MDDR_LIKE_RULE>
0

> <JCHEM_NUMBER_OF_RINGS>
4

> <JCHEM_PHYSIOLOGICAL_CHARGE>
0

> <JCHEM_PKA_STRONGEST_ACIDIC>
14.342664461939531

> <JCHEM_PKA_STRONGEST_BASIC>
4.305489852938418

> <JCHEM_POLAR_SURFACE_AREA>
78.79

> <JCHEM_REFRACTIVITY>
114.4624

> <JCHEM_ROTATABLE_BOND_COUNT>
5

> <JCHEM_RULE_OF_FIVE>
1

> <ALOGPS_SOLUBILITY>
8.83e-02 g/l

> <JCHEM_TRADITIONAL_IUPAC>
8-[5-(2-hydroxypropan-2-yl)pyridin-3-yl]-1-[(2S)-2-methoxypropyl]-3-methylimidazo[4,5-c]quinolin-2-one

> <JCHEM_VEBER_RULE>
0

> <DRUGBANK_ID>
DB12167

> <DRUG_GROUPS>
investigational

> <GENERIC_NAME>
LY-3023414

$$$$
