REMARK  Name = 11210478
REMARK  5 active torsions:
REMARK  status: ('A' for Active; 'I' for Inactive)
REMARK    1  A    between atoms: N_2  and  C_5
REMARK    2  A    between atoms: C_3  and  C_13
REMARK    3  A    between atoms: C_5  and  C_7
REMARK    4  A    between atoms: C_13  and  C_23
REMARK    5  A    between atoms: C_14  and  C_17
REMARK                            x       y       z     vdW  Elec       q    Type
REMARK                         _______ _______ _______ _____ _____    ______ ____
ROOT
ATOM      1  O   UNL     1       0.911  -1.900   0.659  0.00  0.00    -0.269 OA
ATOM      2  N   UNL     1       1.540  -0.532  -1.092  0.00  0.00    -0.298 N 
ATOM      3  C   UNL     1       0.626  -1.061  -0.195  0.00  0.00    +0.256 C 
ATOM      4  H   UNL     1       1.229   0.136  -1.745  0.00  0.00    +0.150 HD
ENDROOT
BRANCH   2   5
ATOM      5  C   UNL     1       2.933  -0.923  -1.108  0.00  0.00    +0.094 C 
ATOM      6  C   UNL     1       3.492  -0.861  -2.528  0.00  0.00    +0.026 C 
BRANCH   5   7
ATOM      7  C   UNL     1       3.745  -0.101  -0.130  0.00  0.00    -0.005 C 
ATOM      8  C   UNL     1       4.801  -0.696   0.538  0.00  0.00    -0.003 C 
ATOM      9  C   UNL     1       3.414   1.227   0.075  0.00  0.00    -0.003 C 
ATOM     10  C   UNL     1       5.549   0.060   1.440  0.00  0.00    -0.000 C 
ATOM     11  C   UNL     1       4.162   1.984   0.976  0.00  0.00    -0.000 C 
ATOM     12  C   UNL     1       5.230   1.400   1.659  0.00  0.00    -0.000 C 
ENDBRANCH   5   7
ENDBRANCH   2   5
BRANCH   3  13
ATOM     13  C   UNL     1      -0.773  -0.519  -0.338  0.00  0.00    +0.124 C 
ATOM     14  C   UNL     1      -1.703  -1.018   0.500  0.00  0.00    +0.047 C 
BRANCH  14  17
ATOM     15 BR   UNL     1      -5.101   2.788  -0.287  0.00  0.00    -0.018 Br
ATOM     16  N   UNL     1      -3.381   0.638   0.177  0.00  0.00    -0.399 NA
ATOM     17  C   UNL     1      -3.123  -0.633   0.529  0.00  0.00    +0.132 C 
ATOM     18  C   UNL     1      -4.067  -1.563   0.903  0.00  0.00    +0.028 C 
ATOM     19  C   UNL     1      -5.396  -1.153   0.916  0.00  0.00    -0.015 C 
ATOM     20  C   UNL     1      -5.718   0.152   0.561  0.00  0.00    +0.092 C 
ATOM     21  C   UNL     1      -4.683   1.001   0.202  0.00  0.00    +0.147 C 
ENDBRANCH  14  17
BRANCH  13  23
ATOM     22  N   UNL     1      -1.359   1.252  -2.131  0.00  0.00    -0.191 NA
ATOM     23  C   UNL     1      -1.098   0.458  -1.326  0.00  0.00    +0.105 C 
ENDBRANCH  13  23
ENDBRANCH   3  13
TORSDOF 5
