REMARK  Name = 9952125
REMARK  8 active torsions:
REMARK  status: ('A' for Active; 'I' for Inactive)
REMARK    1  A    between atoms: C_5  and  C_12
REMARK    2  A    between atoms: C_6  and  O_22
REMARK    3  A    between atoms: C_10  and  O_24
REMARK    4  A    between atoms: C_15  and  O_18
REMARK    5  A    between atoms: C_16  and  O_20
REMARK    6  A    between atoms: O_24  and  C_25
REMARK    7  A    between atoms: C_25  and  C_27
REMARK    8  A    between atoms: C_27  and  O_28
REMARK                            x       y       z     vdW  Elec       q    Type
REMARK                         _______ _______ _______ _____ _____    ______ ____
ROOT
ATOM      1  O   UNL     1       0.120  -0.181  -0.081  0.00  0.00    -0.453 OA
ATOM      2  O   UNL     1      -0.613   3.806   0.319  0.00  0.00    -0.286 OA
ATOM      3  C   UNL     1      -1.485   1.642  -0.052  0.00  0.00    +0.108 C 
ATOM      4  C   UNL     1      -1.164   0.291  -0.178  0.00  0.00    +0.154 C 
ATOM      5  C   UNL     1       1.143   0.728   0.144  0.00  0.00    +0.149 C 
ATOM      6  C   UNL     1      -2.811   2.066  -0.159  0.00  0.00    +0.148 C 
ATOM      7  C   UNL     1      -0.403   2.608   0.195  0.00  0.00    +0.205 C 
ATOM      8  C   UNL     1       0.961   2.050   0.289  0.00  0.00    +0.080 C 
ATOM      9  C   UNL     1      -2.171  -0.646  -0.411  0.00  0.00    +0.075 C 
ATOM     10  C   UNL     1      -3.497  -0.226  -0.519  0.00  0.00    +0.145 C 
ATOM     11  C   UNL     1      -3.816   1.127  -0.393  0.00  0.00    +0.074 C 
ENDROOT
BRANCH   5  12
ATOM     12  C   UNL     1       2.483   0.113   0.236  0.00  0.00    +0.038 C 
ATOM     13  C   UNL     1       3.271  -0.028  -0.908  0.00  0.00    +0.043 C 
ATOM     14  C   UNL     1       2.967  -0.331   1.469  0.00  0.00    +0.006 C 
ATOM     15  C   UNL     1       4.536  -0.608  -0.821  0.00  0.00    +0.172 C 
ATOM     16  C   UNL     1       5.017  -1.050   0.412  0.00  0.00    +0.172 C 
ATOM     17  C   UNL     1       4.233  -0.911   1.557  0.00  0.00    +0.040 C 
BRANCH  15  18
ATOM     18  O   UNL     1       5.293  -0.740  -1.946  0.00  0.00    -0.468 OA
ATOM     19  C   UNL     1       6.165   0.341  -2.271  0.00  0.00    +0.253 C 
ENDBRANCH  15  18
BRANCH  16  20
ATOM     20  O   UNL     1       6.252  -1.617   0.510  0.00  0.00    -0.468 OA
ATOM     21  C   UNL     1       6.668  -2.042   1.806  0.00  0.00    +0.253 C 
ENDBRANCH  16  20
ENDBRANCH   5  12
BRANCH   6  22
ATOM     22  O   UNL     1      -3.175   3.373  -0.041  0.00  0.00    -0.471 OA
ATOM     23  C   UNL     1      -3.499   3.840   1.267  0.00  0.00    +0.252 C 
ENDBRANCH   6  22
BRANCH  10  24
ATOM     24  O   UNL     1      -4.481  -1.138  -0.748  0.00  0.00    -0.464 OA
BRANCH  24  25
ATOM     25  C   UNL     1      -4.277  -2.456  -0.240  0.00  0.00    +0.314 C 
BRANCH  25  27
ATOM     26  O   UNL     1      -6.696  -2.562  -0.048  0.00  0.00    -0.246 OA
ATOM     27  C   UNL     1      -5.602  -3.090   0.078  0.00  0.00    +0.359 C 
BRANCH  27  28
ATOM     28  O   UNL     1      -5.418  -4.355   0.534  0.00  0.00    -0.478 OA
ATOM     29  H   UNL     1      -4.552  -4.705   0.609  0.00  0.00    +0.295 HD
ENDBRANCH  27  28
ENDBRANCH  25  27
ENDBRANCH  24  25
ENDBRANCH  10  24
TORSDOF 8
