REMARK  Name = 72301
REMARK  4 active torsions:
REMARK  status: ('A' for Active; 'I' for Inactive)
REMARK    1  A    between atoms: C_12  and  O_20
REMARK    2  A    between atoms: C_15  and  O_22
REMARK    3  A    between atoms: C_16  and  O_24
REMARK    4  A    between atoms: C_17  and  O_26
REMARK                            x       y       z     vdW  Elec       q    Type
REMARK                         _______ _______ _______ _____ _____    ______ ____
ROOT
ATOM      1  N   UNL     1       0.355  -1.399  -0.132  0.00  0.00    +0.394 N 
ATOM      2  C   UNL     1      -0.326  -0.194   0.403  0.00  0.00    -0.030 C 
ATOM      3  C   UNL     1       0.350   1.041  -0.244  0.00  0.00    +0.010 C 
ATOM      4  C   UNL     1      -0.367  -2.625   0.221  0.00  0.00    -0.072 C 
ATOM      5  C   UNL     1      -1.836  -0.195   0.176  0.00  0.00    -0.042 C 
ATOM      6  C   UNL     1       1.744  -1.464   0.353  0.00  0.00    -0.046 C 
ATOM      7  C   UNL     1      -1.720  -2.633  -0.485  0.00  0.00    +0.003 C 
ATOM      8  C   UNL     1      -2.498  -1.371  -0.226  0.00  0.00    -0.027 C 
ATOM      9  C   UNL     1       1.857   1.000  -0.194  0.00  0.00    -0.027 C 
ATOM     10  C   UNL     1       2.526  -0.208   0.060  0.00  0.00    -0.010 C 
ATOM     11  C   UNL     1      -2.606   0.951   0.437  0.00  0.00    +0.033 C 
ATOM     12  C   UNL     1       3.927  -0.229   0.094  0.00  0.00    +0.166 C 
ATOM     13  C   UNL     1      -3.886  -1.365  -0.424  0.00  0.00    +0.035 C 
ATOM     14  C   UNL     1       2.599   2.161  -0.448  0.00  0.00    -0.001 C 
ATOM     15  C   UNL     1      -3.990   0.945   0.250  0.00  0.00    +0.172 C 
ATOM     16  C   UNL     1      -4.629  -0.211  -0.188  0.00  0.00    +0.172 C 
ATOM     17  C   UNL     1       4.656   0.934  -0.150  0.00  0.00    +0.172 C 
ATOM     18  C   UNL     1       3.993   2.127  -0.424  0.00  0.00    +0.040 C 
ATOM     19  H   UNL     1       0.363  -1.324  -1.149  0.00  0.00    -0.079 HD
ENDROOT
BRANCH  12  20
ATOM     20  O   UNL     1       4.594  -1.387   0.372  0.00  0.00    -0.469 OA
ATOM     21  C   UNL     1       4.883  -1.653   1.742  0.00  0.00    +0.253 C 
ENDBRANCH  12  20
BRANCH  15  22
ATOM     22  O   UNL     1      -4.704   2.077   0.503  0.00  0.00    -0.468 OA
ATOM     23  C   UNL     1      -5.201   2.247   1.828  0.00  0.00    +0.253 C 
ENDBRANCH  15  22
BRANCH  16  24
ATOM     24  O   UNL     1      -5.977  -0.229  -0.379  0.00  0.00    -0.468 OA
ATOM     25  C   UNL     1      -6.453   0.128  -1.675  0.00  0.00    +0.253 C 
ENDBRANCH  16  24
BRANCH  17  26
ATOM     26  O   UNL     1       6.018   0.918  -0.122  0.00  0.00    -0.468 OA
ATOM     27  C   UNL     1       6.688   0.636  -1.349  0.00  0.00    +0.253 C 
ENDBRANCH  17  26
TORSDOF 4
