REMARK  Name = 1234
REMARK  15 active torsions:
REMARK  status: ('A' for Active; 'I' for Inactive)
REMARK    1  A    between atoms: C_1  and  C_2
REMARK    2  A    between atoms: C_1  and  C_14
REMARK    3  A    between atoms: C_1  and  C_18
REMARK    4  A    between atoms: C_1  and  C_19
REMARK    5  A    between atoms: C_5  and  O_8
REMARK    6  A    between atoms: C_6  and  O_10
REMARK    7  A    between atoms: C_7  and  O_12
REMARK    8  A    between atoms: C_19  and  C_20
REMARK    9  A    between atoms: C_20  and  C_21
REMARK   10  A    between atoms: C_21  and  N_22
REMARK   11  A    between atoms: N_22  and  C_25
REMARK   12  A    between atoms: C_25  and  C_26
REMARK   13  A    between atoms: C_26  and  C_27
REMARK   14  A    between atoms: C_30  and  O_33
REMARK   15  A    between atoms: C_32  and  O_35
REMARK                            x       y       z     vdW  Elec       q    Type
REMARK                         _______ _______ _______ _____ _____    ______ ____
ROOT
ATOM      1  C   UNL     1      -3.808  -1.065  -0.056  0.00  0.00    +0.098 C 
ENDROOT
BRANCH   1   2
ATOM      2  C   UNL     1      -3.077   0.297  -0.115  0.00  0.00    -0.003 C 
ATOM      3  C   UNL     1      -2.836   1.011   1.059  0.00  0.00    +0.037 C 
ATOM      4  C   UNL     1      -2.660   0.812  -1.343  0.00  0.00    +0.037 C 
ATOM      5  C   UNL     1      -2.001   2.041  -1.395  0.00  0.00    +0.175 C 
ATOM      6  C   UNL     1      -2.178   2.239   1.006  0.00  0.00    +0.175 C 
ATOM      7  C   UNL     1      -1.760   2.754  -0.221  0.00  0.00    +0.206 C 
BRANCH   5   8
ATOM      8  O   UNL     1      -1.599   2.533  -2.600  0.00  0.00    -0.468 OA
ATOM      9  C   UNL     1      -1.884   1.741  -3.752  0.00  0.00    +0.253 C 
ENDBRANCH   5   8
BRANCH   6  10
ATOM     10  O   UNL     1      -1.948   2.925   2.160  0.00  0.00    -0.468 OA
ATOM     11  C   UNL     1      -2.407   2.329   3.371  0.00  0.00    +0.253 C 
ENDBRANCH   6  10
BRANCH   7  12
ATOM     12  O   UNL     1      -1.116   3.954  -0.273  0.00  0.00    -0.465 OA
ATOM     13  C   UNL     1       0.305   3.931  -0.167  0.00  0.00    +0.253 C 
ENDBRANCH   7  12
ENDBRANCH   1   2
BRANCH   1  14
ATOM     14  C   UNL     1      -5.132  -0.979  -0.929  0.00  0.00    +0.017 C 
ATOM     15  C   UNL     1      -6.139   0.080  -0.448  0.00  0.00    +0.001 C 
ATOM     16  C   UNL     1      -5.867  -2.328  -1.052  0.00  0.00    +0.001 C 
ENDBRANCH   1  14
BRANCH   1  18
ATOM     17  N   UNL     1      -4.486  -1.791   2.403  0.00  0.00    -0.196 NA
ATOM     18  C   UNL     1      -4.184  -1.466   1.330  0.00  0.00    +0.075 C 
ENDBRANCH   1  18
BRANCH   1  19
ATOM     19  C   UNL     1      -2.869  -2.191  -0.620  0.00  0.00    +0.016 C 
BRANCH  19  20
ATOM     20  C   UNL     1      -1.532  -2.366   0.131  0.00  0.00    -0.021 C 
BRANCH  20  21
ATOM     21  C   UNL     1      -0.622  -3.415  -0.516  0.00  0.00    -0.077 C 
BRANCH  21  22
ATOM     22  N   UNL     1       0.628  -3.577   0.216  0.00  0.00    +0.386 N 
ATOM     23  C   UNL     1       1.243  -4.870  -0.094  0.00  0.00    -0.101 C 
ATOM     24  H   UNL     1       0.419  -3.549   1.214  0.00  0.00    -0.080 HD
BRANCH  22  25
ATOM     25  C   UNL     1       1.554  -2.487  -0.096  0.00  0.00    -0.073 C 
BRANCH  25  26
ATOM     26  C   UNL     1       2.558  -2.280   1.038  0.00  0.00    +0.004 C 
BRANCH  26  27
ATOM     27  C   UNL     1       3.505  -1.144   0.740  0.00  0.00    -0.021 C 
ATOM     28  C   UNL     1       4.702  -1.392   0.069  0.00  0.00    +0.036 C 
ATOM     29  C   UNL     1       3.182   0.154   1.133  0.00  0.00    -0.001 C 
ATOM     30  C   UNL     1       5.577  -0.342  -0.207  0.00  0.00    +0.172 C 
ATOM     31  C   UNL     1       4.056   1.205   0.857  0.00  0.00    +0.040 C 
ATOM     32  C   UNL     1       5.254   0.957   0.186  0.00  0.00    +0.172 C 
BRANCH  30  33
ATOM     33  O   UNL     1       6.744  -0.597  -0.863  0.00  0.00    -0.468 OA
ATOM     34  C   UNL     1       6.999  -1.951  -1.230  0.00  0.00    +0.253 C 
ENDBRANCH  30  33
BRANCH  32  35
ATOM     35  O   UNL     1       6.100   1.991  -0.079  0.00  0.00    -0.468 OA
ATOM     36  C   UNL     1       5.695   3.288   0.358  0.00  0.00    +0.253 C 
ENDBRANCH  32  35
ENDBRANCH  26  27
ENDBRANCH  25  26
ENDBRANCH  22  25
ENDBRANCH  21  22
ENDBRANCH  20  21
ENDBRANCH  19  20
ENDBRANCH   1  19
TORSDOF 15
