REMARK  Name = 9874913
REMARK  8 active torsions:
REMARK  status: ('A' for Active; 'I' for Inactive)
REMARK    1  A    between atoms: N_1  and  C_13
REMARK    2  A    between atoms: C_8  and  C_28
REMARK    3  A    between atoms: C_16  and  O_20
REMARK    4  A    between atoms: O_20  and  C_22
REMARK    5  A    between atoms: C_29  and  C_30
REMARK    6  A    between atoms: C_30  and  N_32
REMARK    7  A    between atoms: C_33  and  C_35
REMARK    8  A    between atoms: C_35  and  O_36
REMARK                            x       y       z     vdW  Elec       q    Type
REMARK                         _______ _______ _______ _____ _____    ______ ____
ROOT
ATOM      1  N   UNL     1      -0.364   1.980  -0.802  0.00  0.00    -0.301 N 
ATOM      2  N   UNL     1      -0.465   4.024   0.359  0.00  0.00    -0.233 NA
ATOM      3  N   UNL     1      -2.477   4.689   1.506  0.00  0.00    -0.248 NA
ATOM      4  C   UNL     1      -2.415   2.597   0.336  0.00  0.00    +0.116 C 
ATOM      5  C   UNL     1      -1.101   2.897  -0.011  0.00  0.00    +0.115 C 
ATOM      6  C   UNL     1      -3.082   3.553   1.119  0.00  0.00    +0.067 C 
ATOM      7  C   UNL     1      -3.059   1.412  -0.063  0.00  0.00    -0.013 C 
ATOM      8  C   UNL     1      -4.375   1.173   0.318  0.00  0.00    -0.004 C 
ATOM      9  C   UNL     1      -4.399   3.287   1.487  0.00  0.00    +0.015 C 
ATOM     10  C   UNL     1      -5.046   2.112   1.094  0.00  0.00    +0.001 C 
ATOM     11  C   UNL     1      -1.201   4.863   1.105  0.00  0.00    +0.251 C 
ATOM     12  H   UNL     1      -0.919   1.452  -1.420  0.00  0.00    +0.153 HD
ENDROOT
BRANCH   1  13
ATOM     13  C   UNL     1       1.006   1.680  -0.875  0.00  0.00    +0.049 C 
ATOM     14  C   UNL     1       2.921   0.940  -2.147  0.00  0.00    +0.014 C 
ATOM     15  C   UNL     1       1.561   1.239  -2.076  0.00  0.00    +0.013 C 
ATOM     16  C   UNL     1       3.727   1.081  -1.017  0.00  0.00    +0.141 C 
ATOM     17  C   UNL     1       1.811   1.821   0.256  0.00  0.00    +0.018 C 
ATOM     18  C   UNL     1       3.171   1.521   0.184  0.00  0.00    +0.038 C 
ATOM     19  C   UNL     1       3.499   0.471  -3.442  0.00  0.00    +0.034 C 
BRANCH  16  20
ATOM     20  O   UNL     1       5.057   0.793  -1.070  0.00  0.00    -0.452 OA
BRANCH  20  22
ATOM     21  N   UNL     1       5.271  -2.409   0.714  0.00  0.00    -0.245 NA
ATOM     22  C   UNL     1       5.533  -0.199  -0.230  0.00  0.00    +0.164 C 
ATOM     23  C   UNL     1       6.705  -0.020   0.496  0.00  0.00    +0.040 C 
ATOM     24  C   UNL     1       4.859  -1.401  -0.087  0.00  0.00    +0.136 C 
ATOM     25  C   UNL     1       7.161  -1.034   1.331  0.00  0.00    +0.018 C 
ATOM     26  C   UNL     1       6.414  -2.199   1.404  0.00  0.00    +0.060 C 
ATOM     27  C   UNL     1       6.873  -3.308   2.291  0.00  0.00    +0.052 C 
ENDBRANCH  20  22
ENDBRANCH  16  20
ENDBRANCH   1  13
BRANCH   8  28
ATOM     28  C   UNL     1      -5.046  -0.051  -0.091  0.00  0.00    -0.003 C 
ATOM     29  C   UNL     1      -4.681  -0.847  -1.122  0.00  0.00    -0.005 C 
BRANCH  29  30
ATOM     30  C   UNL     1      -5.394  -2.106  -1.495  0.00  0.00    +0.116 C 
BRANCH  30  32
ATOM     31  O   UNL     1      -4.934  -3.739   0.854  0.00  0.00    -0.272 OA
ATOM     32  N   UNL     1      -4.487  -3.212  -1.368  0.00  0.00    -0.298 N 
ATOM     33  C   UNL     1      -4.330  -3.943  -0.195  0.00  0.00    +0.253 C 
ATOM     34  H   UNL     1      -3.948  -3.465  -2.152  0.00  0.00    +0.150 HD
BRANCH  33  35
ATOM     35  C   UNL     1      -3.308  -5.050  -0.349  0.00  0.00    +0.227 C 
BRANCH  35  36
ATOM     36  O   UNL     1      -3.181  -5.782   0.851  0.00  0.00    -0.342 OA
ATOM     37  C   UNL     1      -2.225  -6.832   0.734  0.00  0.00    +0.175 C 
ENDBRANCH  35  36
ENDBRANCH  33  35
ENDBRANCH  30  32
ENDBRANCH  29  30
ENDBRANCH   8  28
TORSDOF 8
