REMARK  Name = 5312153
REMARK  14 active torsions:
REMARK  status: ('A' for Active; 'I' for Inactive)
REMARK    1  A    between atoms: C_2  and  C_9
REMARK    2  A    between atoms: C_3  and  C_22
REMARK    3  A    between atoms: C_4  and  O_7
REMARK    4  A    between atoms: C_10  and  C_11
REMARK    5  A    between atoms: C_11  and  O_12
REMARK    6  A    between atoms: C_11  and  C_14
REMARK    7  A    between atoms: C_14  and  O_15
REMARK    8  A    between atoms: O_15  and  C_16
REMARK    9  A    between atoms: C_22  and  C_23
REMARK   10  A    between atoms: C_24  and  C_25
REMARK   11  A    between atoms: C_25  and  C_26
REMARK   12  A    between atoms: C_26  and  C_27
REMARK   13  A    between atoms: C_27  and  C_30
REMARK   14  A    between atoms: N_29  and  S_32
REMARK                            x       y       z     vdW  Elec       q    Type
REMARK                         _______ _______ _______ _____ _____    ______ ____
ROOT
ATOM      1  O   UNL     1       6.014  -1.537  -0.496  0.00  0.00    -0.296 OA
ATOM      2  C   UNL     1       3.707   1.071   0.113  0.00  0.00    +0.056 C 
ATOM      3  C   UNL     1       3.877  -0.421  -0.213  0.00  0.00    +0.068 C 
ATOM      4  C   UNL     1       4.780   1.339   1.176  0.00  0.00    +0.122 C 
ATOM      5  C   UNL     1       6.000   0.557   0.695  0.00  0.00    +0.094 C 
ATOM      6  C   UNL     1       5.376  -0.585  -0.064  0.00  0.00    +0.153 C 
ENDROOT
BRANCH   4   7
ATOM      7  O   UNL     1       5.071   2.726   1.238  0.00  0.00    -0.384 OA
ATOM      8  H   UNL     1       4.287   3.207   1.545  0.00  0.00    +0.210 HD
ENDBRANCH   4   7
BRANCH   2   9
ATOM      9  C   UNL     1       2.327   1.404   0.581  0.00  0.00    -0.026 C 
ATOM     10  C   UNL     1       1.529   2.298  -0.021  0.00  0.00    +0.002 C 
BRANCH  10  11
ATOM     11  C   UNL     1       0.142   2.632   0.453  0.00  0.00    +0.176 C 
BRANCH  11  12
ATOM     12  O   UNL     1       0.131   4.011   0.814  0.00  0.00    -0.376 OA
ATOM     13  H   UNL     1       0.790   4.169   1.508  0.00  0.00    +0.211 HD
ENDBRANCH  11  12
BRANCH  11  14
ATOM     14  C   UNL     1      -0.897   2.394  -0.639  0.00  0.00    +0.239 C 
BRANCH  14  15
ATOM     15  O   UNL     1      -2.193   2.711  -0.151  0.00  0.00    -0.472 OA
BRANCH  15  16
ATOM     16  C   UNL     1      -3.245   2.021  -0.696  0.00  0.00    +0.139 C 
ATOM     17  C   UNL     1      -3.175   1.567  -2.013  0.00  0.00    +0.037 C 
ATOM     18  C   UNL     1      -4.387   1.775   0.068  0.00  0.00    +0.037 C 
ATOM     19  C   UNL     1      -4.247   0.866  -2.567  0.00  0.00    +0.003 C 
ATOM     20  C   UNL     1      -5.458   1.074  -0.487  0.00  0.00    +0.003 C 
ATOM     21  C   UNL     1      -5.388   0.620  -1.804  0.00  0.00    +0.000 C 
ENDBRANCH  15  16
ENDBRANCH  14  15
ENDBRANCH  11  14
ENDBRANCH  10  11
ENDBRANCH   2   9
BRANCH   3  22
ATOM     22  C   UNL     1       3.386  -0.795  -1.601  0.00  0.00    +0.033 C 
BRANCH  22  23
ATOM     23  C   UNL     1       3.251  -2.281  -1.744  0.00  0.00    -0.030 C 
ATOM     24  C   UNL     1       2.134  -2.962  -1.449  0.00  0.00    -0.031 C 
BRANCH  24  25
ATOM     25  C   UNL     1       0.878  -2.319  -0.937  0.00  0.00    +0.026 C 
BRANCH  25  26
ATOM     26  C   UNL     1      -0.351  -2.627  -1.801  0.00  0.00    +0.014 C 
BRANCH  26  27
ATOM     27  C   UNL     1      -1.642  -1.944  -1.349  0.00  0.00    +0.087 C 
BRANCH  27  30
ATOM     28  O   UNL     1      -2.268  -3.557   0.316  0.00  0.00    -0.274 OA
ATOM     29  N   UNL     1      -2.128  -1.313   0.989  0.00  0.00    -0.189 N 
ATOM     30  C   UNL     1      -2.051  -2.382   0.040  0.00  0.00    +0.241 C 
ATOM     31  H   UNL     1      -1.914  -0.407   0.669  0.00  0.00    +0.176 HD
BRANCH  29  32
ATOM     32  S   UNL     1      -2.561  -1.484   2.632  0.00  0.00    +0.058 S 
ATOM     33  O   UNL     1      -1.731  -2.515   3.226  0.00  0.00    -0.154 OA
ATOM     34  O   UNL     1      -2.689  -0.181   3.252  0.00  0.00    -0.154 OA
ATOM     35  C   UNL     1      -4.192  -2.160   2.439  0.00  0.00    +0.200 C 
ENDBRANCH  29  32
ENDBRANCH  27  30
ENDBRANCH  26  27
ENDBRANCH  25  26
ENDBRANCH  24  25
ENDBRANCH  22  23
ENDBRANCH   3  22
TORSDOF 14
