REMARK  Name = 52938427
REMARK  9 active torsions:
REMARK  status: ('A' for Active; 'I' for Inactive)
REMARK    1  A    between atoms: C_4  and  C_11
REMARK    2  A    between atoms: C_5  and  C_22
REMARK    3  A    between atoms: C_6  and  N_15
REMARK    4  A    between atoms: N_15  and  C_18
REMARK    5  A    between atoms: C_18  and  C_19
REMARK    6  A    between atoms: C_19  and  O_20
REMARK    7  A    between atoms: C_25  and  O_30
REMARK    8  A    between atoms: C_26  and  C_29
REMARK    9  A    between atoms: O_30  and  C_31
REMARK                            x       y       z     vdW  Elec       q    Type
REMARK                         _______ _______ _______ _____ _____    ______ ____
ROOT
ATOM      1  O   UNL     1       1.108   2.662  -0.678  0.00  0.00    -0.311 OA
ATOM      2  N   UNL     1       0.006   0.968   0.288  0.00  0.00    -0.309 NA
ATOM      3  N   UNL     1      -0.243   3.029  -0.674  0.00  0.00    -0.007 NA
ATOM      4  C   UNL     1      -0.829   1.980  -0.088  0.00  0.00    +0.127 C 
ATOM      5  C   UNL     1       1.167   1.436  -0.094  0.00  0.00    +0.317 C 
ENDROOT
BRANCH   4  11
ATOM      6  C   UNL     1      -4.771  -0.782   0.421  0.00  0.00    -0.038 C 
ATOM      7  C   UNL     1      -3.614  -1.480  -0.322  0.00  0.00    -0.012 C 
ATOM      8  C   UNL     1      -2.348  -0.672   0.000  0.00  0.00    +0.025 C 
ATOM      9  C   UNL     1      -4.303   0.646   0.390  0.00  0.00    -0.045 C 
ATOM     10  C   UNL     1      -2.922   0.702   0.156  0.00  0.00    -0.018 C 
ATOM     11  C   UNL     1      -2.245   1.910   0.135  0.00  0.00    +0.073 C 
ATOM     12  C   UNL     1      -5.030   1.805   0.617  0.00  0.00    -0.007 C 
ATOM     13  C   UNL     1      -2.975   3.082   0.345  0.00  0.00    +0.011 C 
ATOM     14  C   UNL     1      -4.357   3.029   0.584  0.00  0.00    +0.000 C 
BRANCH   6  15
ATOM     15  N   UNL     1      -6.041  -1.023  -0.245  0.00  0.00    +0.389 N 
ATOM     16  H   UNL     1      -5.962  -0.748  -1.224  0.00  0.00    -0.084 HD
ATOM     17  H   UNL     1      -6.763  -0.475   0.223  0.00  0.00    -0.084 HD
BRANCH  15  18
ATOM     18  C   UNL     1      -6.410  -2.431  -0.174  0.00  0.00    -0.049 C 
BRANCH  18  19
ATOM     19  C   UNL     1      -7.716  -2.682  -0.910  0.00  0.00    +0.114 C 
BRANCH  19  20
ATOM     20  O   UNL     1      -8.028  -4.066  -0.831  0.00  0.00    -0.384 OA
ATOM     21  H   UNL     1      -8.861  -4.238  -1.297  0.00  0.00    +0.210 HD
ENDBRANCH  19  20
ENDBRANCH  18  19
ENDBRANCH  15  18
ENDBRANCH   6  15
ENDBRANCH   4  11
BRANCH   5  22
ATOM     22  C   UNL     1       2.477   0.860   0.009  0.00  0.00    +0.070 C 
ATOM     23  C   UNL     1       2.644  -0.395   0.595  0.00  0.00    +0.019 C 
ATOM     24  C   UNL     1       3.584   1.556  -0.476  0.00  0.00    +0.009 C 
ATOM     25  C   UNL     1       5.025  -0.259   0.209  0.00  0.00    +0.148 C 
ATOM     26  C   UNL     1       3.917  -0.955   0.695  0.00  0.00    +0.102 C 
ATOM     27  C   UNL     1       4.858   0.996  -0.376  0.00  0.00    +0.038 C 
BRANCH  26  29
ATOM     28  N   UNL     1       4.190  -3.289   1.788  0.00  0.00    -0.191 NA
ATOM     29  C   UNL     1       4.068  -2.243   1.298  0.00  0.00    +0.103 C 
ENDBRANCH  26  29
BRANCH  25  30
ATOM     30  O   UNL     1       6.281  -0.782   0.294  0.00  0.00    -0.478 OA
BRANCH  30  31
ATOM     31  C   UNL     1       6.979  -0.988  -0.932  0.00  0.00    +0.166 C 
ATOM     32  C   UNL     1       8.245  -0.144  -0.935  0.00  0.00    +0.047 C 
ATOM     33  C   UNL     1       7.286  -2.470  -1.091  0.00  0.00    +0.047 C 
ENDBRANCH  30  31
ENDBRANCH  25  30
ENDBRANCH   5  22
TORSDOF 9
