65856
  -OEChem-10051722453D

 46 48  0     1  0  0  0  0  0999 V2000
   -2.5817    0.1643    0.8437 O   0  0  0  0  0  0  0  0  0  0  0  0
    0.0790    0.7812    0.1203 O   0  0  0  0  0  0  0  0  0  0  0  0
    2.3154   -0.3754    1.2983 O   0  0  0  0  0  0  0  0  0  0  0  0
   -3.7035    2.5950   -0.1195 N   0  0  0  0  0  0  0  0  0  0  0  0
   -2.2536    0.6411   -0.4668 C   0  0  2  0  0  0  0  0  0  0  0  0
   -0.8396    0.1782   -0.7896 C   0  0  2  0  0  0  0  0  0  0  0  0
   -2.3555    2.1684   -0.5028 C   0  0  0  0  0  0  0  0  0  0  0  0
   -4.0448    2.0637    1.2010 C   0  0  0  0  0  0  0  0  0  0  0  0
   -3.9085    0.5463    1.2103 C   0  0  0  0  0  0  0  0  0  0  0  0
   -0.7007   -1.3244   -0.7125 C   0  0  0  0  0  0  0  0  0  0  0  0
   -0.3435   -1.9113    0.4904 C   0  0  0  0  0  0  0  0  0  0  0  0
   -0.9336   -2.0860   -1.8459 C   0  0  0  0  0  0  0  0  0  0  0  0
    1.3328    1.0450   -0.3596 C   0  0  0  0  0  0  0  0  0  0  0  0
   -0.2154   -3.2984    0.5620 C   0  0  0  0  0  0  0  0  0  0  0  0
   -0.8056   -3.4732   -1.7743 C   0  0  0  0  0  0  0  0  0  0  0  0
    2.4498    0.4641    0.2342 C   0  0  0  0  0  0  0  0  0  0  0  0
   -0.4465   -4.0793   -0.5704 C   0  0  0  0  0  0  0  0  0  0  0  0
    1.4781    1.9011   -1.4476 C   0  0  0  0  0  0  0  0  0  0  0  0
    3.7226    0.7415   -0.2645 C   0  0  0  0  0  0  0  0  0  0  0  0
    2.7509    2.1784   -1.9462 C   0  0  0  0  0  0  0  0  0  0  0  0
    3.8731    1.5986   -1.3547 C   0  0  0  0  0  0  0  0  0  0  0  0
    2.9639    0.0054    2.5104 C   0  0  0  0  0  0  0  0  0  0  0  0
    2.1669   -0.5240    3.6835 C   0  0  0  0  0  0  0  0  0  0  0  0
   -2.9567    0.1937   -1.1833 H   0  0  0  0  0  0  0  0  0  0  0  0
   -0.6209    0.4889   -1.8199 H   0  0  0  0  0  0  0  0  0  0  0  0
   -1.6410    2.6362    0.1848 H   0  0  0  0  0  0  0  0  0  0  0  0
   -2.1325    2.5428   -1.5078 H   0  0  0  0  0  0  0  0  0  0  0  0
   -5.0689    2.3523    1.4587 H   0  0  0  0  0  0  0  0  0  0  0  0
   -3.3799    2.5090    1.9505 H   0  0  0  0  0  0  0  0  0  0  0  0
   -4.0980    0.1613    2.2173 H   0  0  0  0  0  0  0  0  0  0  0  0
   -4.6270    0.0693    0.5328 H   0  0  0  0  0  0  0  0  0  0  0  0
   -4.3700    2.2342   -0.8027 H   0  0  0  0  0  0  0  0  0  0  0  0
   -0.1877   -1.3312    1.3945 H   0  0  0  0  0  0  0  0  0  0  0  0
   -1.2158   -1.6240   -2.7874 H   0  0  0  0  0  0  0  0  0  0  0  0
    0.0577   -3.7708    1.5010 H   0  0  0  0  0  0  0  0  0  0  0  0
   -0.9864   -4.0815   -2.6557 H   0  0  0  0  0  0  0  0  0  0  0  0
   -0.3484   -5.1595   -0.5143 H   0  0  0  0  0  0  0  0  0  0  0  0
    0.6184    2.3800   -1.9077 H   0  0  0  0  0  0  0  0  0  0  0  0
    4.6055    0.2909    0.1807 H   0  0  0  0  0  0  0  0  0  0  0  0
    2.8687    2.8495   -2.7919 H   0  0  0  0  0  0  0  0  0  0  0  0
    4.8641    1.8139   -1.7435 H   0  0  0  0  0  0  0  0  0  0  0  0
    3.9726   -0.4216    2.5221 H   0  0  0  0  0  0  0  0  0  0  0  0
    3.0407    1.0969    2.5905 H   0  0  0  0  0  0  0  0  0  0  0  0
    2.6444   -0.2618    4.6316 H   0  0  0  0  0  0  0  0  0  0  0  0
    1.1509   -0.1153    3.6741 H   0  0  0  0  0  0  0  0  0  0  0  0
    2.0714   -1.6133    3.6247 H   0  0  0  0  0  0  0  0  0  0  0  0
  1  5  1  0  0  0  0
  1  9  1  0  0  0  0
  2  6  1  0  0  0  0
  2 13  1  0  0  0  0
  3 16  1  0  0  0  0
  3 22  1  0  0  0  0
  4  7  1  0  0  0  0
  4  8  1  0  0  0  0
  4 32  1  0  0  0  0
  5  6  1  0  0  0  0
  5  7  1  0  0  0  0
  5 24  1  0  0  0  0
  6 10  1  0  0  0  0
  6 25  1  0  0  0  0
  7 26  1  0  0  0  0
  7 27  1  0  0  0  0
  8  9  1  0  0  0  0
  8 28  1  0  0  0  0
  8 29  1  0  0  0  0
  9 30  1  0  0  0  0
  9 31  1  0  0  0  0
 10 11  2  0  0  0  0
 10 12  1  0  0  0  0
 11 14  1  0  0  0  0
 11 33  1  0  0  0  0
 12 15  2  0  0  0  0
 12 34  1  0  0  0  0
 13 16  1  0  0  0  0
 13 18  2  0  0  0  0
 14 17  2  0  0  0  0
 14 35  1  0  0  0  0
 15 17  1  0  0  0  0
 15 36  1  0  0  0  0
 16 19  2  0  0  0  0
 17 37  1  0  0  0  0
 18 20  1  0  0  0  0
 18 38  1  0  0  0  0
 19 21  1  0  0  0  0
 19 39  1  0  0  0  0
 20 21  2  0  0  0  0
 20 40  1  0  0  0  0
 21 41  1  0  0  0  0
 22 23  1  0  0  0  0
 22 42  1  0  0  0  0
 22 43  1  0  0  0  0
 23 44  1  0  0  0  0
 23 45  1  0  0  0  0
 23 46  1  0  0  0  0
M  END
> <DATABASE_ID>
DB12395

> <DATABASE_NAME>
drugbank

> <ORIGINAL_SOURCE>
PUBCHEM

> <ORIGINAL_SOURCE_URL>
https://pubchem.ncbi.nlm.nih.gov/rest/pug/compound/inchikey/CBQGYUDMJHNJBX-OALUTQOASA-N/SDF?record_type=3d

> <SMILES>
[H][C@]1(CNCCO1)[C@@H](OC1=CC=CC=C1OCC)C1=CC=CC=C1

> <INCHI_IDENTIFIER>
InChI=1S/C19H23NO3/c1-2-21-16-10-6-7-11-17(16)23-19(15-8-4-3-5-9-15)18-14-20-12-13-22-18/h3-11,18-20H,2,12-14H2,1H3/t18-,19-/m0/s1

> <INCHI_KEY>
CBQGYUDMJHNJBX-OALUTQOASA-N

> <FORMULA>
C19H23NO3

> <MOLECULAR_WEIGHT>
313.3908

> <EXACT_MASS>
313.167793607

> <JCHEM_ACCEPTOR_COUNT>
4

> <JCHEM_AVERAGE_POLARIZABILITY>
34.173117635979416

> <JCHEM_BIOAVAILABILITY>
1

> <JCHEM_DONOR_COUNT>
1

> <JCHEM_FORMAL_CHARGE>
0

> <JCHEM_GHOSE_FILTER>
1

> <JCHEM_IUPAC>
(2S)-2-[(S)-2-ethoxyphenoxy(phenyl)methyl]morpholine

> <ALOGPS_LOGP>
3.06

> <JCHEM_LOGP>
3.27581463

> <ALOGPS_LOGS>
-4.15

> <JCHEM_MDDR_LIKE_RULE>
1

> <JCHEM_NUMBER_OF_RINGS>
3

> <JCHEM_PHYSIOLOGICAL_CHARGE>
1

> <JCHEM_PKA_STRONGEST_BASIC>
7.910514199220149

> <JCHEM_POLAR_SURFACE_AREA>
39.72

> <JCHEM_REFRACTIVITY>
89.48490000000001

> <JCHEM_ROTATABLE_BOND_COUNT>
6

> <JCHEM_RULE_OF_FIVE>
1

> <ALOGPS_SOLUBILITY>
2.23e-02 g/l

> <JCHEM_TRADITIONAL_IUPAC>
reboxetine

> <JCHEM_VEBER_RULE>
1

> <DRUGBANK_ID>
DB12395

> <DRUG_GROUPS>
investigational

> <GENERIC_NAME>
Esreboxetine

$$$$
