REMARK  Name = 56649450
REMARK  4 active torsions:
REMARK  status: ('A' for Active; 'I' for Inactive)
REMARK    1  A    between atoms: C_6  and  C_31
REMARK    2  A    between atoms: C_12  and  C_19
REMARK    3  A    between atoms: C_17  and  C_22
REMARK    4  A    between atoms: C_22  and  C_28
REMARK                            x       y       z     vdW  Elec       q    Type
REMARK                         _______ _______ _______ _____ _____    ______ ____
ROOT
ATOM      1  S   UNL     1      -0.261   0.444  -1.087  0.00  0.00    -0.056 S 
ATOM      2  O   UNL     1      -4.034  -0.962   1.254  0.00  0.00    -0.252 OA
ATOM      3  N   UNL     1      -5.073   0.700   0.051  0.00  0.00    -0.257 N 
ATOM      4  N   UNL     1      -2.782   0.309  -0.249  0.00  0.00    -0.239 N 
ATOM      5  N   UNL     1      -1.121  -1.240   0.676  0.00  0.00    -0.388 NA
ATOM      6  C   UNL     1      -6.348   0.578   0.747  0.00  0.00    +0.153 C 
ATOM      7  C   UNL     1      -7.107   1.851   0.392  0.00  0.00    +0.031 C 
ATOM      8  C   UNL     1      -6.573   2.208  -0.992  0.00  0.00    +0.024 C 
ATOM      9  C   UNL     1      -5.112   1.791  -0.923  0.00  0.00    +0.095 C 
ATOM     10  C   UNL     1      -3.951  -0.061   0.417  0.00  0.00    +0.310 C 
ATOM     11  C   UNL     1      -1.488  -0.252  -0.110  0.00  0.00    +0.214 C 
ATOM     12  C   UNL     1       0.867  -0.658  -0.413  0.00  0.00    +0.126 C 
ATOM     13  C   UNL     1       0.230  -1.471   0.502  0.00  0.00    +0.103 C 
ATOM     14  C   UNL     1       0.855  -2.547   1.298  0.00  0.00    +0.063 C 
ATOM     15  H   UNL     1      -2.866   1.049  -0.893  0.00  0.00    +0.159 HD
ENDROOT
BRANCH  12  19
ATOM     16  N   UNL     1       4.912  -0.551  -1.669  0.00  0.00    -0.248 NA
ATOM     17  C   UNL     1       4.561  -0.351  -0.379  0.00  0.00    +0.066 C 
ATOM     18  C   UNL     1       3.255  -0.376   0.082  0.00  0.00    +0.012 C 
ATOM     19  C   UNL     1       2.243  -0.621  -0.840  0.00  0.00    -0.003 C 
ATOM     20  C   UNL     1       2.565  -0.831  -2.177  0.00  0.00    +0.018 C 
ATOM     21  C   UNL     1       3.902  -0.786  -2.537  0.00  0.00    +0.098 C 
BRANCH  17  22
ATOM     22  C   UNL     1       5.672  -0.092   0.582  0.00  0.00    +0.123 C 
ATOM     23  C   UNL     1       6.995  -0.810   0.160  0.00  0.00    +0.014 C 
ATOM     24  C   UNL     1       5.402  -0.580   2.046  0.00  0.00    +0.014 C 
BRANCH  22  28
ATOM     25  F   UNL     1       4.910   2.149   1.115  0.00  0.00    -0.170 F 
ATOM     26  F   UNL     1       6.986   1.676   1.551  0.00  0.00    -0.170 F 
ATOM     27  F   UNL     1       6.337   1.929  -0.516  0.00  0.00    -0.170 F 
ATOM     28  C   UNL     1       5.975   1.431   0.689  0.00  0.00    +0.402 C 
ENDBRANCH  22  28
ENDBRANCH  17  22
ENDBRANCH  12  19
BRANCH   6  31
ATOM     29  O   UNL     1      -6.527  -1.342  -0.665  0.00  0.00    -0.274 OA
ATOM     30  N   UNL     1      -8.258  -0.889   0.781  0.00  0.00    -0.327 N 
ATOM     31  C   UNL     1      -7.030  -0.645   0.212  0.00  0.00    +0.238 C 
ATOM     32  H   UNL     1      -8.786  -1.670   0.496  0.00  0.00    +0.145 HD
ATOM     33  H   UNL     1      -8.610  -0.282   1.472  0.00  0.00    +0.145 HD
ENDBRANCH   6  31
TORSDOF 4
