REMARK  Name = 9910098
REMARK  9 active torsions:
REMARK  status: ('A' for Active; 'I' for Inactive)
REMARK    1  A    between atoms: N_1  and  C1*_12
REMARK    2  A    between atoms: C_9  and  O_25
REMARK    3  A    between atoms: C2*_11  and  O2*_15
REMARK    4  A    between atoms: C3*_13  and  O3*_17
REMARK    5  A    between atoms: C4*_14  and  C5*_19
REMARK    6  A    between atoms: C5*_19  and  O5*_20
REMARK    7  A    between atoms: O_25  and  C_26
REMARK    8  A    between atoms: C_26  and  C_27
REMARK    9  A    between atoms: C_27  and  C_29
REMARK                            x       y       z     vdW  Elec       q    Type
REMARK                         _______ _______ _______ _____ _____    ______ ____
ROOT
ATOM      1  N   UNL     1      -2.924   0.347   0.314  0.00  0.00    -0.236 N 
ATOM      2  N   UNL     1      -3.943  -1.461   1.134  0.00  0.00    -0.240 NA
ATOM      3  N   UNL     1      -0.914  -0.682  -0.584  0.00  0.00    -0.294 NA
ATOM      4  N   UNL     1      -0.908  -3.094  -0.210  0.00  0.00    -0.295 NA
ATOM      5  C   UNL     1      -2.099  -0.710   0.045  0.00  0.00    +0.223 C 
ATOM      6  C   UNL     1      -4.017  -0.157   0.970  0.00  0.00    +0.224 C 
ATOM      7  C   UNL     1      -2.749  -1.820   0.560  0.00  0.00    +0.167 C 
ATOM      8  C   UNL     1      -2.109  -3.047   0.415  0.00  0.00    +0.214 C 
ATOM      9  C   UNL     1      -0.393  -1.925  -0.663  0.00  0.00    +0.313 C 
ATOM     10  N   UNL     1      -2.695  -4.225   0.910  0.00  0.00    -0.331 N 
ATOM     11  H   UNL     1      -2.233  -5.087   0.801  0.00  0.00    +0.145 HD
ATOM     12  H   UNL     1      -3.568  -4.187   1.364  0.00  0.00    +0.145 HD
ENDROOT
BRANCH   1  15
ATOM     13  O4* UNL     1      -1.980   1.835  -1.277  0.00  0.00    -0.333 OA
ATOM     14  C2* UNL     1      -1.866   2.504   1.025  0.00  0.00    +0.187 C 
ATOM     15  C1* UNL     1      -2.689   1.752  -0.022  0.00  0.00    +0.226 C 
ATOM     16  C3* UNL     1      -0.495   2.585   0.381  0.00  0.00    +0.171 C 
ATOM     17  C4* UNL     1      -0.838   2.687  -1.095  0.00  0.00    +0.175 C 
BRANCH  14  18
ATOM     18  O2* UNL     1      -2.424   3.803   1.218  0.00  0.00    -0.378 OA
ATOM     19  H2* UNL     1      -3.298   3.721   1.631  0.00  0.00    +0.211 HD
ENDBRANCH  14  18
BRANCH  16  20
ATOM     20  O3* UNL     1       0.272   3.683   0.826  0.00  0.00    -0.379 OA
ATOM     21  H3* UNL     1       0.468   3.579   1.770  0.00  0.00    +0.211 HD
ENDBRANCH  16  20
BRANCH  17  22
ATOM     22  C5* UNL     1       0.288   2.240  -2.010  0.00  0.00    +0.169 C 
BRANCH  22  23
ATOM     23  O5* UNL     1      -0.142   2.366  -3.354  0.00  0.00    -0.379 OA
ATOM     24  H5* UNL     1       0.569   2.083  -3.950  0.00  0.00    +0.211 HD
ENDBRANCH  22  23
ENDBRANCH  17  22
ENDBRANCH   1  15
BRANCH   9  25
ATOM     25  O   UNL     1       0.827  -2.020  -1.297  0.00  0.00    -0.399 OA
BRANCH  25  26
ATOM     26  C   UNL     1       1.687  -3.063  -0.862  0.00  0.00    +0.227 C 
BRANCH  26  27
ATOM     27  C   UNL     1       3.141  -2.636  -1.032  0.00  0.00    +0.075 C 
BRANCH  27  29
ATOM     28 CL   UNL     1       4.425   2.376   2.010  0.00  0.00    -0.082 Cl
ATOM     29  C   UNL     1       3.462  -1.376  -0.266  0.00  0.00    -0.018 C 
ATOM     30  C   UNL     1       3.302  -0.146  -0.885  0.00  0.00    -0.003 C 
ATOM     31  C   UNL     1       3.913  -1.471   1.041  0.00  0.00    -0.003 C 
ATOM     32  C   UNL     1       3.600   1.019  -0.178  0.00  0.00    +0.011 C 
ATOM     33  C   UNL     1       4.212  -0.306   1.748  0.00  0.00    +0.011 C 
ATOM     34  C   UNL     1       4.055   0.939   1.138  0.00  0.00    +0.058 C 
ENDBRANCH  27  29
ENDBRANCH  26  27
ENDBRANCH  25  26
ENDBRANCH   9  25
TORSDOF 9
