REMARK  Name = 10201696
REMARK  8 active torsions:
REMARK  status: ('A' for Active; 'I' for Inactive)
REMARK    1  A    between atoms: N_2  and  C_5
REMARK    2  A    between atoms: C_3  and  C_19
REMARK    3  A    between atoms: C_5  and  C_13
REMARK    4  A    between atoms: N_12  and  C_15
REMARK    5  A    between atoms: C_15  and  C_17
REMARK    6  A    between atoms: C_18  and  N_25
REMARK    7  A    between atoms: N_24  and  C_31
REMARK    8  A    between atoms: C_31  and  C_32
REMARK                            x       y       z     vdW  Elec       q    Type
REMARK                         _______ _______ _______ _____ _____    ______ ____
ROOT
ATOM      1  O   UNL     1       2.233   2.571   0.099  0.00  0.00    -0.270 OA
ATOM      2  N   UNL     1       2.708   0.311  -0.104  0.00  0.00    -0.296 N 
ATOM      3  C   UNL     1       1.863   1.405  -0.011  0.00  0.00    +0.246 C 
ATOM      4  H   UNL     1       2.314  -0.587  -0.190  0.00  0.00    +0.150 HD
ENDROOT
BRANCH   2   5
ATOM      5  C   UNL     1       4.149   0.439  -0.081  0.00  0.00    +0.126 C 
ATOM      6  C   UNL     1       4.614   1.033   1.255  0.00  0.00    +0.027 C 
ATOM      7  C   UNL     1       4.626   1.273  -1.276  0.00  0.00    +0.027 C 
ATOM      8  C   UNL     1       6.114   1.327   1.279  0.00  0.00    +0.002 C 
ATOM      9  C   UNL     1       6.125   1.567  -1.230  0.00  0.00    +0.002 C 
ATOM     10  C   UNL     1       6.537   2.192   0.098  0.00  0.00    +0.000 C 
BRANCH   5  13
ATOM     11  O   UNL     1       5.319  -1.363  -1.133  0.00  0.00    -0.273 OA
ATOM     12  N   UNL     1       4.095  -1.792   0.800  0.00  0.00    -0.290 N 
ATOM     13  C   UNL     1       4.600  -0.991  -0.209  0.00  0.00    +0.239 C 
ATOM     14  H   UNL     1       3.527  -1.376   1.488  0.00  0.00    +0.150 HD
BRANCH  12  15
ATOM     15  C   UNL     1       4.360  -3.209   0.892  0.00  0.00    +0.197 C 
BRANCH  15  17
ATOM     16  N   UNL     1       2.549  -4.589  -0.408  0.00  0.00    -0.194 NA
ATOM     17  C   UNL     1       3.349  -3.977   0.167  0.00  0.00    +0.095 C 
ENDBRANCH  15  17
ENDBRANCH  12  15
ENDBRANCH   5  13
ENDBRANCH   2   5
BRANCH   3  19
ATOM     18  C   UNL     1      -2.323   0.536  -0.046  0.00  0.00    +0.048 C 
ATOM     19  C   UNL     1       0.409   1.103  -0.023  0.00  0.00    +0.053 C 
ATOM     20  C   UNL     1      -1.854   1.685   0.592  0.00  0.00    +0.015 C 
ATOM     21  C   UNL     1      -1.426  -0.329  -0.672  0.00  0.00    +0.015 C 
ATOM     22  C   UNL     1      -0.489   1.969   0.603  0.00  0.00    +0.006 C 
ATOM     23  C   UNL     1      -0.060  -0.045  -0.660  0.00  0.00    +0.006 C 
BRANCH  18  25
ATOM     24  N   UNL     1      -6.484  -0.309   0.173  0.00  0.00    +0.389 N 
ATOM     25  N   UNL     1      -3.693   0.253  -0.059  0.00  0.00    -0.312 N 
ATOM     26  C   UNL     1      -5.518  -1.402   0.006  0.00  0.00    -0.055 C 
ATOM     27  C   UNL     1      -6.023   0.880  -0.554  0.00  0.00    -0.055 C 
ATOM     28  C   UNL     1      -4.142  -1.007   0.547  0.00  0.00    +0.068 C 
ATOM     29  C   UNL     1      -4.663   1.351  -0.032  0.00  0.00    +0.068 C 
ATOM     30  H   UNL     1      -6.555  -0.081   1.165  0.00  0.00    -0.080 HD
BRANCH  24  31
ATOM     31  C   UNL     1      -7.807  -0.717  -0.297  0.00  0.00    -0.077 C 
BRANCH  31  32
ATOM     32  C   UNL     1      -8.890   0.128   0.369  0.00  0.00    -0.023 C 
ATOM     33  C   UNL     1     -10.279  -0.292  -0.087  0.00  0.00    -0.002 C 
ENDBRANCH  31  32
ENDBRANCH  24  31
ENDBRANCH  18  25
ENDBRANCH   3  19
TORSDOF 8
