REMARK  Name = 151115
REMARK  3 active torsions:
REMARK  status: ('A' for Active; 'I' for Inactive)
REMARK    1  A    between atoms: C_9  and  N_29
REMARK    2  A    between atoms: C_19  and  O_33
REMARK    3  A    between atoms: C_19  and  C_35
REMARK                            x       y       z     vdW  Elec       q    Type
REMARK                         _______ _______ _______ _____ _____    ______ ____
ROOT
ATOM      1  F   UNL     1       5.177   3.690   0.031  0.00  0.00    -0.204 F 
ATOM      2  O   UNL     1      -5.905  -0.756   0.439  0.00  0.00    -0.442 OA
ATOM      3  O   UNL     1      -2.581  -3.334  -0.029  0.00  0.00    -0.270 OA
ATOM      4  O   UNL     1      -6.543   1.281   1.133  0.00  0.00    -0.247 OA
ATOM      5  N   UNL     1      -1.118  -1.544   0.022  0.00  0.00    -0.249 N 
ATOM      6  N   UNL     1       1.137   1.253   0.053  0.00  0.00    -0.405 NA
ATOM      7  C   UNL     1       2.553  -1.209   0.052  0.00  0.00    -0.054 C 
ATOM      8  C   UNL     1       1.171  -1.177   0.041  0.00  0.00    +0.020 C 
ATOM      9  C   UNL     1       3.309  -2.519   0.018  0.00  0.00    -0.046 C 
ATOM     10  C   UNL     1       3.240   0.029   0.060  0.00  0.00    +0.087 C 
ATOM     11  C   UNL     1       0.161  -2.282   0.025  0.00  0.00    +0.127 C 
ATOM     12  C   UNL     1       0.535   0.057   0.045  0.00  0.00    +0.142 C 
ATOM     13  C   UNL     1       4.691  -2.348   0.669  0.00  0.00    -0.014 C 
ATOM     14  C   UNL     1      -0.902  -0.177   0.035  0.00  0.00    +0.084 C 
ATOM     15  C   UNL     1       4.653   0.086   0.071  0.00  0.00    -0.036 C 
ATOM     16  C   UNL     1       5.473  -1.181   0.064  0.00  0.00    +0.021 C 
ATOM     17  C   UNL     1      -3.278   0.184   0.019  0.00  0.00    +0.017 C 
ATOM     18  C   UNL     1       2.483   1.237   0.057  0.00  0.00    +0.118 C 
ATOM     19  C   UNL     1      -4.428   1.153  -0.023  0.00  0.00    +0.196 C 
ATOM     20  C   UNL     1      -3.515  -1.140  -0.007  0.00  0.00    +0.074 C 
ATOM     21  C   UNL     1      -1.915   0.692   0.029  0.00  0.00    +0.016 C 
ATOM     22  C   UNL     1      -2.374  -2.123  -0.005  0.00  0.00    +0.252 C 
ATOM     23  C   UNL     1       5.304   1.323   0.050  0.00  0.00    -0.002 C 
ATOM     24  C   UNL     1      -4.906  -1.674  -0.056  0.00  0.00    +0.239 C 
ATOM     25  C   UNL     1       3.169   2.446   0.053  0.00  0.00    +0.057 C 
ATOM     26  C   UNL     1       4.563   2.498   0.046  0.00  0.00    +0.138 C 
ATOM     27  C   UNL     1      -5.703   0.574   0.579  0.00  0.00    +0.346 C 
ATOM     28  C   UNL     1       6.795   1.427   0.023  0.00  0.00    +0.033 C 
ENDROOT
BRANCH   9  29
ATOM     29  N   UNL     1       3.451  -3.006  -1.356  0.00  0.00    +0.384 N 
ATOM     30  H   UNL     1       2.527  -3.116  -1.775  0.00  0.00    -0.089 HD
ATOM     31  H   UNL     1       3.930  -3.907  -1.350  0.00  0.00    -0.089 HD
ATOM     32  H   UNL     1       3.994  -2.336  -1.900  0.00  0.00    -0.089 HD
ENDBRANCH   9  29
BRANCH  19  33
ATOM     33  O   UNL     1      -4.130   2.289   0.791  0.00  0.00    -0.373 OA
ATOM     34  H   UNL     1      -3.322   2.717   0.468  0.00  0.00    +0.211 HD
ENDBRANCH  19  33
BRANCH  19  35
ATOM     35  C   UNL     1      -4.714   1.626  -1.450  0.00  0.00    +0.042 C 
ATOM     36  C   UNL     1      -5.852   2.627  -1.481  0.00  0.00    +0.003 C 
ENDBRANCH  19  35
TORSDOF 3
