REMARK  Name = 57465250
REMARK  3 active torsions:
REMARK  status: ('A' for Active; 'I' for Inactive)
REMARK    1  A    between atoms: C_3  and  C_11
REMARK    2  A    between atoms: C_11  and  C_12
REMARK    3  A    between atoms: C_12  and  N_14
REMARK                            x       y       z     vdW  Elec       q    Type
REMARK                         _______ _______ _______ _____ _____    ______ ____
ROOT
ATOM      1  O   UNL     1       2.420  -1.627   0.441  0.00  0.00    -0.435 OA
ATOM      2  O   UNL     1       3.509   0.404  -0.264  0.00  0.00    -0.435 OA
ATOM      3  C   UNL     1      -0.577   0.466   0.126  0.00  0.00    +0.036 C 
ATOM      4  C   UNL     1       1.537  -0.613   0.231  0.00  0.00    +0.177 C 
ATOM      5  C   UNL     1       2.159   0.546  -0.172  0.00  0.00    +0.176 C 
ATOM      6  C   UNL     1       0.168  -0.686   0.389  0.00  0.00    +0.043 C 
ATOM      7  C   UNL     1       0.058   1.651  -0.285  0.00  0.00    +0.006 C 
ATOM      8  C   UNL     1       1.446   1.698  -0.438  0.00  0.00    +0.040 C 
ATOM      9  C   UNL     1       3.667  -0.976   0.125  0.00  0.00    +0.429 C 
ENDROOT
BRANCH   3  11
ATOM     10  O   UNL     1      -2.641   1.482   0.587  0.00  0.00    -0.294 OA
ATOM     11  C   UNL     1      -2.023   0.441   0.279  0.00  0.00    +0.153 C 
BRANCH  11  12
ATOM     12  C   UNL     1      -2.820  -0.862   0.046  0.00  0.00    -0.002 C 
ATOM     13  C   UNL     1      -2.670  -1.324  -1.397  0.00  0.00    -0.016 C 
BRANCH  12  14
ATOM     14  N   UNL     1      -4.232  -0.599   0.333  0.00  0.00    +0.386 N 
ATOM     15  H   UNL     1      -4.330  -0.290   1.300  0.00  0.00    -0.089 HD
ATOM     16  H   UNL     1      -4.772  -1.453   0.193  0.00  0.00    -0.089 HD
ATOM     17  H   UNL     1      -4.576   0.128  -0.294  0.00  0.00    -0.089 HD
ENDBRANCH  12  14
ENDBRANCH  11  12
ENDBRANCH   3  11
TORSDOF 3
