REMARK  Name = 3822
REMARK  5 active torsions:
REMARK  status: ('A' for Active; 'I' for Inactive)
REMARK    1  A    between atoms: N_1  and  C_17
REMARK    2  A    between atoms: C_2  and  C_9
REMARK    3  A    between atoms: C_9  and  C_11
REMARK    4  A    between atoms: C_17  and  C_18
REMARK    5  A    between atoms: C_18  and  N_21
REMARK                            x       y       z     vdW  Elec       q    Type
REMARK                         _______ _______ _______ _____ _____    ______ ____
ROOT
ATOM      1  N   UNL     1      -0.429   1.027   0.605  0.00  0.00    +0.388 N 
ATOM      2  C   UNL     1      -3.271   1.685   0.265  0.00  0.00    +0.058 C 
ATOM      3  C   UNL     1      -2.754   0.864   1.446  0.00  0.00    -0.015 C 
ATOM      4  C   UNL     1      -2.153   2.501  -0.382  0.00  0.00    -0.015 C 
ATOM      5  C   UNL     1      -1.455   0.117   1.131  0.00  0.00    -0.077 C 
ATOM      6  C   UNL     1      -0.887   1.676  -0.629  0.00  0.00    -0.077 C 
ATOM      7  H   UNL     1      -0.261   1.753   1.302  0.00  0.00    -0.080 HD
ENDROOT
BRANCH   2   9
ATOM      8  O   UNL     1      -3.533   0.781  -1.919  0.00  0.00    -0.291 OA
ATOM      9  C   UNL     1      -3.933   0.808  -0.758  0.00  0.00    +0.172 C 
BRANCH   9  11
ATOM     10  F   UNL     1      -8.268  -2.358   0.779  0.00  0.00    -0.204 F 
ATOM     11  C   UNL     1      -5.090  -0.037  -0.347  0.00  0.00    +0.035 C 
ATOM     12  C   UNL     1      -5.906   0.407   0.669  0.00  0.00    +0.005 C 
ATOM     13  C   UNL     1      -5.301  -1.231  -1.001  0.00  0.00    +0.005 C 
ATOM     14  C   UNL     1      -6.989  -0.384   1.053  0.00  0.00    +0.030 C 
ATOM     15  C   UNL     1      -6.384  -2.022  -0.617  0.00  0.00    +0.030 C 
ATOM     16  C   UNL     1      -7.228  -1.599   0.410  0.00  0.00    +0.140 C 
ENDBRANCH   9  11
ENDBRANCH   2   9
BRANCH   1  17
ATOM     17  C   UNL     1       0.822   0.305   0.369  0.00  0.00    -0.052 C 
BRANCH  17  18
ATOM     18  C   UNL     1       1.915   1.270  -0.065  0.00  0.00    +0.091 C 
BRANCH  18  21
ATOM     19  O   UNL     1       3.779   0.914   1.956  0.00  0.00    -0.267 OA
ATOM     20  O   UNL     1       2.685   0.157  -2.526  0.00  0.00    -0.246 OA
ATOM     21  N   UNL     1       3.161   0.585  -0.275  0.00  0.00    -0.251 N 
ATOM     22  N   UNL     1       4.670  -0.588  -1.698  0.00  0.00    -0.306 N 
ATOM     23  C   UNL     1       4.031   0.470   0.838  0.00  0.00    +0.265 A 
ATOM     24  C   UNL     1       3.452   0.059  -1.564  0.00  0.00    +0.330 A 
ATOM     25  C   UNL     1       5.308  -0.234   0.609  0.00  0.00    +0.072 A 
ATOM     26  C   UNL     1       5.588  -0.742  -0.656  0.00  0.00    +0.065 A 
ATOM     27  C   UNL     1       6.231  -0.392   1.647  0.00  0.00    +0.006 C 
ATOM     28  C   UNL     1       6.792  -1.411  -0.893  0.00  0.00    +0.017 C 
ATOM     29  C   UNL     1       7.434  -1.060   1.410  0.00  0.00    +0.000 C 
ATOM     30  C   UNL     1       7.713  -1.569   0.142  0.00  0.00    +0.001 C 
ATOM     31  H   UNL     1       4.901  -0.962  -2.579  0.00  0.00    +0.170 HD
ENDBRANCH  18  21
ENDBRANCH  17  18
ENDBRANCH   1  17
TORSDOF 5
