REMARK  Name = 11948288
REMARK  5 active torsions:
REMARK  status: ('A' for Active; 'I' for Inactive)
REMARK    1  A    between atoms: N_5  and  C_23
REMARK    2  A    between atoms: N_6  and  C_26
REMARK    3  A    between atoms: C_7  and  C_14
REMARK    4  A    between atoms: C_23  and  C_24
REMARK    5  A    between atoms: C_26  and  C_27
REMARK                            x       y       z     vdW  Elec       q    Type
REMARK                         _______ _______ _______ _____ _____    ______ ____
ROOT
ATOM      1  O   UNL     1      -2.181  -2.852  -0.104  0.00  0.00    -0.265 OA
ATOM      2  O   UNL     1      -4.157   1.372  -0.652  0.00  0.00    -0.246 OA
ATOM      3  N   UNL     1       0.421  -1.391  -0.076  0.00  0.00    -0.313 N 
ATOM      4  N   UNL     1       0.576   0.824  -0.285  0.00  0.00    -0.304 N 
ATOM      5  N   UNL     1      -1.838   1.255  -0.487  0.00  0.00    -0.269 N 
ATOM      6  N   UNL     1      -3.197  -0.747  -0.379  0.00  0.00    -0.248 N 
ATOM      7  C   UNL     1       1.254  -0.299  -0.129  0.00  0.00    +0.145 C 
ATOM      8  C   UNL     1      -0.858  -0.928  -0.206  0.00  0.00    +0.133 A 
ATOM      9  C   UNL     1      -0.734   0.428  -0.332  0.00  0.00    +0.132 A 
ATOM     10  C   UNL     1      -2.098  -1.633  -0.219  0.00  0.00    +0.280 A 
ATOM     11  C   UNL     1      -3.137   0.686  -0.517  0.00  0.00    +0.335 A 
ATOM     12  H   UNL     1       0.694  -2.330   0.034  0.00  0.00    +0.148 HD
ATOM     13  H   UNL     1       0.932   1.739  -0.352  0.00  0.00    +0.150 HD
ENDROOT
BRANCH   7  14
ATOM     14  C   UNL     1       2.760  -0.446  -0.016  0.00  0.00    +0.034 C 
ATOM     15  C   UNL     1       3.584   0.911  -0.055  0.00  0.00    +0.003 C 
ATOM     16  C   UNL     1       4.604  -0.572   1.487  0.00  0.00    +0.000 C 
ATOM     17  C   UNL     1       4.882  -0.794  -1.057  0.00  0.00    +0.000 C 
ATOM     18  C   UNL     1       3.174  -1.092   1.330  0.00  0.00    +0.003 C 
ATOM     19  C   UNL     1       3.436  -1.289  -1.127  0.00  0.00    +0.003 C 
ATOM     20  C   UNL     1       4.351   0.923   1.278  0.00  0.00    +0.000 C 
ATOM     21  C   UNL     1       4.628   0.707  -1.166  0.00  0.00    +0.000 C 
ATOM     22  C   UNL     1       5.489  -1.124   0.335  0.00  0.00    +0.000 C 
ENDBRANCH   7  14
BRANCH   5  23
ATOM     23  C   UNL     1      -1.655   2.695  -0.619  0.00  0.00    +0.112 C 
BRANCH  23  24
ATOM     24  C   UNL     1      -1.683   3.360   0.755  0.00  0.00    +0.025 C 
ATOM     25  C   UNL     1      -1.516   4.867   0.644  0.00  0.00    +0.002 C 
ENDBRANCH  23  24
ENDBRANCH   5  23
BRANCH   6  26
ATOM     26  C   UNL     1      -4.525  -1.352  -0.408  0.00  0.00    +0.114 C 
BRANCH  26  27
ATOM     27  C   UNL     1      -5.102  -1.431   1.003  0.00  0.00    +0.025 C 
ATOM     28  C   UNL     1      -6.479  -2.077   1.003  0.00  0.00    +0.002 C 
ENDBRANCH  26  27
ENDBRANCH   6  26
TORSDOF 5
