REMARK  Name = 5606
REMARK  5 active torsions:
REMARK  status: ('A' for Active; 'I' for Inactive)
REMARK    1  A    between atoms: C_1  and  C_3
REMARK    2  A    between atoms: C_1  and  O_9
REMARK    3  A    between atoms: C_1  and  C_11
REMARK    4  A    between atoms: C_11  and  N_12
REMARK    5  A    between atoms: N_12  and  C_15
REMARK                            x       y       z     vdW  Elec       q    Type
REMARK                         _______ _______ _______ _____ _____    ______ ____
ROOT
ATOM      1  C   UNL     1       0.124  -0.173  -1.007  0.00  0.00    +0.112 C 
ENDROOT
BRANCH   1   3
ATOM      2 CL   UNL     1       1.559   2.535  -0.674  0.00  0.00    -0.082 Cl
ATOM      3  C   UNL     1       1.480  -0.168  -0.335  0.00  0.00    +0.013 C 
ATOM      4  C   UNL     1       2.181   1.013  -0.152  0.00  0.00    +0.056 C 
ATOM      5  C   UNL     1       1.993  -1.384   0.090  0.00  0.00    -0.001 C 
ATOM      6  C   UNL     1       3.428   0.977   0.472  0.00  0.00    +0.011 C 
ATOM      7  C   UNL     1       3.240  -1.419   0.714  0.00  0.00    -0.000 C 
ATOM      8  C   UNL     1       3.958  -0.238   0.905  0.00  0.00    +0.001 C 
ENDBRANCH   1   3
BRANCH   1   9
ATOM      9  O   UNL     1      -0.003  -1.387  -1.745  0.00  0.00    -0.382 OA
ATOM     10  H   UNL     1      -0.867  -1.410  -2.185  0.00  0.00    +0.211 HD
ENDBRANCH   1   9
BRANCH   1  11
ATOM     11  C   UNL     1      -1.011  -0.052   0.017  0.00  0.00    -0.047 C 
BRANCH  11  12
ATOM     12  N   UNL     1      -2.305  -0.058  -0.643  0.00  0.00    +0.388 N 
ATOM     13  H   UNL     1      -2.354   0.727  -1.292  0.00  0.00    -0.084 HD
ATOM     14  H   UNL     1      -2.414  -0.939  -1.146  0.00  0.00    -0.084 HD
BRANCH  12  15
ATOM     15  C   UNL     1      -3.386   0.061   0.341  0.00  0.00    -0.046 C 
ATOM     16  C   UNL     1      -4.727   0.039  -0.401  0.00  0.00    -0.022 C 
ATOM     17  C   UNL     1      -3.300  -1.125   1.307  0.00  0.00    -0.022 C 
ATOM     18  C   UNL     1      -3.231   1.379   1.110  0.00  0.00    -0.022 C 
ENDBRANCH  12  15
ENDBRANCH  11  12
ENDBRANCH   1  11
TORSDOF 5
