REMARK  Name = 12228
REMARK  0 active torsions:
REMARK  status: ('A' for Active; 'I' for Inactive)
REMARK                            x       y       z     vdW  Elec       q    Type
REMARK                         _______ _______ _______ _____ _____    ______ ____
ROOT
ATOM      1  O   UNL     1      -1.630   0.284   0.000  0.00  0.00    -0.210 OA
ATOM      2  N   UNL     1       0.556  -0.578   0.000  0.00  0.00    -0.191 NA
ATOM      3  C   UNL     1       1.609   0.440   0.000  0.00  0.00    +0.166 C 
ATOM      4  C   UNL     1      -0.535  -0.146   0.000  0.00  0.00    +0.235 C 
ENDROOT
TORSDOF 0
