REMARK  Name = 66555680
REMARK  4 active torsions:
REMARK  status: ('A' for Active; 'I' for Inactive)
REMARK    1  A    between atoms: N_1  and  C_8
REMARK    2  A    between atoms: C_3  and  C_22
REMARK    3  A    between atoms: C_4  and  N_18
REMARK    4  A    between atoms: C_22  and  C_24
REMARK                            x       y       z     vdW  Elec       q    Type
REMARK                         _______ _______ _______ _____ _____    ______ ____
ROOT
ATOM      1  N   UNL     1      -1.270   0.117  -0.126  0.00  0.00    -0.177 N 
ATOM      2  N   UNL     1      -0.657  -1.077  -0.199  0.00  0.00    -0.171 NA
ATOM      3  C   UNL     1       0.850   0.628   0.000  0.00  0.00    +0.090 C 
ATOM      4  C   UNL     1      -0.412   1.171  -0.006  0.00  0.00    +0.122 C 
ATOM      5  C   UNL     1       0.638  -0.758  -0.121  0.00  0.00    +0.124 C 
ENDROOT
BRANCH   1   8
ATOM      6  N   UNL     1      -5.820  -1.617   0.619  0.00  0.00    -0.318 N 
ATOM      7  N   UNL     1      -6.814   0.174  -0.245  0.00  0.00    -0.318 N 
ATOM      8  C   UNL     1      -2.664   0.177  -0.177  0.00  0.00    +0.077 C 
ATOM      9  C   UNL     1      -4.802  -0.780   0.240  0.00  0.00    +0.060 C 
ATOM     10  C   UNL     1      -3.414  -0.895   0.318  0.00  0.00    +0.032 C 
ATOM     11  C   UNL     1      -5.448   0.330  -0.296  0.00  0.00    +0.059 C 
ATOM     12  C   UNL     1      -3.284   1.304  -0.721  0.00  0.00    +0.018 C 
ATOM     13  C   UNL     1      -4.679   1.398  -0.789  0.00  0.00    +0.017 C 
ATOM     14  C   UNL     1      -7.002  -1.003   0.309  0.00  0.00    +0.144 C 
ATOM     15  C   UNL     1      -8.297  -1.648   0.593  0.00  0.00    +0.044 C 
ATOM     16  H   UNL     1      -5.718  -2.501   1.040  0.00  0.00    +0.148 HD
ATOM     17  H   UNL     1      -7.502   0.806  -0.556  0.00  0.00    +0.148 HD
ENDBRANCH   1   8
BRANCH   4  18
ATOM     18  N   UNL     1      -0.849   2.446   0.081  0.00  0.00    -0.344 N 
ATOM     19  H   UNL     1      -1.814   2.639   0.058  0.00  0.00    +0.144 HD
ATOM     20  H   UNL     1      -0.202   3.183   0.167  0.00  0.00    +0.144 HD
ENDBRANCH   4  18
BRANCH   3  22
ATOM     21  O   UNL     1       2.043   2.629   0.210  0.00  0.00    -0.285 OA
ATOM     22  C   UNL     1       2.150   1.384   0.114  0.00  0.00    +0.213 C 
BRANCH  22  24
ATOM     23  N   UNL     1       3.694  -0.425  -0.543  0.00  0.00    -0.310 N 
ATOM     24  C   UNL     1       3.429   0.747   0.113  0.00  0.00    +0.088 C 
ATOM     25  C   UNL     1       5.010  -0.786  -0.357  0.00  0.00    +0.048 C 
ATOM     26  C   UNL     1       5.596   0.195   0.446  0.00  0.00    +0.015 C 
ATOM     27  C   UNL     1       4.586   1.156   0.735  0.00  0.00    +0.019 C 
ATOM     28  C   UNL     1       5.719  -1.894  -0.833  0.00  0.00    +0.015 C 
ATOM     29  C   UNL     1       6.955   0.066   0.791  0.00  0.00    +0.001 C 
ATOM     30  C   UNL     1       7.066  -2.001  -0.478  0.00  0.00    +0.001 C 
ATOM     31  C   UNL     1       7.677  -1.037   0.322  0.00  0.00    +0.000 C 
ATOM     32  H   UNL     1       3.039  -0.936  -1.071  0.00  0.00    +0.152 HD
ENDBRANCH  22  24
ENDBRANCH   3  22
TORSDOF 4
