REMARK  Name = 16058752
REMARK  4 active torsions:
REMARK  status: ('A' for Active; 'I' for Inactive)
REMARK    1  A    between atoms: N_1  and  C_20
REMARK    2  A    between atoms: C_2  and  N_8
REMARK    3  A    between atoms: C_14  and  C_19
REMARK    4  A    between atoms: C_20  and  C_23
REMARK                            x       y       z     vdW  Elec       q    Type
REMARK                         _______ _______ _______ _____ _____    ______ ____
ROOT
ATOM      1  N   UNL     1      -2.186  -1.658  -0.051  0.00  0.00    +0.390 N 
ATOM      2  C   UNL     1       0.579  -1.791   0.941  0.00  0.00    +0.066 C 
ATOM      3  C   UNL     1      -0.293  -0.542   1.090  0.00  0.00    -0.003 C 
ATOM      4  C   UNL     1      -0.297  -3.033   0.767  0.00  0.00    -0.003 C 
ATOM      5  C   UNL     1      -1.361  -0.444  -0.004  0.00  0.00    -0.075 C 
ATOM      6  C   UNL     1      -1.364  -2.847  -0.316  0.00  0.00    -0.075 C 
ATOM      7  H   UNL     1      -2.625  -1.776   0.862  0.00  0.00    -0.079 HD
ENDROOT
BRANCH   2   8
ATOM      8  N   UNL     1       1.472  -1.645  -0.193  0.00  0.00    -0.318 N 
ATOM      9  N   UNL     1       3.010  -0.257   0.988  0.00  0.00    -0.133 NA
ATOM     10  N   UNL     1       4.157   0.472   1.023  0.00  0.00    -0.143 NA
ATOM     11  C   UNL     1       2.639  -0.904  -0.156  0.00  0.00    +0.150 C 
ATOM     12  C   UNL     1       3.430  -0.830  -1.303  0.00  0.00    +0.037 C 
ATOM     13  C   UNL     1       4.598  -0.088  -1.267  0.00  0.00    +0.028 C 
ATOM     14  C   UNL     1       4.924   0.546  -0.086  0.00  0.00    +0.174 C 
ATOM     15  H   UNL     1       1.234  -2.098  -1.034  0.00  0.00    +0.148 HD
BRANCH  14  19
ATOM     16  F   UNL     1       6.893   1.385  -1.154  0.00  0.00    -0.164 F 
ATOM     17  F   UNL     1       5.949   2.669   0.318  0.00  0.00    -0.164 F 
ATOM     18  F   UNL     1       7.031   0.895   0.960  0.00  0.00    -0.164 F 
ATOM     19  C   UNL     1       6.171   1.357   0.006  0.00  0.00    +0.437 C 
ENDBRANCH  14  19
ENDBRANCH   2   8
BRANCH   1  20
ATOM     20  C   UNL     1      -3.235  -1.526  -1.062  0.00  0.00    -0.050 C 
BRANCH  20  23
ATOM     21  F   UNL     1      -5.844   1.099   2.101  0.00  0.00    -0.202 F 
ATOM     22  F   UNL     1      -6.573   2.838   0.121  0.00  0.00    -0.202 F 
ATOM     23  C   UNL     1      -4.128  -0.358  -0.745  0.00  0.00    -0.041 C 
ATOM     24  C   UNL     1      -4.577  -0.172   0.556  0.00  0.00    +0.026 C 
ATOM     25  C   UNL     1      -4.492   0.520  -1.758  0.00  0.00    -0.004 C 
ATOM     26  C   UNL     1      -5.405   0.911   0.849  0.00  0.00    +0.167 C 
ATOM     27  C   UNL     1      -5.320   1.603  -1.464  0.00  0.00    +0.032 C 
ATOM     28  C   UNL     1      -5.777   1.799  -0.161  0.00  0.00    +0.167 C 
ENDBRANCH  20  23
ENDBRANCH   1  20
TORSDOF 4
