REMARK  Name = 2355
REMARK  1 active torsions:
REMARK  status: ('A' for Active; 'I' for Inactive)
REMARK    1  A    between atoms: C_6  and  O_15
REMARK                            x       y       z     vdW  Elec       q    Type
REMARK                         _______ _______ _______ _____ _____    ______ ____
ROOT
ATOM      1  O   UNL     1       2.680  -1.944  -0.114  0.00  0.00    -0.450 OA
ATOM      2  O   UNL     1      -2.123  -1.357  -0.119  0.00  0.00    -0.421 OA
ATOM      3  O   UNL     1      -4.381  -0.973  -0.110  0.00  0.00    -0.244 OA
ATOM      4  C   UNL     1       1.792   0.120   0.123  0.00  0.00    +0.072 C 
ATOM      5  C   UNL     1      -0.596   0.524   0.134  0.00  0.00    +0.069 C 
ATOM      6  C   UNL     1       0.714   1.023   0.216  0.00  0.00    +0.145 C 
ATOM      7  C   UNL     1       1.518  -1.234  -0.046  0.00  0.00    +0.151 C 
ATOM      8  C   UNL     1      -0.807  -0.844  -0.036  0.00  0.00    +0.155 C 
ATOM      9  C   UNL     1       0.236  -1.770  -0.132  0.00  0.00    +0.075 C 
ATOM     10  C   UNL     1       3.208   0.225   0.159  0.00  0.00    +0.047 C 
ATOM     11  C   UNL     1      -1.750   1.405   0.224  0.00  0.00    +0.013 C 
ATOM     12  C   UNL     1       3.696  -1.052   0.011  0.00  0.00    +0.180 C 
ATOM     13  C   UNL     1      -2.987   0.909   0.143  0.00  0.00    +0.082 C 
ATOM     14  C   UNL     1      -3.239  -0.532  -0.036  0.00  0.00    +0.346 C 
ENDROOT
BRANCH   6  15
ATOM     15  O   UNL     1       0.953   2.360   0.383  0.00  0.00    -0.471 OA
ATOM     16  C   UNL     1       1.085   3.141  -0.799  0.00  0.00    +0.252 C 
ENDBRANCH   6  15
TORSDOF 1
