REMARK  Name = 6918502
REMARK  12 active torsions:
REMARK  status: ('A' for Active; 'I' for Inactive)
REMARK    1  A    between atoms: C_2  and  C_10
REMARK    2  A    between atoms: C_4  and  O_18
REMARK    3  A    between atoms: C_7  and  O_20
REMARK    4  A    between atoms: C_11  and  C_13
REMARK    5  A    between atoms: C_13  and  C_14
REMARK    6  A    between atoms: O_20  and  C_22
REMARK    7  A    between atoms: C_22  and  C_23
REMARK    8  A    between atoms: C_24  and  C_25
REMARK    9  A    between atoms: C_30  and  O_31
REMARK   10  A    between atoms: O_31  and  C_32
REMARK   11  A    between atoms: C_32  and  C_33
REMARK   12  A    between atoms: C_33  and  N_34
REMARK                            x       y       z     vdW  Elec       q    Type
REMARK                         _______ _______ _______ _____ _____    ______ ____
ROOT
ATOM      1  O   UNL     1       5.213  -1.309   2.120  0.00  0.00    -0.353 OA
ATOM      2  C   UNL     1       3.641  -0.629   0.303  0.00  0.00    +0.085 C 
ATOM      3  C   UNL     1       3.855  -0.998   1.769  0.00  0.00    +0.125 C 
ATOM      4  C   UNL     1       3.451  -1.925  -0.527  0.00  0.00    +0.160 C 
ATOM      5  C   UNL     1       4.655  -0.129   2.719  0.00  0.00    +0.169 C 
ATOM      6  C   UNL     1       2.845  -1.940   2.369  0.00  0.00    +0.034 C 
ATOM      7  C   UNL     1       2.377  -2.849   0.065  0.00  0.00    +0.196 C 
ATOM      8  C   UNL     1       2.696  -3.199   1.518  0.00  0.00    +0.049 C 
ENDROOT
BRANCH   2  10
ATOM      9  O   UNL     1       4.397   0.831  -1.552  0.00  0.00    -0.356 OA
ATOM     10  C   UNL     1       4.737   0.229  -0.296  0.00  0.00    +0.122 C 
ATOM     11  C   UNL     1       4.587   1.716  -0.440  0.00  0.00    +0.144 C 
ATOM     12  C   UNL     1       6.087  -0.384  -0.267  0.00  0.00    +0.032 C 
BRANCH  11  13
ATOM     13  C   UNL     1       5.768   2.600  -0.577  0.00  0.00    +0.057 C 
BRANCH  13  14
ATOM     14  C   UNL     1       5.464   3.999  -1.058  0.00  0.00    -0.032 C 
ATOM     15  C   UNL     1       5.268   5.102  -0.311  0.00  0.00    -0.048 C 
ATOM     16  C   UNL     1       4.968   6.470  -0.856  0.00  0.00    +0.026 C 
ATOM     17  C   UNL     1       5.356   5.034   1.190  0.00  0.00    +0.026 C 
ENDBRANCH  13  14
ENDBRANCH  11  13
ENDBRANCH   2  10
BRANCH   4  18
ATOM     18  O   UNL     1       3.050  -1.617  -1.862  0.00  0.00    -0.350 OA
ATOM     19  C   UNL     1       3.309  -2.701  -2.738  0.00  0.00    +0.174 C 
ENDBRANCH   4  18
BRANCH   7  20
ATOM     20  O   UNL     1       1.106  -2.200   0.003  0.00  0.00    -0.447 OA
BRANCH  20  22
ATOM     21  O   UNL     1       0.046  -4.242  -0.218  0.00  0.00    -0.245 OA
ATOM     22  C   UNL     1       0.028  -3.023  -0.140  0.00  0.00    +0.341 C 
BRANCH  22  23
ATOM     23  C   UNL     1      -1.186  -2.178  -0.187  0.00  0.00    +0.082 C 
ATOM     24  C   UNL     1      -2.388  -2.754  -0.326  0.00  0.00    +0.007 C 
BRANCH  24  25
ATOM     25  C   UNL     1      -3.666  -2.023  -0.375  0.00  0.00    +0.000 C 
ATOM     26  C   UNL     1      -4.862  -2.689  -0.104  0.00  0.00    +0.003 C 
ATOM     27  C   UNL     1      -3.681  -0.665  -0.692  0.00  0.00    +0.003 C 
ATOM     28  C   UNL     1      -6.072  -1.997  -0.150  0.00  0.00    +0.037 C 
ATOM     29  C   UNL     1      -4.891   0.027  -0.739  0.00  0.00    +0.037 C 
ATOM     30  C   UNL     1      -6.086  -0.639  -0.468  0.00  0.00    +0.138 C 
BRANCH  30  31
ATOM     31  O   UNL     1      -7.267   0.037  -0.513  0.00  0.00    -0.478 OA
BRANCH  31  32
ATOM     32  C   UNL     1      -7.234   1.425  -0.187  0.00  0.00    +0.183 C 
BRANCH  32  33
ATOM     33  C   UNL     1      -8.578   1.821   0.403  0.00  0.00    -0.029 C 
BRANCH  33  34
ATOM     34  N   UNL     1      -8.584   3.230   0.768  0.00  0.00    +0.387 N 
ATOM     35  C   UNL     1      -9.618   3.501   1.770  0.00  0.00    -0.101 C 
ATOM     36  C   UNL     1      -8.793   4.070  -0.414  0.00  0.00    -0.101 C 
ATOM     37  H   UNL     1      -7.674   3.455   1.170  0.00  0.00    -0.080 HD
ENDBRANCH  33  34
ENDBRANCH  32  33
ENDBRANCH  31  32
ENDBRANCH  30  31
ENDBRANCH  24  25
ENDBRANCH  22  23
ENDBRANCH  20  22
ENDBRANCH   7  20
TORSDOF 12
