REMARK  Name = 24771368
REMARK  4 active torsions:
REMARK  status: ('A' for Active; 'I' for Inactive)
REMARK    1  A    between atoms: N_2  and  C_25
REMARK    2  A    between atoms: C_9  and  C_12
REMARK    3  A    between atoms: C_16  and  O_17
REMARK    4  A    between atoms: O_17  and  C_19
REMARK                            x       y       z     vdW  Elec       q    Type
REMARK                         _______ _______ _______ _____ _____    ______ ____
ROOT
ATOM      1  O   UNL     1       1.434   2.493  -1.861  0.00  0.00    -0.270 OA
ATOM      2  N   UNL     1       4.594  -0.605   0.165  0.00  0.00    +0.389 N 
ATOM      3  N   UNL     1       2.242   1.560   0.130  0.00  0.00    -0.278 N 
ATOM      4  C   UNL     1       3.515  -1.043   1.061  0.00  0.00    -0.075 C 
ATOM      5  C   UNL     1       4.166   0.359  -0.858  0.00  0.00    -0.055 C 
ATOM      6  C   UNL     1       3.043   0.055   2.017  0.00  0.00    -0.001 C 
ATOM      7  C   UNL     1       3.637   1.676  -0.290  0.00  0.00    +0.071 C 
ATOM      8  C   UNL     1       1.959   0.963   1.439  0.00  0.00    +0.091 C 
ATOM      9  C   UNL     1       1.240   1.989  -0.756  0.00  0.00    +0.250 C 
ATOM     10  H   UNL     1       5.260  -0.108   0.757  0.00  0.00    -0.080 HD
ENDROOT
BRANCH   9  12
ATOM     11  N   UNL     1      -2.163   0.472  -0.303  0.00  0.00    -0.210 NA
ATOM     12  C   UNL     1      -0.165   1.832  -0.349  0.00  0.00    +0.073 C 
ATOM     13  C   UNL     1      -0.826   2.838   0.347  0.00  0.00    +0.011 C 
ATOM     14  C   UNL     1      -0.872   0.678  -0.647  0.00  0.00    +0.107 C 
ATOM     15  C   UNL     1      -2.154   2.663   0.718  0.00  0.00    +0.058 C 
ATOM     16  C   UNL     1      -2.772   1.472   0.372  0.00  0.00    +0.230 C 
BRANCH  16  17
ATOM     17  O   UNL     1      -4.081   1.276   0.726  0.00  0.00    -0.436 OA
BRANCH  17  19
ATOM     18  F   UNL     1      -6.409  -3.504  -0.720  0.00  0.00    -0.204 F 
ATOM     19  C   UNL     1      -4.664   0.077   0.363  0.00  0.00    +0.147 C 
ATOM     20  C   UNL     1      -4.602  -1.017   1.226  0.00  0.00    +0.040 C 
ATOM     21  C   UNL     1      -5.315  -0.038  -0.865  0.00  0.00    +0.040 C 
ATOM     22  C   UNL     1      -5.192  -2.227   0.860  0.00  0.00    +0.033 C 
ATOM     23  C   UNL     1      -5.905  -1.248  -1.231  0.00  0.00    +0.033 C 
ATOM     24  C   UNL     1      -5.843  -2.342  -0.368  0.00  0.00    +0.140 C 
ENDBRANCH  17  19
ENDBRANCH  16  17
ENDBRANCH   9  12
BRANCH   2  25
ATOM     25  C   UNL     1       5.269  -1.775  -0.466  0.00  0.00    -0.058 C 
ATOM     26  C   UNL     1       5.999  -2.596   0.616  0.00  0.00    -0.021 C 
ATOM     27  C   UNL     1       6.662  -1.353  -0.977  0.00  0.00    -0.021 C 
ATOM     28  C   UNL     1       7.202  -2.654  -0.348  0.00  0.00    -0.004 C 
ENDBRANCH   2  25
TORSDOF 4
