REMARK  Name = 9931954
REMARK  3 active torsions:
REMARK  status: ('A' for Active; 'I' for Inactive)
REMARK    1  A    between atoms: C_8  and  C_18
REMARK    2  A    between atoms: C_21  and  C_24
REMARK    3  A    between atoms: C_24  and  N_25
REMARK                            x       y       z     vdW  Elec       q    Type
REMARK                         _______ _______ _______ _____ _____    ______ ____
ROOT
ATOM      1  F   UNL     1      -5.315  -2.587   0.120  0.00  0.00    -0.204 F 
ATOM      2  O   UNL     1      -4.731   2.271  -0.671  0.00  0.00    -0.270 OA
ATOM      3  N   UNL     1      -0.539  -1.694   0.027  0.00  0.00    -0.353 N 
ATOM      4  N   UNL     1      -2.700   2.901   0.133  0.00  0.00    -0.301 N 
ATOM      5  C   UNL     1      -0.731   0.520  -0.033  0.00  0.00    -0.003 A 
ATOM      6  C   UNL     1      -2.045  -0.042  -0.022  0.00  0.00    +0.018 A 
ATOM      7  C   UNL     1      -0.410   1.971  -0.018  0.00  0.00    +0.049 C 
ATOM      8  C   UNL     1       0.168  -0.525  -0.015  0.00  0.00    +0.053 A 
ATOM      9  C   UNL     1      -1.889  -1.431   0.036  0.00  0.00    +0.059 A 
ATOM     10  C   UNL     1      -3.352   0.495  -0.049  0.00  0.00    +0.057 C 
ATOM     11  C   UNL     1      -1.424   2.744   0.815  0.00  0.00    +0.094 C 
ATOM     12  C   UNL     1      -3.636   1.943  -0.209  0.00  0.00    +0.246 C 
ATOM     13  C   UNL     1      -2.969  -2.318   0.087  0.00  0.00    +0.047 C 
ATOM     14  C   UNL     1      -4.444  -0.395   0.000  0.00  0.00    +0.034 C 
ATOM     15  C   UNL     1      -4.252  -1.773   0.073  0.00  0.00    +0.142 C 
ATOM     16  H   UNL     1      -0.140  -2.593   0.048  0.00  0.00    +0.166 HD
ATOM     17  H   UNL     1      -2.930   3.823  -0.122  0.00  0.00    +0.150 HD
ENDROOT
BRANCH   8  18
ATOM     18  C   UNL     1       1.613  -0.525  -0.019  0.00  0.00    +0.015 C 
ATOM     19  C   UNL     1       2.311  -0.503   1.187  0.00  0.00    +0.001 C 
ATOM     20  C   UNL     1       2.305  -0.547  -1.229  0.00  0.00    +0.001 C 
ATOM     21  C   UNL     1       4.400  -0.525  -0.027  0.00  0.00    -0.044 C 
ATOM     22  C   UNL     1       3.706  -0.503   1.183  0.00  0.00    -0.006 C 
ATOM     23  C   UNL     1       3.700  -0.547  -1.232  0.00  0.00    -0.006 C 
BRANCH  21  24
ATOM     24  C   UNL     1       5.891  -0.525  -0.031  0.00  0.00    -0.054 C 
BRANCH  24  25
ATOM     25  N   UNL     1       6.439   0.808  -0.057  0.00  0.00    +0.385 N 
ATOM     26  C   UNL     1       7.901   0.787  -0.050  0.00  0.00    -0.105 C 
ATOM     27  H   UNL     1       6.111   1.317   0.764  0.00  0.00    -0.084 HD
ATOM     28  H   UNL     1       6.130   1.264  -0.915  0.00  0.00    -0.084 HD
ENDBRANCH  24  25
ENDBRANCH  21  24
ENDBRANCH   8  18
TORSDOF 3
