REMARK  Name = 3447
REMARK  12 active torsions:
REMARK  status: ('A' for Active; 'I' for Inactive)
REMARK    1  A    between atoms: C_2  and  O_3
REMARK    2  A    between atoms: C_2  and  C_15
REMARK    3  A    between atoms: O_3  and  C_4
REMARK    4  A    between atoms: C_7  and  C_11
REMARK    5  A    between atoms: C_11  and  O_12
REMARK    6  A    between atoms: O_12  and  C_13
REMARK    7  A    between atoms: C_15  and  C_16
REMARK    8  A    between atoms: C_16  and  C_17
REMARK    9  A    between atoms: C_17  and  C_18
REMARK   10  A    between atoms: C_18  and  C_19
REMARK   11  A    between atoms: C_19  and  N_20
REMARK   12  A    between atoms: N_20  and  C_23
REMARK                            x       y       z     vdW  Elec       q    Type
REMARK                         _______ _______ _______ _____ _____    ______ ____
ROOT
ATOM      1  O   UNL     1       0.010  -0.596  -0.984  0.00  0.00    -0.250 OA
ATOM      2  C   UNL     1       0.372  -0.176   0.108  0.00  0.00    +0.321 C 
ENDROOT
BRANCH   2   3
ATOM      3  O   UNL     1      -0.436   0.407   1.081  0.00  0.00    -0.424 OA
BRANCH   3   4
ATOM      4  C   UNL     1      -1.782   0.455   0.713  0.00  0.00    +0.148 C 
ATOM      5  C   UNL     1      -2.279   1.562   0.025  0.00  0.00    +0.038 C 
ATOM      6  C   UNL     1      -2.631  -0.605   1.034  0.00  0.00    +0.038 C 
ATOM      7  C   UNL     1      -4.473   0.551  -0.019  0.00  0.00    +0.076 C 
ATOM      8  C   UNL     1      -3.624   1.611  -0.341  0.00  0.00    +0.010 C 
ATOM      9  C   UNL     1      -3.976  -0.556   0.668  0.00  0.00    +0.010 C 
BRANCH   7  11
ATOM     10  O   UNL     1      -6.401   1.543  -1.010  0.00  0.00    -0.245 OA
ATOM     11  C   UNL     1      -5.875   0.603  -0.400  0.00  0.00    +0.341 C 
BRANCH  11  12
ATOM     12  O   UNL     1      -6.546  -0.522  -0.002  0.00  0.00    -0.445 OA
BRANCH  12  13
ATOM     13  C   UNL     1      -7.940  -0.591  -0.322  0.00  0.00    +0.209 C 
ATOM     14  C   UNL     1      -8.500  -1.898   0.197  0.00  0.00    +0.051 C 
ENDBRANCH  12  13
ENDBRANCH  11  12
ENDBRANCH   7  11
ENDBRANCH   3   4
ENDBRANCH   2   3
BRANCH   2  15
ATOM     15  C   UNL     1       1.799  -0.173   0.614  0.00  0.00    +0.110 C 
BRANCH  15  16
ATOM     16  C   UNL     1       2.799  -0.708  -0.410  0.00  0.00    +0.012 C 
BRANCH  16  17
ATOM     17  C   UNL     1       4.245  -0.632   0.090  0.00  0.00    +0.003 C 
BRANCH  17  18
ATOM     18  C   UNL     1       5.219  -1.208  -0.943  0.00  0.00    +0.026 C 
BRANCH  18  19
ATOM     19  C   UNL     1       6.670  -1.135  -0.481  0.00  0.00    +0.129 C 
BRANCH  19  20
ATOM     20  N   UNL     1       7.056   0.262  -0.275  0.00  0.00    -0.240 NA
BRANCH  20  23
ATOM     21  N   UNL     1       9.283  -0.443   0.286  0.00  0.00    -0.370 N 
ATOM     22  N   UNL     1       8.725   1.767   0.292  0.00  0.00    -0.370 N 
ATOM     23  C   UNL     1       8.284   0.482   0.078  0.00  0.00    +0.189 C 
ATOM     24  H   UNL     1       9.097  -1.402   0.167  0.00  0.00    +0.159 HD
ATOM     25  H   UNL     1      10.182  -0.145   0.555  0.00  0.00    +0.159 HD
ATOM     26  H   UNL     1       8.108   2.525   0.176  0.00  0.00    +0.159 HD
ATOM     27  H   UNL     1       9.658   1.929   0.560  0.00  0.00    +0.159 HD
ENDBRANCH  20  23
ENDBRANCH  19  20
ENDBRANCH  18  19
ENDBRANCH  17  18
ENDBRANCH  16  17
ENDBRANCH  15  16
ENDBRANCH   2  15
TORSDOF 12
