REMARK  Name = 59745
REMARK  4 active torsions:
REMARK  status: ('A' for Active; 'I' for Inactive)
REMARK    1  A    between atoms: C_3  and  C_18
REMARK    2  A    between atoms: C_4  and  N_11
REMARK    3  A    between atoms: C_18  and  C_20
REMARK    4  A    between atoms: C_18  and  C_27
REMARK                            x       y       z     vdW  Elec       q    Type
REMARK                         _______ _______ _______ _____ _____    ______ ____
ROOT
ATOM      1 CL   UNL     1      -1.426   0.015   2.205  0.00  0.00    -0.082 Cl
ATOM      2 CL   UNL     1      -0.601  -1.980  -2.801  0.00  0.00    -0.082 Cl
ATOM      3  C   UNL     1      -0.858  -0.943  -0.287  0.00  0.00    +0.017 C 
ATOM      4  C   UNL     1       1.808  -0.271  -0.116  0.00  0.00    +0.080 C 
ATOM      5  C   UNL     1      -0.400  -0.339   0.863  0.00  0.00    +0.057 C 
ATOM      6  C   UNL     1      -0.034  -1.223  -1.356  0.00  0.00    +0.057 C 
ATOM      7  C   UNL     1       0.950   0.001   0.950  0.00  0.00    +0.028 C 
ATOM      8  C   UNL     1       1.316  -0.883  -1.269  0.00  0.00    +0.028 C 
ENDROOT
BRANCH   4  11
ATOM      9  O   UNL     1       3.537  -0.194   2.286  0.00  0.00    -0.250 OA
ATOM     10  O   UNL     1       7.031   1.245  -0.306  0.00  0.00    -0.268 OA
ATOM     11  N   UNL     1       3.205   0.082  -0.027  0.00  0.00    -0.142 N 
ATOM     12  N   UNL     1       3.769   0.369  -1.244  0.00  0.00    -0.164 NA
ATOM     13  N   UNL     1       5.264   0.548   1.037  0.00  0.00    -0.233 N 
ATOM     14  C   UNL     1       3.945   0.125   1.168  0.00  0.00    +0.333 C 
ATOM     15  C   UNL     1       5.000   0.734  -1.318  0.00  0.00    +0.176 C 
ATOM     16  C   UNL     1       5.881   0.874  -0.139  0.00  0.00    +0.274 C 
ATOM     17  H   UNL     1       5.798   0.618   1.861  0.00  0.00    +0.160 HD
ENDBRANCH   4  11
BRANCH   3  18
ATOM     18  C   UNL     1      -2.341  -1.318  -0.383  0.00  0.00    +0.137 C 
BRANCH  18  20
ATOM     19  F   UNL     1      -5.771   3.118   0.005  0.00  0.00    -0.204 F 
ATOM     20  C   UNL     1      -3.252  -0.141  -0.280  0.00  0.00    -0.004 C 
ATOM     21  C   UNL     1      -2.771   1.139  -0.558  0.00  0.00    -0.001 C 
ATOM     22  C   UNL     1      -4.584  -0.320   0.095  0.00  0.00    -0.001 C 
ATOM     23  C   UNL     1      -3.622   2.240  -0.461  0.00  0.00    +0.029 C 
ATOM     24  C   UNL     1      -5.435   0.781   0.192  0.00  0.00    +0.029 C 
ATOM     25  C   UNL     1      -4.954   2.061  -0.086  0.00  0.00    +0.140 C 
ENDBRANCH  18  20
BRANCH  18  27
ATOM     26  N   UNL     1      -2.970  -3.288   1.279  0.00  0.00    -0.195 NA
ATOM     27  C   UNL     1      -2.685  -2.431   0.550  0.00  0.00    +0.081 C 
ENDBRANCH  18  27
ENDBRANCH   3  18
TORSDOF 4
