REMARK  Name = 9888484
REMARK  13 active torsions:
REMARK  status: ('A' for Active; 'I' for Inactive)
REMARK    1  A    between atoms: C_1  and  C_2
REMARK    2  A    between atoms: C_1  and  C_18
REMARK    3  A    between atoms: C_2  and  O_3
REMARK    4  A    between atoms: O_3  and  C_7
REMARK    5  A    between atoms: C_4  and  C_10
REMARK    6  A    between atoms: C_10  and  C_11
REMARK    7  A    between atoms: C_11  and  O_12
REMARK    8  A    between atoms: C_11  and  C_15
REMARK    9  A    between atoms: C_15  and  O_16
REMARK   10  A    between atoms: C_18  and  O_19
REMARK   11  A    between atoms: O_19  and  C_20
REMARK   12  A    between atoms: C_23  and  O_26
REMARK   13  A    between atoms: O_26  and  C_27
REMARK                            x       y       z     vdW  Elec       q    Type
REMARK                         _______ _______ _______ _____ _____    ______ ____
ROOT
ATOM      1  C   UNL     1       5.228  -1.780   0.267  0.00  0.00    +0.095 C 
ENDROOT
BRANCH   1   2
ATOM      2  C   UNL     1       3.986  -2.651   0.365  0.00  0.00    +0.209 C 
BRANCH   2   3
ATOM      3  O   UNL     1       3.273  -2.573  -0.862  0.00  0.00    -0.475 OA
BRANCH   3   7
ATOM      4  C   UNL     1      -0.853  -2.975  -0.659  0.00  0.00    -0.019 C 
ATOM      5  C   UNL     1      -0.043  -3.621   0.275  0.00  0.00    -0.001 C 
ATOM      6  C   UNL     1      -0.277  -2.195  -1.661  0.00  0.00    -0.001 C 
ATOM      7  C   UNL     1       1.910  -2.706  -0.794  0.00  0.00    +0.139 C 
ATOM      8  C   UNL     1       1.344  -3.486   0.207  0.00  0.00    +0.037 C 
ATOM      9  C   UNL     1       1.110  -2.060  -1.729  0.00  0.00    +0.037 C 
BRANCH   4  10
ATOM     10  C   UNL     1      -2.336  -3.120  -0.587  0.00  0.00    +0.067 C 
BRANCH  10  11
ATOM     11  C   UNL     1      -2.994  -2.040   0.288  0.00  0.00    +0.218 C 
BRANCH  11  12
ATOM     12  O   UNL     1      -2.832  -2.405   1.653  0.00  0.00    -0.342 OA
ATOM     13  C   UNL     1      -3.408  -1.439   2.521  0.00  0.00    +0.175 C 
ENDBRANCH  11  12
BRANCH  11  15
ATOM     14  O   UNL     1      -5.338  -2.633   0.548  0.00  0.00    -0.248 OA
ATOM     15  C   UNL     1      -4.481  -1.940   0.015  0.00  0.00    +0.342 C 
BRANCH  15  16
ATOM     16  O   UNL     1      -4.772  -0.967  -0.886  0.00  0.00    -0.479 OA
ATOM     17  H   UNL     1      -4.082  -0.461  -1.268  0.00  0.00    +0.295 HD
ENDBRANCH  15  16
ENDBRANCH  11  15
ENDBRANCH  10  11
ENDBRANCH   4  10
ENDBRANCH   3   7
ENDBRANCH   2   3
ENDBRANCH   1   2
BRANCH   1  18
ATOM     18  C   UNL     1       4.883  -0.321   0.016  0.00  0.00    +0.209 C 
BRANCH  18  19
ATOM     19  O   UNL     1       4.066   0.170   1.070  0.00  0.00    -0.475 OA
BRANCH  19  20
ATOM     20  C   UNL     1       3.189   1.175   0.756  0.00  0.00    +0.139 C 
ATOM     21  C   UNL     1       1.992   1.286   1.454  0.00  0.00    +0.040 C 
ATOM     22  C   UNL     1       3.505   2.074  -0.257  0.00  0.00    +0.040 C 
ATOM     23  C   UNL     1       1.409   3.214   0.120  0.00  0.00    +0.145 C 
ATOM     24  C   UNL     1       1.098   2.308   1.135  0.00  0.00    +0.041 C 
ATOM     25  C   UNL     1       2.612   3.096  -0.576  0.00  0.00    +0.041 C 
BRANCH  23  26
ATOM     26  O   UNL     1       0.538   4.213  -0.191  0.00  0.00    -0.453 OA
BRANCH  26  27
ATOM     27  C   UNL     1      -0.803   3.886  -0.303  0.00  0.00    +0.145 C 
ATOM     28  C   UNL     1      -1.164   2.750  -1.004  0.00  0.00    +0.037 C 
ATOM     29  C   UNL     1      -1.747   4.705   0.289  0.00  0.00    +0.037 C 
ATOM     30  C   UNL     1      -2.515   2.422  -1.118  0.00  0.00    +0.003 C 
ATOM     31  C   UNL     1      -3.098   4.377   0.176  0.00  0.00    +0.003 C 
ATOM     32  C   UNL     1      -3.482   3.235  -0.527  0.00  0.00    +0.000 C 
ENDBRANCH  26  27
ENDBRANCH  23  26
ENDBRANCH  19  20
ENDBRANCH  18  19
ENDBRANCH   1  18
TORSDOF 13
