16071605
  -OEChem-10051722423D

 52 55  0     0  0  0  0  0  0999 V2000
   -2.2518   -0.3096   -1.8570 S   0  0  0  0  0  0  0  0  0  0  0  0
    2.7490   -2.0223    0.3389 O   0  0  0  0  0  0  0  0  0  0  0  0
   -3.6922   -0.2273   -1.9961 O   0  0  0  0  0  0  0  0  0  0  0  0
   -1.3887   -0.5808   -2.9902 O   0  0  0  0  0  0  0  0  0  0  0  0
   -2.9238   -2.4344   -0.2791 N   0  0  0  0  0  0  0  0  0  0  0  0
   -2.5239   -3.4078    0.5620 N   0  0  0  0  0  0  0  0  0  0  0  0
    6.3461    1.1768   -0.2090 N   0  0  0  0  0  0  0  0  0  0  0  0
   -1.9155   -1.6586   -0.7279 C   0  0  0  0  0  0  0  0  0  0  0  0
   -0.7899   -2.1324   -0.1634 C   0  0  0  0  0  0  0  0  0  0  0  0
   -1.7165    1.1632   -1.0616 C   0  0  0  0  0  0  0  0  0  0  0  0
   -2.3762    1.7101    0.0511 C   0  0  0  0  0  0  0  0  0  0  0  0
   -1.1920   -3.2491    0.6578 C   0  0  0  0  0  0  0  0  0  0  0  0
    0.4963   -1.6391   -0.3413 C   0  0  0  0  0  0  0  0  0  0  0  0
   -1.8806    2.9011    0.6328 C   0  0  0  0  0  0  0  0  0  0  0  0
    4.5332   -0.4422    0.0868 C   0  0  0  0  0  0  0  0  0  0  0  0
    1.4290   -2.3841    0.4070 C   0  0  0  0  0  0  0  0  0  0  0  0
   -0.5845    1.7819   -1.5932 C   0  0  0  0  0  0  0  0  0  0  0  0
    4.8976    1.0160   -0.1728 C   0  0  0  0  0  0  0  0  0  0  0  0
    3.0243   -0.6457    0.1084 C   0  0  0  0  0  0  0  0  0  0  0  0
   -0.2382   -3.9752    1.3947 C   0  0  0  0  0  0  0  0  0  0  0  0
    1.0812   -3.4977    1.2348 C   0  0  0  0  0  0  0  0  0  0  0  0
   -3.5167    1.1009    0.5993 C   0  0  0  0  0  0  0  0  0  0  0  0
   -0.7398    3.5102    0.0850 C   0  0  0  0  0  0  0  0  0  0  0  0
   -0.0970    2.9530   -1.0209 C   0  0  0  0  0  0  0  0  0  0  0  0
   -2.5401    3.4481    1.7456 C   0  0  0  0  0  0  0  0  0  0  0  0
   -4.1596    1.6583    1.7050 C   0  0  0  0  0  0  0  0  0  0  0  0
   -3.6722    2.8297    2.2770 C   0  0  0  0  0  0  0  0  0  0  0  0
    6.7037    2.5550   -0.5499 C   0  0  0  0  0  0  0  0  0  0  0  0
    6.9389    0.8019    1.0761 C   0  0  0  0  0  0  0  0  0  0  0  0
    0.7211   -0.8148   -0.9962 H   0  0  0  0  0  0  0  0  0  0  0  0
   -3.9109   -2.3693   -0.4949 H   0  0  0  0  0  0  0  0  0  0  0  0
    4.9789   -1.0949   -0.6752 H   0  0  0  0  0  0  0  0  0  0  0  0
    4.9098   -0.7985    1.0518 H   0  0  0  0  0  0  0  0  0  0  0  0
   -0.0550    1.3801   -2.4517 H   0  0  0  0  0  0  0  0  0  0  0  0
    4.4425    1.6600    0.5914 H   0  0  0  0  0  0  0  0  0  0  0  0
    4.4719    1.3128   -1.1399 H   0  0  0  0  0  0  0  0  0  0  0  0
    2.6579   -0.3302   -0.8739 H   0  0  0  0  0  0  0  0  0  0  0  0
    2.5673   -0.0313    0.8938 H   0  0  0  0  0  0  0  0  0  0  0  0
   -0.4799   -4.8196    2.0263 H   0  0  0  0  0  0  0  0  0  0  0  0
    1.8779   -4.0094    1.7749 H   0  0  0  0  0  0  0  0  0  0  0  0
   -3.9456    0.1764    0.2386 H   0  0  0  0  0  0  0  0  0  0  0  0
   -0.3410    4.4260    0.5164 H   0  0  0  0  0  0  0  0  0  0  0  0
    0.7851    3.4337   -1.4339 H   0  0  0  0  0  0  0  0  0  0  0  0
   -2.1764    4.3627    2.2093 H   0  0  0  0  0  0  0  0  0  0  0  0
   -5.0370    1.1745    2.1244 H   0  0  0  0  0  0  0  0  0  0  0  0
   -4.1721    3.2622    3.1389 H   0  0  0  0  0  0  0  0  0  0  0  0
    7.7910    2.6625   -0.6322 H   0  0  0  0  0  0  0  0  0  0  0  0
    6.3404    3.2724    0.1950 H   0  0  0  0  0  0  0  0  0  0  0  0
    6.2886    2.8304   -1.5259 H   0  0  0  0  0  0  0  0  0  0  0  0
    6.4564    1.3034    1.9231 H   0  0  0  0  0  0  0  0  0  0  0  0
    8.0029    1.0681    1.0965 H   0  0  0  0  0  0  0  0  0  0  0  0
    6.9188   -0.2801    1.2368 H   0  0  0  0  0  0  0  0  0  0  0  0
  1  3  2  0  0  0  0
  1  4  2  0  0  0  0
  1  8  1  0  0  0  0
  1 10  1  0  0  0  0
  2 16  1  0  0  0  0
  2 19  1  0  0  0  0
  5  6  1  0  0  0  0
  5  8  1  0  0  0  0
  5 31  1  0  0  0  0
  6 12  2  0  0  0  0
  7 18  1  0  0  0  0
  7 28  1  0  0  0  0
  7 29  1  0  0  0  0
  8  9  2  0  0  0  0
  9 12  1  0  0  0  0
  9 13  1  0  0  0  0
 10 11  1  0  0  0  0
 10 17  2  0  0  0  0
 11 14  1  0  0  0  0
 11 22  2  0  0  0  0
 12 20  1  0  0  0  0
 13 16  2  0  0  0  0
 13 30  1  0  0  0  0
 14 23  1  0  0  0  0
 14 25  2  0  0  0  0
 15 18  1  0  0  0  0
 15 19  1  0  0  0  0
 15 32  1  0  0  0  0
 15 33  1  0  0  0  0
 16 21  1  0  0  0  0
 17 24  1  0  0  0  0
 17 34  1  0  0  0  0
 18 35  1  0  0  0  0
 18 36  1  0  0  0  0
 19 37  1  0  0  0  0
 19 38  1  0  0  0  0
 20 21  2  0  0  0  0
 20 39  1  0  0  0  0
 21 40  1  0  0  0  0
 22 26  1  0  0  0  0
 22 41  1  0  0  0  0
 23 24  2  0  0  0  0
 23 42  1  0  0  0  0
 24 43  1  0  0  0  0
 25 27  1  0  0  0  0
 25 44  1  0  0  0  0
 26 27  2  0  0  0  0
 26 45  1  0  0  0  0
 27 46  1  0  0  0  0
 28 47  1  0  0  0  0
 28 48  1  0  0  0  0
 28 49  1  0  0  0  0
 29 50  1  0  0  0  0
 29 51  1  0  0  0  0
 29 52  1  0  0  0  0
M  END
> <DATABASE_ID>
DB12229

> <DATABASE_NAME>
drugbank

> <ORIGINAL_SOURCE>
PUBCHEM

> <ORIGINAL_SOURCE_URL>
https://pubchem.ncbi.nlm.nih.gov/rest/pug/compound/inchikey/NXQGEDVQXVTCDA-UHFFFAOYSA-N/SDF?record_type=3d

> <SMILES>
CN(C)CCCOC1=CC=C2NN=C(C2=C1)S(=O)(=O)C1=C2C=CC=CC2=CC=C1

> <INCHI_IDENTIFIER>
InChI=1S/C22H23N3O3S/c1-25(2)13-6-14-28-17-11-12-20-19(15-17)22(24-23-20)29(26,27)21-10-5-8-16-7-3-4-9-18(16)21/h3-5,7-12,15H,6,13-14H2,1-2H3,(H,23,24)

> <INCHI_KEY>
NXQGEDVQXVTCDA-UHFFFAOYSA-N

> <FORMULA>
C22H23N3O3S

> <MOLECULAR_WEIGHT>
409.5

> <EXACT_MASS>
409.146012787

> <JCHEM_ACCEPTOR_COUNT>
5

> <JCHEM_ATOM_COUNT>
52

> <JCHEM_AVERAGE_POLARIZABILITY>
43.35584746418101

> <JCHEM_BIOAVAILABILITY>
1

> <JCHEM_DONOR_COUNT>
1

> <JCHEM_FORMAL_CHARGE>
0

> <JCHEM_GHOSE_FILTER>
1

> <JCHEM_IUPAC>
dimethyl(3-{[3-(naphthalene-1-sulfonyl)-1H-indazol-5-yl]oxy}propyl)amine

> <ALOGPS_LOGP>
3.40

> <JCHEM_LOGP>
3.489289771861758

> <ALOGPS_LOGS>
-4.93

> <JCHEM_MDDR_LIKE_RULE>
1

> <JCHEM_NUMBER_OF_RINGS>
4

> <JCHEM_PHYSIOLOGICAL_CHARGE>
1

> <JCHEM_PKA_STRONGEST_ACIDIC>
9.131654454348807

> <JCHEM_PKA_STRONGEST_BASIC>
7.833012583150331

> <JCHEM_POLAR_SURFACE_AREA>
75.28999999999999

> <JCHEM_REFRACTIVITY>
115.71669999999999

> <JCHEM_ROTATABLE_BOND_COUNT>
7

> <JCHEM_RULE_OF_FIVE>
1

> <ALOGPS_SOLUBILITY>
4.76e-03 g/l

> <JCHEM_TRADITIONAL_IUPAC>
cerlapirdine

> <JCHEM_VEBER_RULE>
0

> <DRUGBANK_ID>
DB12229

> <DRUG_GROUPS>
investigational

> <GENERIC_NAME>
Cerlapirdine

> <SALTS>
Cerlapirdine Hydrochloride

$$$$
