REMARK  Name = 5282203
REMARK  4 active torsions:
REMARK  status: ('A' for Active; 'I' for Inactive)
REMARK    1  A    between atoms: C_1  and  C_14
REMARK    2  A    between atoms: C_2  and  C_15
REMARK    3  A    between atoms: C_15  and  C_18
REMARK    4  A    between atoms: C_18  and  O_19
REMARK                            x       y       z     vdW  Elec       q    Type
REMARK                         _______ _______ _______ _____ _____    ______ ____
ROOT
ATOM      1  C   UNL     1      -0.266   0.560  -0.215  0.00  0.00    -0.000 C 
ATOM      2  C   UNL     1       2.370  -0.299  -0.208  0.00  0.00    -0.012 C 
ATOM      3  C   UNL     1       0.507   0.746   0.921  0.00  0.00    -0.000 C 
ATOM      4  C   UNL     1       0.254  -0.048  -1.347  0.00  0.00    -0.000 C 
ATOM      5  C   UNL     1       1.833   0.314   0.924  0.00  0.00    -0.004 C 
ATOM      6  C   UNL     1       1.580  -0.479  -1.344  0.00  0.00    -0.004 C 
ENDROOT
BRANCH   1  14
ATOM      7  O   UNL     1      -4.236   2.119   0.276  0.00  0.00    -0.292 OA
ATOM      8  C   UNL     1      -3.758  -1.992  -0.061  0.00  0.00    +0.005 C 
ATOM      9  C   UNL     1      -5.128  -1.377   0.205  0.00  0.00    +0.008 C 
ATOM     10  C   UNL     1      -2.654  -1.149   0.571  0.00  0.00    +0.029 C 
ATOM     11  C   UNL     1      -5.229   0.033  -0.362  0.00  0.00    +0.069 C 
ATOM     12  C   UNL     1      -2.728   0.283   0.135  0.00  0.00    +0.012 C 
ATOM     13  C   UNL     1      -4.077   0.918   0.068  0.00  0.00    +0.169 C 
ATOM     14  C   UNL     1      -1.665   1.017  -0.218  0.00  0.00    -0.001 C 
ENDBRANCH   1  14
BRANCH   2  15
ATOM     15  C   UNL     1       3.788  -0.760  -0.204  0.00  0.00    +0.121 C 
ATOM     16  C   UNL     1       4.087  -1.839   0.856  0.00  0.00    +0.016 C 
BRANCH  15  18
ATOM     17  O   UNL     1       4.461   1.567   0.108  0.00  0.00    -0.250 OA
ATOM     18  C   UNL     1       4.782   0.395  -0.035  0.00  0.00    +0.317 C 
BRANCH  18  19
ATOM     19  O   UNL     1       6.080  -0.009  -0.067  0.00  0.00    -0.480 OA
ATOM     20  H   UNL     1       6.285  -0.917  -0.178  0.00  0.00    +0.295 HD
ENDBRANCH  18  19
ENDBRANCH  15  18
ENDBRANCH   2  15
TORSDOF 4
