REMARK  Name = 49843471
REMARK  4 active torsions:
REMARK  status: ('A' for Active; 'I' for Inactive)
REMARK    1  A    between atoms: N_3  and  C_27
REMARK    2  A    between atoms: C_12  and  C_17
REMARK    3  A    between atoms: C_27  and  C_29
REMARK    4  A    between atoms: C_29  and  O_30
REMARK                            x       y       z     vdW  Elec       q    Type
REMARK                         _______ _______ _______ _____ _____    ______ ____
ROOT
ATOM      1  F   UNL     1      -2.351   4.646  -1.076  0.00  0.00    -0.204 F 
ATOM      2  O   UNL     1       2.586  -3.145  -0.264  0.00  0.00    -0.270 OA
ATOM      3  N   UNL     1      -2.873  -0.544   0.556  0.00  0.00    -0.321 N 
ATOM      4  N   UNL     1       0.824  -1.710  -0.822  0.00  0.00    -0.272 N 
ATOM      5  C   UNL     1      -1.712  -1.084   0.088  0.00  0.00    +0.037 A 
ATOM      6  C   UNL     1      -0.985  -0.099  -0.546  0.00  0.00    +0.011 A 
ATOM      7  C   UNL     1      -1.287  -2.496   0.248  0.00  0.00    +0.065 C 
ATOM      8  C   UNL     1       0.340  -0.351  -1.181  0.00  0.00    +0.122 C 
ATOM      9  C   UNL     1      -0.187  -2.788  -0.785  0.00  0.00    +0.100 C 
ATOM     10  C   UNL     1      -1.746   1.102  -0.463  0.00  0.00    +0.017 A 
ATOM     11  C   UNL     1      -2.922   0.796   0.232  0.00  0.00    +0.060 A 
ATOM     12  C   UNL     1       2.163  -2.029  -0.563  0.00  0.00    +0.249 C 
ATOM     13  C   UNL     1      -1.551   2.424  -0.912  0.00  0.00    +0.031 C 
ATOM     14  C   UNL     1      -3.909   1.751   0.499  0.00  0.00    +0.019 C 
ATOM     15  C   UNL     1      -2.532   3.388  -0.651  0.00  0.00    +0.140 C 
ATOM     16  C   UNL     1      -3.692   3.054   0.044  0.00  0.00    +0.031 C 
ENDROOT
BRANCH  12  17
ATOM     17  C   UNL     1       3.163  -0.955  -0.658  0.00  0.00    +0.054 C 
ATOM     18  C   UNL     1       3.514  -0.152   0.439  0.00  0.00    +0.004 C 
ATOM     19  C   UNL     1       3.762  -0.761  -1.903  0.00  0.00    +0.005 C 
ATOM     20  C   UNL     1       4.487   0.863   0.271  0.00  0.00    +0.000 C 
ATOM     21  C   UNL     1       2.922  -0.333   1.700  0.00  0.00    +0.000 C 
ATOM     22  C   UNL     1       4.718   0.237  -2.068  0.00  0.00    +0.000 C 
ATOM     23  C   UNL     1       5.079   1.044  -0.989  0.00  0.00    +0.000 C 
ATOM     24  C   UNL     1       4.838   1.666   1.369  0.00  0.00    +0.000 C 
ATOM     25  C   UNL     1       3.283   0.474   2.779  0.00  0.00    +0.000 C 
ATOM     26  C   UNL     1       4.239   1.472   2.614  0.00  0.00    +0.000 C 
ENDBRANCH  12  17
BRANCH   3  27
ATOM     27  C   UNL     1      -3.895  -1.259   1.290  0.00  0.00    +0.216 C 
BRANCH  27  29
ATOM     28  O   UNL     1      -5.189  -1.262  -0.747  0.00  0.00    -0.248 OA
ATOM     29  C   UNL     1      -5.073  -1.612   0.421  0.00  0.00    +0.337 C 
BRANCH  29  30
ATOM     30  O   UNL     1      -6.013  -2.336   1.079  0.00  0.00    -0.479 OA
ATOM     31  H   UNL     1      -5.875  -2.579   1.973  0.00  0.00    +0.295 HD
ENDBRANCH  29  30
ENDBRANCH  27  29
ENDBRANCH   3  27
TORSDOF 4
