REMARK  Name = 72276
REMARK  6 active torsions:
REMARK  status: ('A' for Active; 'I' for Inactive)
REMARK    1  A    between atoms: C_2  and  O_21
REMARK    2  A    between atoms: C_3  and  C_11
REMARK    3  A    between atoms: C_7  and  O_23
REMARK    4  A    between atoms: C_10  and  O_25
REMARK    5  A    between atoms: C_14  and  O_17
REMARK    6  A    between atoms: C_16  and  O_19
REMARK                            x       y       z     vdW  Elec       q    Type
REMARK                         _______ _______ _______ _____ _____    ______ ____
ROOT
ATOM      1  O   UNL     1       0.455   0.757  -0.111  0.00  0.00    -0.472 OA
ATOM      2  C   UNL     1       0.053  -1.612   0.433  0.00  0.00    +0.159 C 
ATOM      3  C   UNL     1      -0.371  -0.386  -0.387  0.00  0.00    +0.215 C 
ATOM      4  C   UNL     1       1.488  -1.992   0.073  0.00  0.00    +0.066 C 
ATOM      5  C   UNL     1       2.360  -0.770  -0.037  0.00  0.00    +0.048 C 
ATOM      6  C   UNL     1       1.804   0.513  -0.130  0.00  0.00    +0.141 C 
ATOM      7  C   UNL     1       3.753  -0.912  -0.067  0.00  0.00    +0.136 C 
ATOM      8  C   UNL     1       2.632   1.636  -0.211  0.00  0.00    +0.073 C 
ATOM      9  C   UNL     1       4.578   0.210  -0.162  0.00  0.00    +0.073 C 
ATOM     10  C   UNL     1       4.017   1.483  -0.230  0.00  0.00    +0.140 C 
ENDROOT
BRANCH   3  11
ATOM     11  C   UNL     1      -1.827  -0.027  -0.154  0.00  0.00    +0.023 C 
ATOM     12  C   UNL     1      -2.819  -0.593  -0.953  0.00  0.00    +0.039 C 
ATOM     13  C   UNL     1      -2.169   0.868   0.858  0.00  0.00    +0.003 C 
ATOM     14  C   UNL     1      -4.157  -0.263  -0.740  0.00  0.00    +0.167 C 
ATOM     15  C   UNL     1      -3.508   1.199   1.071  0.00  0.00    +0.040 C 
ATOM     16  C   UNL     1      -4.501   0.633   0.273  0.00  0.00    +0.167 C 
BRANCH  14  17
ATOM     17  O   UNL     1      -5.119  -0.823  -1.525  0.00  0.00    -0.503 OA
ATOM     18  H   UNL     1      -4.879  -1.423  -2.203  0.00  0.00    +0.292 HD
ENDBRANCH  14  17
BRANCH  16  19
ATOM     19  O   UNL     1      -5.805   0.963   0.491  0.00  0.00    -0.503 OA
ATOM     20  H   UNL     1      -6.479   0.588  -0.041  0.00  0.00    +0.292 HD
ENDBRANCH  16  19
ENDBRANCH   3  11
BRANCH   2  21
ATOM     21  O   UNL     1      -0.020  -1.318   1.828  0.00  0.00    -0.380 OA
ATOM     22  H   UNL     1      -0.930  -1.076   2.061  0.00  0.00    +0.211 HD
ENDBRANCH   2  21
BRANCH   7  23
ATOM     23  O   UNL     1       4.333  -2.145  -0.004  0.00  0.00    -0.506 OA
ATOM     24  H   UNL     1       3.798  -2.912   0.060  0.00  0.00    +0.292 HD
ENDBRANCH   7  23
BRANCH  10  25
ATOM     25  O   UNL     1       4.822   2.578  -0.317  0.00  0.00    -0.505 OA
ATOM     26  H   UNL     1       4.444   3.434  -0.362  0.00  0.00    +0.292 HD
ENDBRANCH  10  25
TORSDOF 6
