REMARK  Name = 10131048
REMARK  1 active torsions:
REMARK  status: ('A' for Active; 'I' for Inactive)
REMARK    1  A    between atoms: N_2  and  C_13
REMARK                            x       y       z     vdW  Elec       q    Type
REMARK                         _______ _______ _______ _____ _____    ______ ____
ROOT
ATOM      1  N   UNL     1       4.066   0.999   0.533  0.00  0.00    +0.386 N 
ATOM      2  N   UNL     1       1.005  -0.150  -0.244  0.00  0.00    -0.309 N 
ATOM      3  C   UNL     1       3.292  -0.807  -0.272  0.00  0.00    -0.019 C 
ATOM      4  C   UNL     1       3.210   0.682  -0.623  0.00  0.00    -0.042 C 
ATOM      5  C   UNL     1       3.850  -0.347   1.090  0.00  0.00    -0.082 C 
ATOM      6  C   UNL     1       1.863  -1.329  -0.309  0.00  0.00    +0.087 C 
ATOM      7  C   UNL     1       1.748   1.092  -0.446  0.00  0.00    +0.070 C 
ATOM      8  H   UNL     1       3.706   1.752   1.120  0.00  0.00    -0.084 HD
ATOM      9  H   UNL     1       5.015   1.342   0.385  0.00  0.00    -0.084 HD
ENDROOT
BRANCH   2  13
ATOM     10 CL   UNL     1      -3.489   2.308   0.114  0.00  0.00    -0.080 Cl
ATOM     11 CL   UNL     1      -4.822  -0.668   0.238  0.00  0.00    -0.060 Cl
ATOM     12  N   UNL     1      -2.416  -1.553   0.044  0.00  0.00    -0.230 NA
ATOM     13  C   UNL     1      -0.370  -0.208  -0.130  0.00  0.00    +0.068 C 
ATOM     14  C   UNL     1      -1.177   0.950  -0.070  0.00  0.00    +0.030 C 
ATOM     15  C   UNL     1      -1.075  -1.426  -0.067  0.00  0.00    +0.114 C 
ATOM     16  C   UNL     1      -2.560   0.861   0.044  0.00  0.00    +0.087 C 
ATOM     17  C   UNL     1      -3.126  -0.403   0.097  0.00  0.00    +0.149 C 
ENDBRANCH   2  13
TORSDOF 1
