REMARK  Name = 60703
REMARK  6 active torsions:
REMARK  status: ('A' for Active; 'I' for Inactive)
REMARK    1  A    between atoms: N_1  and  C_16
REMARK    2  A    between atoms: C_2  and  C_8
REMARK    3  A    between atoms: C_8  and  C_10
REMARK    4  A    between atoms: C_16  and  C_17
REMARK    5  A    between atoms: C_17  and  C_19
REMARK    6  A    between atoms: C_17  and  O_25
REMARK                            x       y       z     vdW  Elec       q    Type
REMARK                         _______ _______ _______ _____ _____    ______ ____
ROOT
ATOM      1  N   UNL     1       0.680  -1.184   0.062  0.00  0.00    +0.389 N 
ATOM      2  C   UNL     1      -2.240  -1.178   0.322  0.00  0.00    +0.000 C 
ATOM      3  C   UNL     1      -1.507  -0.349  -0.738  0.00  0.00    -0.023 C 
ATOM      4  C   UNL     1      -1.381  -2.382   0.723  0.00  0.00    -0.023 C 
ATOM      5  C   UNL     1      -0.094   0.017  -0.280  0.00  0.00    -0.077 C 
ATOM      6  C   UNL     1       0.028  -1.949   1.133  0.00  0.00    -0.077 C 
ATOM      7  H   UNL     1       0.723  -1.777  -0.767  0.00  0.00    -0.080 HD
ENDROOT
BRANCH   2   8
ATOM      8  C   UNL     1      -3.610  -1.625  -0.181  0.00  0.00    +0.026 C 
BRANCH   8  10
ATOM      9  F   UNL     1      -7.393   2.518   0.151  0.00  0.00    -0.204 F 
ATOM     10  C   UNL     1      -4.622  -0.516  -0.092  0.00  0.00    -0.022 C 
ATOM     11  C   UNL     1      -5.376  -0.368   1.064  0.00  0.00    -0.002 C 
ATOM     12  C   UNL     1      -4.790   0.346  -1.168  0.00  0.00    -0.002 C 
ATOM     13  C   UNL     1      -6.315   0.660   1.147  0.00  0.00    +0.029 C 
ATOM     14  C   UNL     1      -5.728   1.375  -1.085  0.00  0.00    +0.029 C 
ATOM     15  C   UNL     1      -6.491   1.532   0.072  0.00  0.00    +0.140 C 
ENDBRANCH   8  10
ENDBRANCH   2   8
BRANCH   1  16
ATOM     16  C   UNL     1       2.043  -0.821   0.448  0.00  0.00    -0.043 C 
BRANCH  16  17
ATOM     17  C   UNL     1       2.771  -0.123  -0.707  0.00  0.00    +0.112 C 
BRANCH  17  19
ATOM     18 CL   UNL     1       8.375   1.393   0.815  0.00  0.00    -0.082 Cl
ATOM     19  C   UNL     1       4.183   0.259  -0.323  0.00  0.00    +0.002 C 
ATOM     20  C   UNL     1       4.417   1.500   0.245  0.00  0.00    -0.001 C 
ATOM     21  C   UNL     1       5.212  -0.640  -0.547  0.00  0.00    -0.001 C 
ATOM     22  C   UNL     1       5.720   1.852   0.598  0.00  0.00    +0.011 C 
ATOM     23  C   UNL     1       6.514  -0.288  -0.194  0.00  0.00    +0.011 C 
ATOM     24  C   UNL     1       6.768   0.958   0.379  0.00  0.00    +0.058 C 
ENDBRANCH  17  19
BRANCH  17  25
ATOM     25  O   UNL     1       2.835  -0.984  -1.843  0.00  0.00    -0.382 OA
ATOM     26  H   UNL     1       1.937  -1.241  -2.106  0.00  0.00    +0.211 HD
ENDBRANCH  17  25
ENDBRANCH  16  17
ENDBRANCH   1  16
TORSDOF 6
