REMARK  Name = 6918736
REMARK  12 active torsions:
REMARK  status: ('A' for Active; 'I' for Inactive)
REMARK    1  A    between atoms: S_1  and  C_4
REMARK    2  A    between atoms: S_1  and  C_18
REMARK    3  A    between atoms: C_5  and  C_6
REMARK    4  A    between atoms: C_7  and  O_12
REMARK    5  A    between atoms: C_8  and  O_14
REMARK    6  A    between atoms: C_11  and  O_16
REMARK    7  A    between atoms: C_18  and  C_19
REMARK    8  A    between atoms: C_21  and  N_27
REMARK    9  A    between atoms: C_23  and  O_25
REMARK   10  A    between atoms: N_27  and  C_29
REMARK   11  A    between atoms: C_29  and  C_31
REMARK   12  A    between atoms: C_31  and  O_32
REMARK                            x       y       z     vdW  Elec       q    Type
REMARK                         _______ _______ _______ _____ _____    ______ ____
ROOT
ATOM      1  S   UNL     1       0.123  -0.734   0.336  0.00  0.00    +0.014 S 
ATOM      2  O   UNL     1       0.584   0.461   1.022  0.00  0.00    -0.168 OA
ATOM      3  O   UNL     1       0.181  -2.027   0.996  0.00  0.00    -0.168 OA
ENDROOT
BRANCH   1   4
ATOM      4  C   UNL     1      -1.474  -0.469  -0.250  0.00  0.00    +0.123 C 
ATOM      5  C   UNL     1      -2.456  -0.320   0.660  0.00  0.00    +0.026 C 
BRANCH   5   6
ATOM      6  C   UNL     1      -3.862  -0.080   0.351  0.00  0.00    +0.069 C 
ATOM      7  C   UNL     1      -4.330   1.226   0.201  0.00  0.00    +0.145 C 
ATOM      8  C   UNL     1      -4.738  -1.155   0.206  0.00  0.00    +0.145 C 
ATOM      9  C   UNL     1      -5.673   1.455  -0.095  0.00  0.00    +0.074 C 
ATOM     10  C   UNL     1      -6.081  -0.926  -0.090  0.00  0.00    +0.074 C 
ATOM     11  C   UNL     1      -6.549   0.379  -0.240  0.00  0.00    +0.145 C 
BRANCH   7  12
ATOM     12  O   UNL     1      -3.497   2.297   0.337  0.00  0.00    -0.471 OA
ATOM     13  C   UNL     1      -4.072   3.590   0.164  0.00  0.00    +0.252 C 
ENDBRANCH   7  12
BRANCH   8  14
ATOM     14  O   UNL     1      -4.309  -2.442   0.347  0.00  0.00    -0.471 OA
ATOM     15  C   UNL     1      -5.282  -3.470   0.180  0.00  0.00    +0.252 C 
ENDBRANCH   8  14
BRANCH  11  16
ATOM     16  O   UNL     1      -7.861   0.603  -0.528  0.00  0.00    -0.471 OA
ATOM     17  C   UNL     1      -8.272   1.962  -0.669  0.00  0.00    +0.252 C 
ENDBRANCH  11  16
ENDBRANCH   5   6
ENDBRANCH   1   4
BRANCH   1  18
ATOM     18  C   UNL     1       1.065  -0.870  -1.163  0.00  0.00    +0.182 C 
BRANCH  18  19
ATOM     19  C   UNL     1       2.494  -1.106  -0.783  0.00  0.00    +0.003 C 
ATOM     20  C   UNL     1       3.353  -0.024  -0.593  0.00  0.00    +0.015 C 
ATOM     21  C   UNL     1       4.685  -0.243  -0.239  0.00  0.00    +0.079 C 
ATOM     22  C   UNL     1       2.966  -2.408  -0.619  0.00  0.00    +0.001 C 
ATOM     23  C   UNL     1       5.157  -1.546  -0.075  0.00  0.00    +0.152 C 
ATOM     24  C   UNL     1       4.298  -2.628  -0.265  0.00  0.00    +0.038 C 
BRANCH  23  25
ATOM     25  O   UNL     1       6.454  -1.782   0.271  0.00  0.00    -0.470 OA
ATOM     26  C   UNL     1       6.847  -3.145   0.416  0.00  0.00    +0.253 C 
ENDBRANCH  23  25
BRANCH  21  27
ATOM     27  N   UNL     1       5.543   0.861  -0.050  0.00  0.00    -0.321 N 
ATOM     28  H   UNL     1       6.480   0.692   0.200  0.00  0.00    +0.147 HD
BRANCH  27  29
ATOM     29  C   UNL     1       5.111   2.215  -0.204  0.00  0.00    +0.198 C 
BRANCH  29  31
ATOM     30  O   UNL     1       7.440   2.832  -0.155  0.00  0.00    -0.248 OA
ATOM     31  C   UNL     1       6.271   3.136   0.041  0.00  0.00    +0.334 C 
BRANCH  31  32
ATOM     32  O   UNL     1       5.884   4.357   0.490  0.00  0.00    -0.479 OA
ATOM     33  H   UNL     1       4.975   4.540   0.624  0.00  0.00    +0.295 HD
ENDBRANCH  31  32
ENDBRANCH  29  31
ENDBRANCH  27  29
ENDBRANCH  21  27
ENDBRANCH  18  19
ENDBRANCH   1  18
TORSDOF 12
