REMARK  Name = 4266
REMARK  2 active torsions:
REMARK  status: ('A' for Active; 'I' for Inactive)
REMARK    1  A    between atoms: C_4  and  C_8
REMARK    2  A    between atoms: C_8  and  N_9
REMARK                            x       y       z     vdW  Elec       q    Type
REMARK                         _______ _______ _______ _____ _____    ______ ____
ROOT
ATOM      1  O   UNL     1      -0.330   1.129  -0.196  0.00  0.00    -0.390 OA
ATOM      2  O   UNL     1       2.747  -0.445   0.208  0.00  0.00    -0.267 OA
ATOM      3  N   UNL     1       1.072   1.167  -0.037  0.00  0.00    -0.144 N 
ATOM      4  C   UNL     1      -0.598  -0.231  -0.180  0.00  0.00    +0.130 C 
ATOM      5  C   UNL     1       0.456  -1.030  -0.032  0.00  0.00    +0.094 C 
ATOM      6  C   UNL     1       1.585  -0.104   0.065  0.00  0.00    +0.280 C 
ATOM      7  H   UNL     1       1.610   1.991  -0.004  0.00  0.00    +0.196 HD
ENDROOT
BRANCH   4   8
ATOM      8  C   UNL     1      -2.018  -0.641  -0.330  0.00  0.00    -0.017 C 
BRANCH   8   9
ATOM      9  N   UNL     1      -2.915   0.155   0.501  0.00  0.00    +0.385 N 
ATOM     10  H   UNL     1      -3.875  -0.162   0.365  0.00  0.00    -0.089 HD
ATOM     11  H   UNL     1      -2.841   1.137   0.238  0.00  0.00    -0.089 HD
ATOM     12  H   UNL     1      -2.657   0.045   1.482  0.00  0.00    -0.089 HD
ENDBRANCH   8   9
ENDBRANCH   4   8
TORSDOF 2
