REMARK  Name = 65150
REMARK  10 active torsions:
REMARK  status: ('A' for Active; 'I' for Inactive)
REMARK    1  A    between atoms: C_1  and  O_2
REMARK    2  A    between atoms: C_1  and  C_4
REMARK    3  A    between atoms: C_1  and  CA_13
REMARK    4  A    between atoms: C_4  and  O_5
REMARK    5  A    between atoms: C_4  and  C_7
REMARK    6  A    between atoms: C_7  and  O_8
REMARK    7  A    between atoms: C_7  and  C_10
REMARK    8  A    between atoms: C_10  and  O_11
REMARK    9  A    between atoms: CA_13  and  N_15
REMARK   10  A    between atoms: CA_13  and  C_20
REMARK                            x       y       z     vdW  Elec       q    Type
REMARK                         _______ _______ _______ _____ _____    ______ ____
ROOT
ATOM      1  C   UNL     1       0.086   0.518  -0.702  0.00  0.00    +0.165 C 
ENDROOT
BRANCH   1   2
ATOM      2  O   UNL     1      -0.427   1.564  -1.538  0.00  0.00    -0.380 OA
ATOM      3  H   UNL     1       0.172   1.701  -2.289  0.00  0.00    +0.211 HD
ENDBRANCH   1   2
BRANCH   1   4
ATOM      4  C   UNL     1       1.529   0.893  -0.309  0.00  0.00    +0.168 C 
BRANCH   4   5
ATOM      5  O   UNL     1       2.241   1.167  -1.523  0.00  0.00    -0.379 OA
ATOM      6  H   UNL     1       1.762   1.837  -2.035  0.00  0.00    +0.211 HD
ENDBRANCH   4   5
BRANCH   4   7
ATOM      7  C   UNL     1       2.297  -0.170   0.495  0.00  0.00    +0.169 C 
BRANCH   7   8
ATOM      8  O   UNL     1       3.647   0.248   0.699  0.00  0.00    -0.379 OA
ATOM      9  H   UNL     1       3.655   1.103   1.158  0.00  0.00    +0.211 HD
ENDBRANCH   7   8
BRANCH   7  10
ATOM     10  C   UNL     1       2.340  -1.515  -0.229  0.00  0.00    +0.169 C 
BRANCH  10  11
ATOM     11  O   UNL     1       3.091  -2.437   0.556  0.00  0.00    -0.379 OA
ATOM     12  H   UNL     1       3.124  -3.294   0.104  0.00  0.00    +0.211 HD
ENDBRANCH  10  11
ENDBRANCH   7  10
ENDBRANCH   4   7
ENDBRANCH   1   4
BRANCH   1  13
ATOM     13  CA  UNL     1      -0.881   0.325   0.474  0.00  0.00    +0.166 C 
BRANCH  13  15
ATOM     14  O   UNL     1      -2.131  -2.267   0.088  0.00  0.00    -0.275 OA
ATOM     15  N   UNL     1      -2.237   0.059   0.061  0.00  0.00    -0.297 N 
ATOM     16  C   UNL     1      -2.747  -1.221  -0.097  0.00  0.00    +0.223 C 
ATOM     17  C   UNL     1      -4.194  -1.214  -0.510  0.00  0.00    +0.095 C 
ATOM     18  H   UNL     1      -2.830   0.824  -0.118  0.00  0.00    +0.150 HD
ENDBRANCH  13  15
BRANCH  13  20
ATOM     19  O   UNL     1      -1.687   2.498   1.171  0.00  0.00    -0.286 OA
ATOM     20  C   UNL     1      -0.928   1.552   1.365  0.00  0.00    +0.229 C 
ENDBRANCH  13  20
ENDBRANCH   1  13
TORSDOF 10
