REMARK  Name = 11988953
REMARK  11 active torsions:
REMARK  status: ('A' for Active; 'I' for Inactive)
REMARK    1  A    between atoms: C_1  and  C_11
REMARK    2  A    between atoms: C_3  and  O_23
REMARK    3  A    between atoms: C_4  and  C_25
REMARK    4  A    between atoms: C_9  and  O_14
REMARK    5  A    between atoms: C_10  and  O_16
REMARK    6  A    between atoms: C_12  and  O_18
REMARK    7  A    between atoms: C_13  and  C_20
REMARK    8  A    between atoms: C_20  and  O_21
REMARK    9  A    between atoms: C_25  and  C_26
REMARK   10  A    between atoms: C_31  and  O_32
REMARK   11  A    between atoms: O_32  and  C_33
REMARK                            x       y       z     vdW  Elec       q    Type
REMARK                         _______ _______ _______ _____ _____    ______ ____
ROOT
ATOM      1  C   UNL     1      -1.331   1.123  -0.206  0.00  0.00    +0.024 C 
ATOM      2  C   UNL     1      -0.352   0.773   0.722  0.00  0.00    -0.005 C 
ATOM      3  C   UNL     1      -1.197   2.285  -0.963  0.00  0.00    +0.135 C 
ATOM      4  C   UNL     1       0.766   1.588   0.892  0.00  0.00    -0.022 C 
ATOM      5  C   UNL     1       0.903   2.752   0.136  0.00  0.00    -0.022 C 
ATOM      6  C   UNL     1      -0.079   3.100  -0.792  0.00  0.00    +0.032 C 
ATOM      7  C   UNL     1       2.092   3.641   0.301  0.00  0.00    +0.031 C 
ENDROOT
BRANCH   1  11
ATOM      8  S   UNL     1      -3.519   0.196   1.169  0.00  0.00    -0.130 S 
ATOM      9  C   UNL     1      -2.184  -1.202  -0.833  0.00  0.00    +0.154 C 
ATOM     10  C   UNL     1      -3.399  -2.108  -1.066  0.00  0.00    +0.166 C 
ATOM     11  C   UNL     1      -2.545   0.223  -0.378  0.00  0.00    +0.102 C 
ATOM     12  C   UNL     1      -4.339  -2.235   0.138  0.00  0.00    +0.152 C 
ATOM     13  C   UNL     1      -4.881  -0.889   0.633  0.00  0.00    +0.107 C 
BRANCH   9  14
ATOM     14  O   UNL     1      -1.471  -1.114  -2.076  0.00  0.00    -0.381 OA
ATOM     15  H   UNL     1      -1.235  -2.006  -2.378  0.00  0.00    +0.210 HD
ENDBRANCH   9  14
BRANCH  10  16
ATOM     16  O   UNL     1      -2.896  -3.415  -1.377  0.00  0.00    -0.380 OA
ATOM     17  H   UNL     1      -2.297  -3.359  -2.138  0.00  0.00    +0.211 HD
ENDBRANCH  10  16
BRANCH  12  18
ATOM     18  O   UNL     1      -5.437  -3.051  -0.289  0.00  0.00    -0.381 OA
ATOM     19  H   UNL     1      -5.102  -3.905  -0.604  0.00  0.00    +0.210 HD
ENDBRANCH  12  18
BRANCH  13  20
ATOM     20  C   UNL     1      -5.849  -1.043   1.807  0.00  0.00    +0.150 C 
BRANCH  20  21
ATOM     21  O   UNL     1      -6.285   0.244   2.199  0.00  0.00    -0.381 OA
ATOM     22  H   UNL     1      -6.901   0.164   2.944  0.00  0.00    +0.210 HD
ENDBRANCH  20  21
ENDBRANCH  13  20
ENDBRANCH   1  11
BRANCH   3  23
ATOM     23  O   UNL     1      -2.147   2.639  -1.873  0.00  0.00    -0.472 OA
ATOM     24  C   UNL     1      -1.927   3.845  -2.603  0.00  0.00    +0.252 C 
ENDBRANCH   3  23
BRANCH   4  25
ATOM     25  C   UNL     1       1.804   1.196   1.892  0.00  0.00    +0.052 C 
BRANCH  25  26
ATOM     26  C   UNL     1       2.901   0.319   1.324  0.00  0.00    -0.018 C 
ATOM     27  C   UNL     1       2.560  -0.740   0.502  0.00  0.00    -0.001 C 
ATOM     28  C   UNL     1       4.219   0.598   1.641  0.00  0.00    -0.001 C 
ATOM     29  C   UNL     1       3.571  -1.548  -0.020  0.00  0.00    +0.037 C 
ATOM     30  C   UNL     1       5.229  -0.209   1.118  0.00  0.00    +0.037 C 
ATOM     31  C   UNL     1       4.905  -1.282   0.288  0.00  0.00    +0.139 C 
BRANCH  31  32
ATOM     32  O   UNL     1       5.890  -2.070  -0.223  0.00  0.00    -0.475 OA
BRANCH  32  33
ATOM     33  C   UNL     1       7.157  -1.457  -0.455  0.00  0.00    +0.206 C 
ATOM     34  C   UNL     1       7.841  -2.159  -1.608  0.00  0.00    +0.051 C 
ENDBRANCH  32  33
ENDBRANCH  31  32
ENDBRANCH  25  26
ENDBRANCH   4  25
TORSDOF 11
