REMARK  Name = 59422203
REMARK  6 active torsions:
REMARK  status: ('A' for Active; 'I' for Inactive)
REMARK    1  A    between atoms: N_1  and  C_19
REMARK    2  A    between atoms: C_6  and  C_11
REMARK    3  A    between atoms: C_19  and  C_23
REMARK    4  A    between atoms: C_19  and  C_30
REMARK    5  A    between atoms: N_22  and  C_25
REMARK    6  A    between atoms: C_25  and  C_29
REMARK                            x       y       z     vdW  Elec       q    Type
REMARK                         _______ _______ _______ _____ _____    ______ ____
ROOT
ATOM      1  N   UNL     1      -2.634  -1.497   0.730  0.00  0.00    -0.303 N 
ATOM      2  N   UNL     1      -0.400  -0.950   0.249  0.00  0.00    -0.336 NA
ATOM      3  N   UNL     1       1.239  -1.014   2.014  0.00  0.00    -0.182 NA
ATOM      4  C   UNL     1      -1.330  -1.331   1.149  0.00  0.00    +0.193 C 
ATOM      5  C   UNL     1      -1.056  -1.570   2.481  0.00  0.00    +0.070 C 
ATOM      6  C   UNL     1       0.845  -0.812   0.742  0.00  0.00    +0.090 C 
ATOM      7  C   UNL     1       0.259  -1.394   2.860  0.00  0.00    +0.115 C 
ATOM      8  H   UNL     1      -3.306  -1.776   1.393  0.00  0.00    +0.150 HD
ENDROOT
BRANCH   6  11
ATOM      9  N   UNL     1       2.763   0.194  -2.128  0.00  0.00    -0.296 N 
ATOM     10  N   UNL     1       5.063   0.501  -1.479  0.00  0.00    -0.229 NA
ATOM     11  C   UNL     1       1.860  -0.408  -0.185  0.00  0.00    +0.091 C 
ATOM     12  C   UNL     1       3.247  -0.182   0.020  0.00  0.00    +0.043 C 
ATOM     13  C   UNL     1       3.780   0.191  -1.210  0.00  0.00    +0.133 C 
ATOM     14  C   UNL     1       1.591  -0.168  -1.516  0.00  0.00    +0.074 C 
ATOM     15  C   UNL     1       4.126  -0.249   1.113  0.00  0.00    +0.005 C 
ATOM     16  C   UNL     1       5.466   0.061   0.889  0.00  0.00    +0.021 C 
ATOM     17  C   UNL     1       5.864   0.419  -0.392  0.00  0.00    +0.100 C 
ATOM     18  H   UNL     1       2.859   0.421  -3.081  0.00  0.00    +0.154 HD
ENDBRANCH   6  11
BRANCH   1  19
ATOM     19  C   UNL     1      -3.065  -1.280  -0.643  0.00  0.00    +0.125 C 
ATOM     20  C   UNL     1      -4.580  -1.528  -0.687  0.00  0.00    +0.029 C 
BRANCH  19  23
ATOM     21  O   UNL     1      -2.060   0.486  -1.978  0.00  0.00    -0.273 OA
ATOM     22  N   UNL     1      -3.349   1.111  -0.165  0.00  0.00    -0.296 N 
ATOM     23  C   UNL     1      -2.763   0.182  -1.013  0.00  0.00    +0.238 C 
ATOM     24  H   UNL     1      -3.898   0.790   0.586  0.00  0.00    +0.150 HD
BRANCH  22  25
ATOM     25  C   UNL     1      -3.180   2.533  -0.350  0.00  0.00    +0.194 C 
BRANCH  25  29
ATOM     26  F   UNL     1      -1.840   4.382   0.207  0.00  0.00    -0.168 F 
ATOM     27  F   UNL     1      -2.092   2.839   1.726  0.00  0.00    -0.168 F 
ATOM     28  F   UNL     1      -0.841   2.458  -0.025  0.00  0.00    -0.168 F 
ATOM     29  C   UNL     1      -1.977   3.051   0.398  0.00  0.00    +0.415 C 
ENDBRANCH  25  29
ENDBRANCH  22  25
ENDBRANCH  19  23
BRANCH  19  30
ATOM     30  C   UNL     1      -2.336  -2.279  -1.566  0.00  0.00    +0.027 C 
ATOM     31  C   UNL     1      -2.603  -3.746  -1.241  0.00  0.00    +0.002 C 
ENDBRANCH  19  30
ENDBRANCH   1  19
TORSDOF 6
