REMARK  Name = 16124688
REMARK  3 active torsions:
REMARK  status: ('A' for Active; 'I' for Inactive)
REMARK    1  A    between atoms: N_3  and  N_16
REMARK    2  A    between atoms: C_17  and  C_19
REMARK    3  A    between atoms: C_24  and  C_28
REMARK                            x       y       z     vdW  Elec       q    Type
REMARK                         _______ _______ _______ _____ _____    ______ ____
ROOT
ATOM      1  O   UNL     1      -1.594   1.507  -1.933  0.00  0.00    -0.273 OA
ATOM      2  O   UNL     1      -1.645  -2.438   0.513  0.00  0.00    -0.273 OA
ATOM      3  N   UNL     1      -1.316  -0.495  -0.751  0.00  0.00    -0.154 N 
ATOM      4  C   UNL     1      -5.756   0.649  -0.441  0.00  0.00    +0.000 C 
ATOM      5  C   UNL     1      -5.774  -0.643   0.358  0.00  0.00    +0.000 C 
ATOM      6  C   UNL     1      -6.608   0.535   0.801  0.00  0.00    +0.000 C 
ATOM      7  C   UNL     1      -4.333   1.231  -0.486  0.00  0.00    +0.009 C 
ATOM      8  C   UNL     1      -4.363  -0.971   0.877  0.00  0.00    +0.009 C 
ATOM      9  C   UNL     1      -3.487   0.155  -1.237  0.00  0.00    +0.087 C 
ATOM     10  C   UNL     1      -3.505  -1.179  -0.410  0.00  0.00    +0.087 C 
ATOM     11  C   UNL     1      -3.745   1.359   0.915  0.00  0.00    +0.001 C 
ATOM     12  C   UNL     1      -3.761   0.215   1.623  0.00  0.00    +0.001 C 
ATOM     13  C   UNL     1      -2.022   0.507  -1.375  0.00  0.00    +0.247 C 
ATOM     14  C   UNL     1      -2.048  -1.487  -0.139  0.00  0.00    +0.247 C 
ENDROOT
BRANCH   3  16
ATOM     15  O   UNL     1       0.162   0.784   1.180  0.00  0.00    -0.269 OA
ATOM     16  N   UNL     1       0.045  -0.506  -0.740  0.00  0.00    -0.221 N 
ATOM     17  C   UNL     1       0.711   0.166   0.272  0.00  0.00    +0.262 C 
ATOM     18  H   UNL     1       0.548  -0.983  -1.439  0.00  0.00    +0.174 HD
BRANCH  17  19
ATOM     19  C   UNL     1       2.196   0.129   0.209  0.00  0.00    +0.055 C 
ATOM     20  C   UNL     1       2.943   1.162   0.775  0.00  0.00    +0.005 C 
ATOM     21  C   UNL     1       2.842  -0.939  -0.413  0.00  0.00    +0.005 C 
ATOM     22  C   UNL     1       4.336   1.127   0.718  0.00  0.00    +0.004 C 
ATOM     23  C   UNL     1       4.235  -0.973  -0.471  0.00  0.00    +0.004 C 
ATOM     24  C   UNL     1       4.982   0.060   0.095  0.00  0.00    +0.071 C 
BRANCH  24  28
ATOM     25  F   UNL     1       7.072   1.096   0.627  0.00  0.00    -0.166 F 
ATOM     26  F   UNL     1       7.016  -1.073   0.644  0.00  0.00    -0.166 F 
ATOM     27  F   UNL     1       6.944  -0.001  -1.247  0.00  0.00    -0.166 F 
ATOM     28  C   UNL     1       6.472   0.022   0.034  0.00  0.00    +0.419 C 
ENDBRANCH  24  28
ENDBRANCH  17  19
ENDBRANCH   3  16
TORSDOF 3
