REMARK  Name = 9801640
REMARK  6 active torsions:
REMARK  status: ('A' for Active; 'I' for Inactive)
REMARK    1  A    between atoms: C_1  and  C_2
REMARK    2  A    between atoms: C_1  and  C_16
REMARK    3  A    between atoms: C_2  and  N_3
REMARK    4  A    between atoms: C_7  and  C_11
REMARK    5  A    between atoms: C_16  and  C_17
REMARK    6  A    between atoms: C_17  and  N_21
REMARK                            x       y       z     vdW  Elec       q    Type
REMARK                         _______ _______ _______ _____ _____    ______ ____
ROOT
ATOM      1  C   UNL     1      -0.293  -0.613  -0.214  0.00  0.00    -0.021 C 
ENDROOT
BRANCH   1   2
ATOM      2  C   UNL     1      -1.172  -0.390   1.016  0.00  0.00    -0.077 C 
BRANCH   2   3
ATOM      3  N   UNL     1      -2.584  -0.496   0.656  0.00  0.00    +0.390 N 
ATOM      4  C   UNL     1      -3.442  -0.390   1.840  0.00  0.00    -0.072 C 
ATOM      5  C   UNL     1      -2.946   0.524  -0.341  0.00  0.00    -0.051 C 
ATOM      6  C   UNL     1      -4.902  -0.671   1.454  0.00  0.00    +0.005 C 
ATOM      7  C   UNL     1      -5.346   0.095   0.228  0.00  0.00    -0.013 C 
ATOM      8  C   UNL     1      -4.426   0.642  -0.588  0.00  0.00    -0.052 C 
ATOM      9  H   UNL     1      -2.734  -1.416   0.242  0.00  0.00    -0.079 HD
BRANCH   7  11
ATOM     10  N   UNL     1      -7.197   1.330  -0.691  0.00  0.00    -0.244 NA
ATOM     11  C   UNL     1      -6.800   0.213  -0.039  0.00  0.00    +0.077 C 
ATOM     12  C   UNL     1      -7.666  -0.789   0.375  0.00  0.00    +0.019 C 
ATOM     13  C   UNL     1      -9.021  -0.634   0.103  0.00  0.00    +0.003 C 
ATOM     14  C   UNL     1      -8.522   1.446  -0.937  0.00  0.00    +0.099 C 
ATOM     15  C   UNL     1      -9.465   0.502  -0.565  0.00  0.00    +0.021 C 
ENDBRANCH   7  11
ENDBRANCH   2   3
ENDBRANCH   1   2
BRANCH   1  16
ATOM     16  C   UNL     1       1.193  -0.514   0.145  0.00  0.00    +0.020 C 
BRANCH  16  17
ATOM     17  C   UNL     1       2.104  -0.764  -1.052  0.00  0.00    +0.099 C 
BRANCH  17  21
ATOM     18 CL   UNL     1       3.186  -3.200   0.182  0.00  0.00    -0.062 Cl
ATOM     19  O   UNL     1       6.472  -1.221  -0.790  0.00  0.00    -0.448 OA
ATOM     20  O   UNL     1       3.581   1.558  -1.326  0.00  0.00    -0.269 OA
ATOM     21  N   UNL     1       3.529  -0.690  -0.698  0.00  0.00    -0.244 N 
ATOM     22  C   UNL     1       4.124   0.588  -0.791  0.00  0.00    +0.256 C 
ATOM     23  C   UNL     1       4.181  -1.859  -0.311  0.00  0.00    +0.151 C 
ATOM     24  C   UNL     1       5.425   0.865  -0.137  0.00  0.00    +0.088 C 
ATOM     25  C   UNL     1       6.511  -0.004  -0.171  0.00  0.00    +0.150 C 
ATOM     26  C   UNL     1       5.502  -2.075  -0.346  0.00  0.00    +0.206 C 
ATOM     27  C   UNL     1       5.574   2.110   0.497  0.00  0.00    +0.008 C 
ATOM     28  C   UNL     1       7.737   0.365   0.395  0.00  0.00    +0.038 C 
ATOM     29  C   UNL     1       6.790   2.471   1.081  0.00  0.00    +0.000 C 
ATOM     30  C   UNL     1       7.873   1.599   1.026  0.00  0.00    +0.003 C 
ENDBRANCH  17  21
ENDBRANCH  16  17
ENDBRANCH   1  16
TORSDOF 6
