9867812
  -OEChem-10051722453D

 47 50  0     1  0  0  0  0  0999 V2000
    4.6647   -1.1517   -3.0802 Br  0  0  0  0  0  0  0  0  0  0  0  0
   -5.5043   -0.9434   -1.3497 O   0  0  0  0  0  0  0  0  0  0  0  0
   -5.4908    0.8883    0.0530 O   0  0  0  0  0  0  0  0  0  0  0  0
    0.9317    2.1453    0.4567 N   0  0  0  0  0  0  0  0  0  0  0  0
   -0.7818   -0.3759    0.2766 N   0  0  0  0  0  0  0  0  0  0  0  0
   -0.9708    2.9030    1.3542 N   0  0  0  0  0  0  0  0  0  0  0  0
    2.0088   -2.3087    1.0843 N   0  0  0  0  0  0  0  0  0  0  0  0
   -1.1712    0.9399   -0.2061 C   0  0  2  0  0  0  0  0  0  0  0  0
   -0.4400    1.9870    0.5677 C   0  0  0  0  0  0  0  0  0  0  0  0
   -2.6850    1.0591   -0.0399 C   0  0  0  0  0  0  0  0  0  0  0  0
    1.8114    1.3287   -0.2968 C   0  0  0  0  0  0  0  0  0  0  0  0
    1.5294   -0.0261   -0.5597 C   0  0  0  0  0  0  0  0  0  0  0  0
    1.2440    3.2886    1.1565 C   0  0  0  0  0  0  0  0  0  0  0  0
    0.4279   -0.7916    0.1107 C   0  0  0  0  0  0  0  0  0  0  0  0
   -3.4126   -0.0422   -0.8017 C   0  0  0  0  0  0  0  0  0  0  0  0
    0.0657    3.7123    1.7197 C   0  0  0  0  0  0  0  0  0  0  0  0
    2.9816    1.9058   -0.8175 C   0  0  0  0  0  0  0  0  0  0  0  0
    2.3839   -0.7503   -1.4094 C   0  0  0  0  0  0  0  0  0  0  0  0
    2.5903    3.8493    1.3939 C   0  0  0  0  0  0  0  0  0  0  0  0
    0.7412   -2.1424    0.6643 C   0  0  0  0  0  0  0  0  0  0  0  0
    3.8308    1.1641   -1.6395 C   0  0  0  0  0  0  0  0  0  0  0  0
    3.5249   -0.1566   -1.9474 C   0  0  0  0  0  0  0  0  0  0  0  0
   -4.9111    0.0526   -0.6266 C   0  0  0  0  0  0  0  0  0  0  0  0
   -0.2431   -3.1061    0.7126 C   0  0  0  0  0  0  0  0  0  0  0  0
    0.1018   -4.3469    1.2368 C   0  0  0  0  0  0  0  0  0  0  0  0
    2.3069   -3.5276    1.5874 C   0  0  0  0  0  0  0  0  0  0  0  0
    1.3991   -4.5699    1.6847 C   0  0  0  0  0  0  0  0  0  0  0  0
   -6.9335   -0.9844   -1.2847 C   0  0  0  0  0  0  0  0  0  0  0  0
   -0.9443    1.0431   -1.2761 H   0  0  0  0  0  0  0  0  0  0  0  0
   -3.0260    2.0415   -0.3926 H   0  0  0  0  0  0  0  0  0  0  0  0
   -2.9581    1.0013    1.0230 H   0  0  0  0  0  0  0  0  0  0  0  0
   -3.1094   -1.0318   -0.4435 H   0  0  0  0  0  0  0  0  0  0  0  0
   -3.1875    0.0360   -1.8713 H   0  0  0  0  0  0  0  0  0  0  0  0
   -0.0873    4.5552    2.3783 H   0  0  0  0  0  0  0  0  0  0  0  0
    3.2285    2.9539   -0.7277 H   0  0  0  0  0  0  0  0  0  0  0  0
    2.1646   -1.7887   -1.6511 H   0  0  0  0  0  0  0  0  0  0  0  0
    2.5857    4.4487    2.3131 H   0  0  0  0  0  0  0  0  0  0  0  0
    3.3503    3.0783    1.5498 H   0  0  0  0  0  0  0  0  0  0  0  0
    2.8883    4.5301    0.5911 H   0  0  0  0  0  0  0  0  0  0  0  0
    4.7113    1.6447   -2.0586 H   0  0  0  0  0  0  0  0  0  0  0  0
   -1.2524   -2.9354    0.3549 H   0  0  0  0  0  0  0  0  0  0  0  0
   -0.6382   -5.1396    1.2941 H   0  0  0  0  0  0  0  0  0  0  0  0
    3.3317   -3.6504    1.9221 H   0  0  0  0  0  0  0  0  0  0  0  0
    1.6907   -5.5294    2.0961 H   0  0  0  0  0  0  0  0  0  0  0  0
   -7.2780   -1.8191   -1.9010 H   0  0  0  0  0  0  0  0  0  0  0  0
   -7.3574   -0.0568   -1.6809 H   0  0  0  0  0  0  0  0  0  0  0  0
   -7.2610   -1.1504   -0.2539 H   0  0  0  0  0  0  0  0  0  0  0  0
  1 22  1  0  0  0  0
  2 23  1  0  0  0  0
  2 28  1  0  0  0  0
  3 23  2  0  0  0  0
  4  9  1  0  0  0  0
  4 11  1  0  0  0  0
  4 13  1  0  0  0  0
  5  8  1  0  0  0  0
  5 14  2  0  0  0  0
  6  9  2  0  0  0  0
  6 16  1  0  0  0  0
  7 20  1  0  0  0  0
  7 26  2  0  0  0  0
  8  9  1  0  0  0  0
  8 10  1  0  0  0  0
  8 29  1  0  0  0  0
 10 15  1  0  0  0  0
 10 30  1  0  0  0  0
 10 31  1  0  0  0  0
 11 12  2  0  0  0  0
 11 17  1  0  0  0  0
 12 14  1  0  0  0  0
 12 18  1  0  0  0  0
 13 16  2  0  0  0  0
 13 19  1  0  0  0  0
 14 20  1  0  0  0  0
 15 23  1  0  0  0  0
 15 32  1  0  0  0  0
 15 33  1  0  0  0  0
 16 34  1  0  0  0  0
 17 21  2  0  0  0  0
 17 35  1  0  0  0  0
 18 22  2  0  0  0  0
 18 36  1  0  0  0  0
 19 37  1  0  0  0  0
 19 38  1  0  0  0  0
 19 39  1  0  0  0  0
 20 24  2  0  0  0  0
 21 22  1  0  0  0  0
 21 40  1  0  0  0  0
 24 25  1  0  0  0  0
 24 41  1  0  0  0  0
 25 27  2  0  0  0  0
 25 42  1  0  0  0  0
 26 27  1  0  0  0  0
 26 43  1  0  0  0  0
 27 44  1  0  0  0  0
 28 45  1  0  0  0  0
 28 46  1  0  0  0  0
 28 47  1  0  0  0  0
M  END
> <DATABASE_ID>
DB12404

> <DATABASE_NAME>
drugbank

> <ORIGINAL_SOURCE>
PUBCHEM

> <ORIGINAL_SOURCE_URL>
https://pubchem.ncbi.nlm.nih.gov/rest/pug/compound/inchikey/CYHWMBVXXDIZNZ-KRWDZBQOSA-N/SDF?record_type=3d

> <SMILES>
COC(=O)CC[C@@H]1N=C(C2=CC=CC=N2)C2=CC(Br)=CC=C2N2C(C)=CN=C12

> <INCHI_IDENTIFIER>
InChI=1S/C21H19BrN4O2/c1-13-12-24-21-17(7-9-19(27)28-2)25-20(16-5-3-4-10-23-16)15-11-14(22)6-8-18(15)26(13)21/h3-6,8,10-12,17H,7,9H2,1-2H3/t17-/m0/s1

> <INCHI_KEY>
CYHWMBVXXDIZNZ-KRWDZBQOSA-N

> <FORMULA>
C21H19BrN4O2

> <MOLECULAR_WEIGHT>
439.313

> <EXACT_MASS>
438.069139

> <JCHEM_ACCEPTOR_COUNT>
4

> <JCHEM_ATOM_COUNT>
47

> <JCHEM_AVERAGE_POLARIZABILITY>
43.12404702221031

> <JCHEM_BIOAVAILABILITY>
1

> <JCHEM_DONOR_COUNT>
0

> <JCHEM_FORMAL_CHARGE>
0

> <JCHEM_GHOSE_FILTER>
1

> <JCHEM_IUPAC>
methyl 3-[(7S)-12-bromo-3-methyl-9-(pyridin-2-yl)-2,5,8-triazatricyclo[8.4.0.0^{2,6}]tetradeca-1(14),3,5,8,10,12-hexaen-7-yl]propanoate

> <ALOGPS_LOGP>
3.68

> <JCHEM_LOGP>
3.754494117333334

> <ALOGPS_LOGS>
-4.31

> <JCHEM_MDDR_LIKE_RULE>
0

> <JCHEM_NUMBER_OF_RINGS>
4

> <JCHEM_PHYSIOLOGICAL_CHARGE>
0

> <JCHEM_PKA_STRONGEST_BASIC>
5.992007552186641

> <JCHEM_POLAR_SURFACE_AREA>
69.37

> <JCHEM_REFRACTIVITY>
119.71430000000002

> <JCHEM_ROTATABLE_BOND_COUNT>
5

> <JCHEM_RULE_OF_FIVE>
1

> <ALOGPS_SOLUBILITY>
2.13e-02 g/l

> <JCHEM_TRADITIONAL_IUPAC>
methyl 3-[(7S)-12-bromo-3-methyl-9-(pyridin-2-yl)-2,5,8-triazatricyclo[8.4.0.0^{2,6}]tetradeca-1(14),3,5,8,10,12-hexaen-7-yl]propanoate

> <JCHEM_VEBER_RULE>
0

> <DRUGBANK_ID>
DB12404

> <DRUG_GROUPS>
investigational

> <GENERIC_NAME>
Remimazolam

$$$$
