REMARK  Name = 45381907
REMARK  4 active torsions:
REMARK  status: ('A' for Active; 'I' for Inactive)
REMARK    1  A    between atoms: N_4  and  N_23
REMARK    2  A    between atoms: C_5  and  C_20
REMARK    3  A    between atoms: C_6  and  C_16
REMARK    4  A    between atoms: N_23  and  S_25
REMARK                            x       y       z     vdW  Elec       q    Type
REMARK                         _______ _______ _______ _____ _____    ______ ____
ROOT
ATOM      1  O   UNL     1      -1.891  -1.734   0.921  0.00  0.00    -0.265 OA
ATOM      2  O   UNL     1      -3.782   2.454   0.170  0.00  0.00    -0.245 OA
ATOM      3  N   UNL     1      -1.510   2.214   0.037  0.00  0.00    -0.305 N 
ATOM      4  N   UNL     1      -2.849   0.357   0.547  0.00  0.00    -0.159 N 
ATOM      5  C   UNL     1       2.044   1.212  -0.036  0.00  0.00    -0.020 C 
ATOM      6  C   UNL     1       1.948  -0.147   0.265  0.00  0.00    +0.011 C 
ATOM      7  C   UNL     1      -0.358   1.417   0.115  0.00  0.00    +0.064 A 
ATOM      8  C   UNL     1      -0.454   0.057   0.417  0.00  0.00    +0.074 A 
ATOM      9  C   UNL     1       0.893   1.996  -0.112  0.00  0.00    +0.013 C 
ATOM     10  C   UNL     1       0.700  -0.728   0.493  0.00  0.00    +0.007 C 
ATOM     11  C   UNL     1      -1.786  -0.541   0.654  0.00  0.00    +0.283 A 
ATOM     12  C   UNL     1      -2.791   1.725   0.247  0.00  0.00    +0.348 A 
ATOM     13  H   UNL     1      -1.403   3.169  -0.178  0.00  0.00    +0.170 HD
ENDROOT
BRANCH   6  16
ATOM     14  N   UNL     1       3.660  -1.654  -0.709  0.00  0.00    -0.210 N 
ATOM     15  N   UNL     1       4.759  -2.365  -0.401  0.00  0.00    -0.176 NA
ATOM     16  C   UNL     1       3.129  -0.976   0.348  0.00  0.00    +0.070 C 
ATOM     17  C   UNL     1       3.936  -1.262   1.422  0.00  0.00    +0.039 C 
ATOM     18  C   UNL     1       4.922  -2.121   0.902  0.00  0.00    +0.119 C 
ATOM     19  C   UNL     1       3.171  -1.675  -2.069  0.00  0.00    +0.140 C 
ENDBRANCH   6  16
BRANCH   5  20
ATOM     20  C   UNL     1       3.367   1.865  -0.284  0.00  0.00    +0.022 C 
ATOM     21  C   UNL     1       3.679   2.964   0.747  0.00  0.00    +0.005 C 
ATOM     22  C   UNL     1       3.480   2.433  -1.709  0.00  0.00    +0.005 C 
ENDBRANCH   5  20
BRANCH   4  23
ATOM     23  N   UNL     1      -4.189  -0.198   0.776  0.00  0.00    -0.150 N 
ATOM     24  H   UNL     1      -4.709  -0.037   1.596  0.00  0.00    +0.195 HD
BRANCH  23  25
ATOM     25  S   UNL     1      -4.753  -1.150  -0.522  0.00  0.00    +0.069 S 
ATOM     26  O   UNL     1      -4.153  -2.469  -0.462  0.00  0.00    -0.153 OA
ATOM     27  O   UNL     1      -4.725  -0.365  -1.740  0.00  0.00    -0.153 OA
ATOM     28  C   UNL     1      -6.448  -1.309  -0.018  0.00  0.00    +0.201 C 
ENDBRANCH  23  25
ENDBRANCH   4  23
TORSDOF 4
