REMARK  Name = 59657596
REMARK  4 active torsions:
REMARK  status: ('A' for Active; 'I' for Inactive)
REMARK    1  A    between atoms: C_13  and  C_19
REMARK    2  A    between atoms: N_18  and  C_27
REMARK    3  A    between atoms: C_27  and  C_28
REMARK    4  A    between atoms: C_28  and  N_29
REMARK                            x       y       z     vdW  Elec       q    Type
REMARK                         _______ _______ _______ _____ _____    ______ ____
ROOT
ATOM      1  O   UNL     1       3.750   2.040  -0.217  0.00  0.00    -0.350 OA
ATOM      2  O   UNL     1      -0.194   0.286   3.495  0.00  0.00    -0.270 OA
ATOM      3  N   UNL     1       0.893   0.961   1.539  0.00  0.00    -0.276 N 
ATOM      4  C   UNL     1       3.359   0.661   0.046  0.00  0.00    +0.115 C 
ATOM      5  C   UNL     1       3.298   0.448   1.571  0.00  0.00    +0.053 C 
ATOM      6  C   UNL     1       1.984   0.425  -0.601  0.00  0.00    +0.053 C 
ATOM      7  C   UNL     1       4.453  -0.140  -0.586  0.00  0.00    +0.001 C 
ATOM      8  C   UNL     1       0.889   1.233   0.096  0.00  0.00    +0.096 C 
ATOM      9  C   UNL     1       2.161   1.249   2.208  0.00  0.00    +0.096 C 
ATOM     10  C   UNL     1       5.489   0.709  -0.957  0.00  0.00    +0.005 C 
ATOM     11  C   UNL     1       5.145   2.102  -0.591  0.00  0.00    +0.169 C 
ATOM     12  C   UNL     1       4.543  -1.506  -0.802  0.00  0.00    -0.002 C 
ATOM     13  C   UNL     1      -0.191   0.492   2.283  0.00  0.00    +0.250 C 
ATOM     14  C   UNL     1       6.642   0.225  -1.550  0.00  0.00    -0.002 C 
ATOM     15  C   UNL     1       5.697  -2.009  -1.406  0.00  0.00    -0.000 C 
ATOM     16  C   UNL     1       6.740  -1.149  -1.778  0.00  0.00    -0.000 C 
ENDROOT
BRANCH  13  19
ATOM     17 CL   UNL     1      -4.057  -4.346  -1.161  0.00  0.00    -0.082 Cl
ATOM     18  N   UNL     1      -3.452   0.497   0.678  0.00  0.00    -0.288 N 
ATOM     19  C   UNL     1      -1.443   0.201   1.573  0.00  0.00    +0.070 C 
ATOM     20  C   UNL     1      -1.852  -1.027   0.981  0.00  0.00    +0.019 C 
ATOM     21  C   UNL     1      -2.448   1.118   1.370  0.00  0.00    +0.070 C 
ATOM     22  C   UNL     1      -3.116  -0.814   0.427  0.00  0.00    +0.053 C 
ATOM     23  C   UNL     1      -1.266  -2.304   0.864  0.00  0.00    +0.002 C 
ATOM     24  C   UNL     1      -3.826  -1.817  -0.242  0.00  0.00    +0.026 C 
ATOM     25  C   UNL     1      -1.965  -3.317   0.198  0.00  0.00    +0.011 C 
ATOM     26  C   UNL     1      -3.225  -3.075  -0.346  0.00  0.00    +0.059 C 
BRANCH  18  27
ATOM     27  C   UNL     1      -4.684   1.141   0.276  0.00  0.00    +0.073 C 
BRANCH  27  28
ATOM     28  C   UNL     1      -4.668   1.506  -1.208  0.00  0.00    -0.055 C 
BRANCH  28  29
ATOM     29  N   UNL     1      -5.925   2.142  -1.585  0.00  0.00    +0.385 N 
ATOM     30  C   UNL     1      -6.976   1.139  -1.767  0.00  0.00    -0.101 C 
ATOM     31  C   UNL     1      -5.758   2.929  -2.808  0.00  0.00    -0.101 C 
ATOM     32  H   UNL     1      -6.203   2.770  -0.831  0.00  0.00    -0.080 HD
ENDBRANCH  28  29
ENDBRANCH  27  28
ENDBRANCH  18  27
ENDBRANCH  13  19
TORSDOF 4
