REMARK  Name = 71666749
REMARK  5 active torsions:
REMARK  status: ('A' for Active; 'I' for Inactive)
REMARK    1  A    between atoms: C_3  and  C_12
REMARK    2  A    between atoms: C_4  and  C_16
REMARK    3  A    between atoms: C_16  and  N_17
REMARK    4  A    between atoms: C_16  and  C_21
REMARK    5  A    between atoms: C_21  and  C_25
REMARK                            x       y       z     vdW  Elec       q    Type
REMARK                         _______ _______ _______ _____ _____    ______ ____
ROOT
ATOM      1  N   UNL     1      -0.732  -0.283   0.923  0.00  0.00    -0.320 N 
ATOM      2  N   UNL     1      -1.000   1.631  -0.174  0.00  0.00    -0.320 N 
ATOM      3  C   UNL     1       2.839   0.058  -0.048  0.00  0.00    -0.021 C 
ATOM      4  C   UNL     1      -1.602   0.692   0.522  0.00  0.00    +0.123 C 
ATOM      5  C   UNL     1       0.514   0.049   0.456  0.00  0.00    +0.059 C 
ATOM      6  C   UNL     1       1.756  -0.578   0.568  0.00  0.00    +0.011 C 
ATOM      7  C   UNL     1       0.320   1.247  -0.225  0.00  0.00    +0.059 C 
ATOM      8  C   UNL     1       2.676   1.262  -0.738  0.00  0.00    -0.003 C 
ATOM      9  C   UNL     1       1.419   1.872  -0.837  0.00  0.00    +0.015 C 
ATOM     10  H   UNL     1      -0.960  -1.081   1.453  0.00  0.00    +0.148 HD
ATOM     11  H   UNL     1      -1.406   2.435  -0.571  0.00  0.00    +0.148 HD
ENDROOT
BRANCH   3  12
ATOM     12  C   UNL     1       4.194  -0.563   0.036  0.00  0.00    +0.019 C 
ATOM     13  C   UNL     1       4.266  -1.908   0.830  0.00  0.00    +0.004 C 
ATOM     14  C   UNL     1       5.209   0.391   0.739  0.00  0.00    +0.004 C 
ATOM     15  C   UNL     1       4.755  -0.886  -1.383  0.00  0.00    +0.004 C 
ENDBRANCH   3  12
BRANCH   4  16
ATOM     16  C   UNL     1      -3.082   0.628   0.876  0.00  0.00    -0.019 C 
BRANCH  16  17
ATOM     17  N   UNL     1      -3.618   1.980   1.082  0.00  0.00    +0.384 N 
ATOM     18  H   UNL     1      -4.609   1.921   1.318  0.00  0.00    -0.089 HD
ATOM     19  H   UNL     1      -3.505   2.525   0.227  0.00  0.00    -0.089 HD
ATOM     20  H   UNL     1      -3.114   2.434   1.843  0.00  0.00    -0.089 HD
ENDBRANCH  16  17
BRANCH  16  21
ATOM     21  C   UNL     1      -3.932  -0.137  -0.177  0.00  0.00    +0.060 C 
ATOM     22  C   UNL     1      -3.862   0.517  -1.564  0.00  0.00    +0.007 C 
BRANCH  21  25
ATOM     23  O   UNL     1      -3.048  -2.058  -1.385  0.00  0.00    -0.275 OA
ATOM     24  N   UNL     1      -3.604  -2.325   0.826  0.00  0.00    -0.329 N 
ATOM     25  C   UNL     1      -3.468  -1.588  -0.330  0.00  0.00    +0.217 C 
ATOM     26  H   UNL     1      -3.336  -3.272   0.841  0.00  0.00    +0.145 HD
ATOM     27  H   UNL     1      -3.970  -1.905   1.638  0.00  0.00    +0.145 HD
ENDBRANCH  21  25
ENDBRANCH  16  21
ENDBRANCH   4  16
TORSDOF 5
