REMARK  Name = 25254071
REMARK  5 active torsions:
REMARK  status: ('A' for Active; 'I' for Inactive)
REMARK    1  A    between atoms: C_6  and  C_26
REMARK    2  A    between atoms: C_16  and  C_20
REMARK    3  A    between atoms: C_26  and  N_28
REMARK    4  A    between atoms: C_34  and  C_36
REMARK    5  A    between atoms: C_36  and  O_38
REMARK                            x       y       z     vdW  Elec       q    Type
REMARK                         _______ _______ _______ _____ _____    ______ ____
ROOT
ATOM      1  S   UNL     1      -0.167  -1.828   1.068  0.00  0.00    -0.106 S 
ATOM      2  O   UNL     1       3.180  -5.459  -0.863  0.00  0.00    -0.350 OA
ATOM      3  N   UNL     1       2.640  -2.796  -0.142  0.00  0.00    -0.280 N 
ATOM      4  N   UNL     1       2.086   1.299   0.589  0.00  0.00    -0.343 NA
ATOM      5  N   UNL     1       3.435  -0.562  -0.169  0.00  0.00    -0.328 NA
ATOM      6  C   UNL     1      -0.971  -0.403   1.559  0.00  0.00    -0.019 C 
ATOM      7  C   UNL     1      -0.188   0.717   1.397  0.00  0.00    +0.005 C 
ATOM      8  C   UNL     1       1.247  -0.961   0.629  0.00  0.00    +0.171 C 
ATOM      9  C   UNL     1       1.097   0.406   0.859  0.00  0.00    +0.136 C 
ATOM     10  C   UNL     1       2.445  -1.434   0.105  0.00  0.00    +0.190 C 
ATOM     11  C   UNL     1       4.004  -3.332  -0.040  0.00  0.00    +0.125 C 
ATOM     12  C   UNL     1       1.761  -3.503  -1.081  0.00  0.00    +0.125 C 
ATOM     13  C   UNL     1       3.951  -4.841   0.167  0.00  0.00    +0.164 C 
ATOM     14  C   UNL     1       1.828  -5.003  -0.820  0.00  0.00    +0.164 C 
ATOM     15  C   UNL     1      -0.626   2.093   1.740  0.00  0.00    +0.034 C 
ATOM     16  C   UNL     1       3.198   0.738   0.086  0.00  0.00    +0.138 C 
ENDROOT
BRANCH  16  20
ATOM     17  N   UNL     1       5.038   3.827  -0.888  0.00  0.00    -0.180 NA
ATOM     18  N   UNL     1       6.634   2.083  -0.426  0.00  0.00    -0.202 NA
ATOM     19  N   UNL     1       7.343   4.221  -1.081  0.00  0.00    -0.303 N 
ATOM     20  C   UNL     1       4.277   1.644  -0.217  0.00  0.00    +0.108 C 
ATOM     21  C   UNL     1       4.053   2.952  -0.597  0.00  0.00    +0.120 C 
ATOM     22  C   UNL     1       5.600   1.261  -0.148  0.00  0.00    +0.177 C 
ATOM     23  C   UNL     1       6.286   3.333  -0.783  0.00  0.00    +0.084 C 
ATOM     24  H   UNL     1       7.146   5.148  -1.348  0.00  0.00    +0.154 HD
ATOM     25  H   UNL     1       8.276   3.913  -1.021  0.00  0.00    +0.154 HD
ENDBRANCH  16  20
BRANCH   6  26
ATOM     26  C   UNL     1      -2.376  -0.502   2.091  0.00  0.00    -0.044 C 
BRANCH  26  28
ATOM     27  O   UNL     1      -8.078   1.218   0.133  0.00  0.00    -0.272 OA
ATOM     28  N   UNL     1      -3.314   0.297   1.305  0.00  0.00    +0.392 N 
ATOM     29  N   UNL     1      -5.792   0.838  -0.028  0.00  0.00    -0.282 N 
ATOM     30  C   UNL     1      -4.533   0.573   2.079  0.00  0.00    -0.055 C 
ATOM     31  C   UNL     1      -3.648  -0.388   0.047  0.00  0.00    -0.055 C 
ATOM     32  C   UNL     1      -5.502   1.437   1.274  0.00  0.00    +0.071 C 
ATOM     33  C   UNL     1      -4.606   0.454  -0.798  0.00  0.00    +0.071 C 
ATOM     34  C   UNL     1      -7.106   0.784  -0.491  0.00  0.00    +0.252 C 
ATOM     35  H   UNL     1      -2.868   1.186   1.079  0.00  0.00    -0.079 HD
BRANCH  34  36
ATOM     36  C   UNL     1      -7.320   0.145  -1.840  0.00  0.00    +0.187 C 
ATOM     37  C   UNL     1      -7.296   1.185  -2.937  0.00  0.00    +0.042 C 
BRANCH  36  38
ATOM     38  O   UNL     1      -8.579  -0.493  -1.777  0.00  0.00    -0.376 OA
ATOM     39  H   UNL     1      -8.570  -1.155  -1.067  0.00  0.00    +0.211 HD
ENDBRANCH  36  38
ENDBRANCH  34  36
ENDBRANCH  26  28
ENDBRANCH   6  26
TORSDOF 5
