55473
  -OEChem-10051722543D

 55 57  0     0  0  0  0  0  0999 V2000
    0.8335    2.2773   -1.6681 O   0  0  0  0  0  0  0  0  0  0  0  0
    4.3107   -0.6855    3.0818 O   0  0  0  0  0  0  0  0  0  0  0  0
   -3.3709    0.0594    0.2378 N   0  0  0  0  0  0  0  0  0  0  0  0
    2.3982   -0.8437   -2.0823 N   0  0  0  0  0  0  0  0  0  0  0  0
    2.0673   -2.2112   -0.1815 N   0  0  0  0  0  0  0  0  0  0  0  0
    2.8263   -0.2011    0.2171 N   0  0  0  0  0  0  0  0  0  0  0  0
    2.1899   -2.1884    1.1543 N   0  0  0  0  0  0  0  0  0  0  0  0
   -4.8043   -0.1239   -0.0300 C   0  0  0  0  0  0  0  0  0  0  0  0
   -2.8090   -1.1025    0.9408 C   0  0  0  0  0  0  0  0  0  0  0  0
   -5.0520   -1.3722   -0.8785 C   0  0  0  0  0  0  0  0  0  0  0  0
   -2.9915   -2.3826    0.1243 C   0  0  0  0  0  0  0  0  0  0  0  0
   -4.4575   -2.6140   -0.2242 C   0  0  0  0  0  0  0  0  0  0  0  0
   -3.1468    1.2817    1.0093 C   0  0  0  0  0  0  0  0  0  0  0  0
   -1.7250    1.7637    0.8960 C   0  0  0  0  0  0  0  0  0  0  0  0
   -1.0966    1.7970   -0.3489 C   0  0  0  0  0  0  0  0  0  0  0  0
   -1.0361    2.1772    2.0362 C   0  0  0  0  0  0  0  0  0  0  0  0
    0.2206    2.2439   -0.4536 C   0  0  0  0  0  0  0  0  0  0  0  0
    0.2811    2.6240    1.9317 C   0  0  0  0  0  0  0  0  0  0  0  0
    0.9094    2.6575    0.6867 C   0  0  0  0  0  0  0  0  0  0  0  0
    1.6089    0.9674   -3.5233 C   0  0  0  0  0  0  0  0  0  0  0  0
    0.4214    1.3077   -2.6305 C   0  0  0  0  0  0  0  0  0  0  0  0
    2.7824    0.3768   -2.7506 C   0  0  0  0  0  0  0  0  0  0  0  0
    2.4472   -1.0264   -0.7309 C   0  0  0  0  0  0  0  0  0  0  0  0
    2.6521   -0.9510    1.3450 C   0  0  0  0  0  0  0  0  0  0  0  0
    1.5838   -3.3995   -0.8423 C   0  0  0  0  0  0  0  0  0  0  0  0
    2.9571   -0.4320    2.6835 C   0  0  0  0  0  0  0  0  0  0  0  0
   -5.1948    0.7405   -0.5808 H   0  0  0  0  0  0  0  0  0  0  0  0
   -5.3701   -0.1966    0.9083 H   0  0  0  0  0  0  0  0  0  0  0  0
   -1.7338   -0.9702    1.1108 H   0  0  0  0  0  0  0  0  0  0  0  0
   -3.2791   -1.2292    1.9252 H   0  0  0  0  0  0  0  0  0  0  0  0
   -6.1288   -1.5119   -1.0262 H   0  0  0  0  0  0  0  0  0  0  0  0
   -4.6077   -1.2347   -1.8725 H   0  0  0  0  0  0  0  0  0  0  0  0
   -2.4016   -2.3162   -0.7989 H   0  0  0  0  0  0  0  0  0  0  0  0
   -2.6061   -3.2397    0.6882 H   0  0  0  0  0  0  0  0  0  0  0  0
   -4.5535   -3.4752   -0.8944 H   0  0  0  0  0  0  0  0  0  0  0  0
   -5.0179   -2.8509    0.6886 H   0  0  0  0  0  0  0  0  0  0  0  0
   -3.4418    1.1470    2.0585 H   0  0  0  0  0  0  0  0  0  0  0  0
   -3.7694    2.0985    0.6186 H   0  0  0  0  0  0  0  0  0  0  0  0
   -1.6647    1.5145   -1.2309 H   0  0  0  0  0  0  0  0  0  0  0  0
   -1.5130    2.1564    3.0124 H   0  0  0  0  0  0  0  0  0  0  0  0
    0.8182    2.9445    2.8195 H   0  0  0  0  0  0  0  0  0  0  0  0
    1.9363    3.0046    0.6115 H   0  0  0  0  0  0  0  0  0  0  0  0
    1.2821    0.2652   -4.2995 H   0  0  0  0  0  0  0  0  0  0  0  0
    1.9552    1.8773   -4.0282 H   0  0  0  0  0  0  0  0  0  0  0  0
    0.0500    0.3849   -2.1681 H   0  0  0  0  0  0  0  0  0  0  0  0
   -0.3785    1.7404   -3.2424 H   0  0  0  0  0  0  0  0  0  0  0  0
    3.1851    1.1151   -2.0469 H   0  0  0  0  0  0  0  0  0  0  0  0
    3.5917    0.1479   -3.4534 H   0  0  0  0  0  0  0  0  0  0  0  0
    2.0806   -1.5940   -2.6910 H   0  0  0  0  0  0  0  0  0  0  0  0
    0.6656   -3.1469   -1.3785 H   0  0  0  0  0  0  0  0  0  0  0  0
    1.3759   -4.1725   -0.0977 H   0  0  0  0  0  0  0  0  0  0  0  0
    2.3542   -3.7497   -1.5334 H   0  0  0  0  0  0  0  0  0  0  0  0
    2.2972   -0.8811    3.4337 H   0  0  0  0  0  0  0  0  0  0  0  0
    2.8025    0.6516    2.7107 H   0  0  0  0  0  0  0  0  0  0  0  0
    4.4198   -0.3039    3.9697 H   0  0  0  0  0  0  0  0  0  0  0  0
  1 17  1  0  0  0  0
  1 21  1  0  0  0  0
  2 26  1  0  0  0  0
  2 55  1  0  0  0  0
  3  8  1  0  0  0  0
  3  9  1  0  0  0  0
  3 13  1  0  0  0  0
  4 22  1  0  0  0  0
  4 23  1  0  0  0  0
  4 49  1  0  0  0  0
  5  7  1  0  0  0  0
  5 23  1  0  0  0  0
  5 25  1  0  0  0  0
  6 23  2  0  0  0  0
  6 24  1  0  0  0  0
  7 24  2  0  0  0  0
  8 10  1  0  0  0  0
  8 27  1  0  0  0  0
  8 28  1  0  0  0  0
  9 11  1  0  0  0  0
  9 29  1  0  0  0  0
  9 30  1  0  0  0  0
 10 12  1  0  0  0  0
 10 31  1  0  0  0  0
 10 32  1  0  0  0  0
 11 12  1  0  0  0  0
 11 33  1  0  0  0  0
 11 34  1  0  0  0  0
 12 35  1  0  0  0  0
 12 36  1  0  0  0  0
 13 14  1  0  0  0  0
 13 37  1  0  0  0  0
 13 38  1  0  0  0  0
 14 15  2  0  0  0  0
 14 16  1  0  0  0  0
 15 17  1  0  0  0  0
 15 39  1  0  0  0  0
 16 18  2  0  0  0  0
 16 40  1  0  0  0  0
 17 19  2  0  0  0  0
 18 19  1  0  0  0  0
 18 41  1  0  0  0  0
 19 42  1  0  0  0  0
 20 21  1  0  0  0  0
 20 22  1  0  0  0  0
 20 43  1  0  0  0  0
 20 44  1  0  0  0  0
 21 45  1  0  0  0  0
 21 46  1  0  0  0  0
 22 47  1  0  0  0  0
 22 48  1  0  0  0  0
 24 26  1  0  0  0  0
 25 50  1  0  0  0  0
 25 51  1  0  0  0  0
 25 52  1  0  0  0  0
 26 53  1  0  0  0  0
 26 54  1  0  0  0  0
M  END
> <DATABASE_ID>
DB12884

> <DATABASE_NAME>
drugbank

> <ORIGINAL_SOURCE>
PUBCHEM

> <ORIGINAL_SOURCE_URL>
https://pubchem.ncbi.nlm.nih.gov/rest/pug/compound/inchikey/VTLNPNNUIJHJQB-UHFFFAOYSA-N/SDF?record_type=3d

> <SMILES>
CN1N=C(CO)N=C1NCCCOC1=CC=CC(CN2CCCCC2)=C1

> <INCHI_IDENTIFIER>
InChI=1S/C19H29N5O2/c1-23-19(21-18(15-25)22-23)20-9-6-12-26-17-8-5-7-16(13-17)14-24-10-3-2-4-11-24/h5,7-8,13,25H,2-4,6,9-12,14-15H2,1H3,(H,20,21,22)

> <INCHI_KEY>
VTLNPNNUIJHJQB-UHFFFAOYSA-N

> <FORMULA>
C19H29N5O2

> <MOLECULAR_WEIGHT>
359.474

> <EXACT_MASS>
359.232125194

> <JCHEM_ACCEPTOR_COUNT>
6

> <JCHEM_ATOM_COUNT>
55

> <JCHEM_AVERAGE_POLARIZABILITY>
41.31155095592193

> <JCHEM_BIOAVAILABILITY>
1

> <JCHEM_DONOR_COUNT>
2

> <JCHEM_FORMAL_CHARGE>
0

> <JCHEM_GHOSE_FILTER>
1

> <JCHEM_IUPAC>
{1-methyl-5-[(3-{3-[(piperidin-1-yl)methyl]phenoxy}propyl)amino]-1H-1,2,4-triazol-3-yl}methanol

> <ALOGPS_LOGP>
2.94

> <JCHEM_LOGP>
2.026130452666668

> <ALOGPS_LOGS>
-3.09

> <JCHEM_MDDR_LIKE_RULE>
1

> <JCHEM_NUMBER_OF_RINGS>
3

> <JCHEM_PHYSIOLOGICAL_CHARGE>
1

> <JCHEM_PKA>
19.775033400846226

> <JCHEM_PKA_STRONGEST_ACIDIC>
13.451417075574067

> <JCHEM_PKA_STRONGEST_BASIC>
8.743723460368575

> <JCHEM_POLAR_SURFACE_AREA>
75.44

> <JCHEM_REFRACTIVITY>
116.23149999999998

> <JCHEM_ROTATABLE_BOND_COUNT>
9

> <JCHEM_RULE_OF_FIVE>
1

> <ALOGPS_SOLUBILITY>
2.91e-01 g/l

> <JCHEM_TRADITIONAL_IUPAC>
loxtidine

> <JCHEM_VEBER_RULE>
0

> <DRUGBANK_ID>
DB12884

> <DRUG_GROUPS>
investigational

> <GENERIC_NAME>
Lavoltidine

> <SYNONYMS>
lavoltidina; Lavoltidine; Loxtidina

$$$$
