REMARK  Name = 16061509
REMARK  4 active torsions:
REMARK  status: ('A' for Active; 'I' for Inactive)
REMARK    1  A    between atoms: C_1  and  C_14
REMARK    2  A    between atoms: C_2  and  C_19
REMARK    3  A    between atoms: N_8  and  C_16
REMARK    4  A    between atoms: C_19  and  N_21
REMARK                            x       y       z     vdW  Elec       q    Type
REMARK                         _______ _______ _______ _____ _____    ______ ____
ROOT
ATOM      1  C   UNL     1       0.130  -1.776  -0.041  0.00  0.00    +0.054 C 
ATOM      2  C   UNL     1      -2.530  -1.210   0.560  0.00  0.00    -0.043 C 
ATOM      3  C   UNL     1      -0.796  -1.628  -1.070  0.00  0.00    +0.004 C 
ATOM      4  C   UNL     1      -0.267  -1.642   1.287  0.00  0.00    +0.004 C 
ATOM      5  C   UNL     1      -2.129  -1.345  -0.769  0.00  0.00    -0.006 C 
ATOM      6  C   UNL     1      -1.599  -1.359   1.588  0.00  0.00    -0.006 C 
ENDROOT
BRANCH   1  14
ATOM      7  O   UNL     1       1.831  -3.265  -0.438  0.00  0.00    -0.270 OA
ATOM      8  N   UNL     1       4.406   1.002  -0.095  0.00  0.00    +0.391 N 
ATOM      9  N   UNL     1       2.408  -1.003  -0.549  0.00  0.00    -0.280 N 
ATOM     10  C   UNL     1       4.745  -0.426  -0.004  0.00  0.00    -0.055 C 
ATOM     11  C   UNL     1       3.015   1.228   0.323  0.00  0.00    -0.055 C 
ATOM     12  C   UNL     1       3.809  -1.263  -0.873  0.00  0.00    +0.071 C 
ATOM     13  C   UNL     1       2.039   0.417  -0.530  0.00  0.00    +0.071 C 
ATOM     14  C   UNL     1       1.533  -2.074  -0.358  0.00  0.00    +0.249 C 
ATOM     15  H   UNL     1       4.495   1.287  -1.071  0.00  0.00    -0.079 HD
BRANCH   8  16
ATOM     16  C   UNL     1       5.353   1.837   0.688  0.00  0.00    -0.058 C 
ATOM     17  C   UNL     1       6.803   1.810   0.346  0.00  0.00    -0.023 C 
ATOM     18  C   UNL     1       5.978   3.028   0.046  0.00  0.00    -0.023 C 
ENDBRANCH   8  16
ENDBRANCH   1  14
BRANCH   2  19
ATOM     19  C   UNL     1      -3.954  -0.907   0.882  0.00  0.00    -0.050 C 
BRANCH  19  21
ATOM     20  O   UNL     1      -5.735   2.687  -0.353  0.00  0.00    -0.358 OA
ATOM     21  N   UNL     1      -4.511   0.147   0.037  0.00  0.00    +0.393 N 
ATOM     22  C   UNL     1      -3.755   1.398   0.196  0.00  0.00    -0.044 C 
ATOM     23  C   UNL     1      -5.929   0.373   0.349  0.00  0.00    -0.044 C 
ATOM     24  C   UNL     1      -4.361   2.486  -0.685  0.00  0.00    +0.119 C 
ATOM     25  C   UNL     1      -6.483   1.485  -0.537  0.00  0.00    +0.119 C 
ATOM     26  H   UNL     1      -4.435  -0.158  -0.934  0.00  0.00    -0.079 HD
ENDBRANCH  19  21
ENDBRANCH   2  19
TORSDOF 4
