REMARK  Name = 107641
REMARK  5 active torsions:
REMARK  status: ('A' for Active; 'I' for Inactive)
REMARK    1  A    between atoms: C_1  and  N_8
REMARK    2  A    between atoms: C_2  and  C_17
REMARK    3  A    between atoms: C_17  and  C_19
REMARK    4  A    between atoms: C_17  and  C_22
REMARK    5  A    between atoms: C_19  and  O_20
REMARK                            x       y       z     vdW  Elec       q    Type
REMARK                         _______ _______ _______ _____ _____    ______ ____
ROOT
ATOM      1  C   UNL     1       0.066   0.256   0.062  0.00  0.00    +0.054 C 
ATOM      2  C   UNL     1      -2.728   0.354   0.046  0.00  0.00    -0.012 C 
ATOM      3  C   UNL     1      -0.600   1.390   0.534  0.00  0.00    +0.015 C 
ATOM      4  C   UNL     1      -0.673  -0.829  -0.418  0.00  0.00    +0.015 C 
ATOM      5  C   UNL     1      -1.994   1.439   0.526  0.00  0.00    -0.002 C 
ATOM      6  C   UNL     1      -2.067  -0.780  -0.426  0.00  0.00    -0.002 C 
ENDROOT
BRANCH   1   8
ATOM      7  O   UNL     1       1.831  -1.950  -0.843  0.00  0.00    -0.270 OA
ATOM      8  N   UNL     1       1.454   0.207   0.070  0.00  0.00    -0.251 N 
ATOM      9  C   UNL     1       2.314   1.291   0.552  0.00  0.00    +0.125 C 
ATOM     10  C   UNL     1       3.685   0.746   0.347  0.00  0.00    +0.002 C 
ATOM     11  C   UNL     1       3.620  -0.531  -0.200  0.00  0.00    +0.052 C 
ATOM     12  C   UNL     1       2.209  -0.888  -0.382  0.00  0.00    +0.253 C 
ATOM     13  C   UNL     1       4.908   1.329   0.622  0.00  0.00    -0.002 C 
ATOM     14  C   UNL     1       4.749  -1.272  -0.495  0.00  0.00    +0.004 C 
ATOM     15  C   UNL     1       6.066   0.600   0.334  0.00  0.00    -0.000 C 
ATOM     16  C   UNL     1       5.987  -0.690  -0.220  0.00  0.00    +0.000 C 
ENDBRANCH   1   8
BRANCH   2  17
ATOM     17  C   UNL     1      -4.218   0.407   0.037  0.00  0.00    +0.121 C 
BRANCH  17  19
ATOM     18  O   UNL     1      -4.213  -1.472   1.603  0.00  0.00    -0.250 OA
ATOM     19  C   UNL     1      -4.849  -0.650   0.955  0.00  0.00    +0.317 C 
BRANCH  19  20
ATOM     20  O   UNL     1      -6.207  -0.594   0.980  0.00  0.00    -0.480 OA
ATOM     21  H   UNL     1      -6.659   0.050   0.471  0.00  0.00    +0.295 HD
ENDBRANCH  19  20
ENDBRANCH  17  19
BRANCH  17  22
ATOM     22  C   UNL     1      -4.878   0.265  -1.363  0.00  0.00    +0.016 C 
ATOM     23  C   UNL     1      -4.459   1.372  -2.322  0.00  0.00    +0.001 C 
ENDBRANCH  17  22
ENDBRANCH   2  17
TORSDOF 5
