REMARK  Name = 9908900
REMARK  8 active torsions:
REMARK  status: ('A' for Active; 'I' for Inactive)
REMARK    1  A    between atoms: N_2  and  C_6
REMARK    2  A    between atoms: N_2  and  C_14
REMARK    3  A    between atoms: N_3  and  C_17
REMARK    4  A    between atoms: C_7  and  O_12
REMARK    5  A    between atoms: C_17  and  C_18
REMARK    6  A    between atoms: C_18  and  C_19
REMARK    7  A    between atoms: C_19  and  O_20
REMARK    8  A    between atoms: O_20  and  C_23
REMARK                            x       y       z     vdW  Elec       q    Type
REMARK                         _______ _______ _______ _____ _____    ______ ____
ROOT
ATOM      1  O   UNL     1       1.529   0.341  -1.625  0.00  0.00    -0.253 OA
ATOM      2  N   UNL     1       2.654  -0.923  -0.017  0.00  0.00    -0.265 N 
ATOM      3  N   UNL     1       3.110   1.373  -0.305  0.00  0.00    -0.289 N 
ATOM      4  C   UNL     1       2.367   0.272  -0.720  0.00  0.00    +0.304 C 
ATOM      5  H   UNL     1       3.764   1.258   0.421  0.00  0.00    +0.151 HD
ENDROOT
BRANCH   2   6
ATOM      6  C   UNL     1       1.695  -1.974   0.245  0.00  0.00    +0.103 C 
ATOM      7  C   UNL     1       0.533  -1.450   1.099  0.00  0.00    +0.129 C 
ATOM      8  C   UNL     1       1.201  -2.565  -1.078  0.00  0.00    +0.022 C 
ATOM      9  C   UNL     1      -0.550  -2.513   1.292  0.00  0.00    +0.031 C 
ATOM     10  C   UNL     1       0.126  -3.625  -0.863  0.00  0.00    +0.002 C 
ATOM     11  C   UNL     1      -1.035  -3.082  -0.035  0.00  0.00    +0.003 C 
BRANCH   7  12
ATOM     12  O   UNL     1       1.035  -1.074   2.381  0.00  0.00    -0.383 OA
ATOM     13  H   UNL     1       1.723  -0.399   2.274  0.00  0.00    +0.210 HD
ENDBRANCH   7  12
ENDBRANCH   2   6
BRANCH   2  14
ATOM     14  C   UNL     1       4.003  -1.108   0.507  0.00  0.00    +0.077 C 
ATOM     15  C   UNL     1       5.204  -0.998  -0.385  0.00  0.00    +0.022 C 
ATOM     16  C   UNL     1       4.803  -2.333   0.172  0.00  0.00    +0.022 C 
ENDBRANCH   2  14
BRANCH   3  17
ATOM     17  C   UNL     1       2.954   2.679  -0.905  0.00  0.00    +0.095 C 
BRANCH  17  18
ATOM     18  C   UNL     1       2.522   3.735   0.103  0.00  0.00    +0.069 C 
BRANCH  18  19
ATOM     19  C   UNL     1       1.197   3.402   0.778  0.00  0.00    +0.207 C 
BRANCH  19  20
ATOM     20  O   UNL     1       0.192   3.285  -0.220  0.00  0.00    -0.475 OA
BRANCH  20  23
ATOM     21  O   UNL     1      -5.682  -1.582   0.132  0.00  0.00    -0.270 OA
ATOM     22  N   UNL     1      -4.048  -0.141   0.879  0.00  0.00    -0.280 N 
ATOM     23  C   UNL     1      -0.852   2.439   0.050  0.00  0.00    +0.139 C 
ATOM     24  C   UNL     1      -1.506   1.784  -0.996  0.00  0.00    +0.038 C 
ATOM     25  C   UNL     1      -2.572   0.923  -0.722  0.00  0.00    +0.017 C 
ATOM     26  C   UNL     1      -1.260   2.237   1.370  0.00  0.00    +0.038 C 
ATOM     27  C   UNL     1      -2.974   0.725   0.604  0.00  0.00    +0.051 C 
ATOM     28  C   UNL     1      -2.322   1.379   1.651  0.00  0.00    +0.018 C 
ATOM     29  C   UNL     1      -3.281   0.220  -1.788  0.00  0.00    +0.006 C 
ATOM     30  C   UNL     1      -4.300  -0.601  -1.504  0.00  0.00    +0.058 C 
ATOM     31  C   UNL     1      -4.743  -0.824  -0.101  0.00  0.00    +0.250 C 
ATOM     32  H   UNL     1      -4.317  -0.268   1.817  0.00  0.00    +0.155 HD
ENDBRANCH  20  23
ENDBRANCH  19  20
ENDBRANCH  18  19
ENDBRANCH  17  18
ENDBRANCH   3  17
TORSDOF 8
