REMARK  Name = 71301276
REMARK  2 active torsions:
REMARK  status: ('A' for Active; 'I' for Inactive)
REMARK    1  A    between atoms: C_3  and  C_20
REMARK    2  A    between atoms: C_20  and  O_21
REMARK                            x       y       z     vdW  Elec       q    Type
REMARK                         _______ _______ _______ _____ _____    ______ ____
ROOT
ATOM      1  O   UNL     1       0.871   0.993  -0.037  0.00  0.00    -0.460 OA
ATOM      2  N   UNL     1      -1.611  -1.763  -0.126  0.00  0.00    +0.393 N 
ATOM      3  C   UNL     1      -2.074   0.575   0.676  0.00  0.00    +0.017 C 
ATOM      4  C   UNL     1      -1.234  -0.320  -0.296  0.00  0.00    +0.003 C 
ATOM      5  C   UNL     1      -3.582   0.301   0.412  0.00  0.00    -0.001 C 
ATOM      6  C   UNL     1      -3.015  -1.986  -0.482  0.00  0.00    -0.077 C 
ATOM      7  C   UNL     1      -3.932  -1.183   0.433  0.00  0.00    -0.023 C 
ATOM      8  C   UNL     1       0.252  -0.206  -0.141  0.00  0.00    +0.100 A 
ATOM      9  C   UNL     1      -0.726  -2.681  -0.881  0.00  0.00    -0.072 C 
ATOM     10  C   UNL     1      -1.746   0.288   2.158  0.00  0.00    +0.001 C 
ATOM     11  C   UNL     1       1.166  -1.236  -0.180  0.00  0.00    +0.007 A 
ATOM     12  C   UNL     1       0.725  -2.641  -0.346  0.00  0.00    +0.006 C 
ATOM     13  C   UNL     1       2.444  -0.642  -0.042  0.00  0.00    +0.033 A 
ATOM     14  C   UNL     1       2.209   0.730   0.042  0.00  0.00    +0.144 A 
ATOM     15  C   UNL     1       3.772  -1.101   0.012  0.00  0.00    +0.003 C 
ATOM     16  C   UNL     1       3.214   1.685   0.180  0.00  0.00    +0.037 C 
ATOM     17  C   UNL     1       4.803  -0.161   0.153  0.00  0.00    +0.000 C 
ATOM     18  C   UNL     1       4.526   1.206   0.235  0.00  0.00    +0.003 C 
ATOM     19  H   UNL     1      -1.485  -1.979   0.863  0.00  0.00    -0.079 HD
ENDROOT
BRANCH   3  20
ATOM     20  C   UNL     1      -1.851   2.082   0.417  0.00  0.00    +0.141 C 
BRANCH  20  21
ATOM     21  O   UNL     1      -2.192   2.344  -0.925  0.00  0.00    -0.351 OA
ATOM     22  C   UNL     1      -2.018   3.718  -1.261  0.00  0.00    +0.174 C 
ENDBRANCH  20  21
ENDBRANCH   3  20
TORSDOF 2
