REMARK  Name = 656604
REMARK  7 active torsions:
REMARK  status: ('A' for Active; 'I' for Inactive)
REMARK    1  A    between atoms: N_2  and  CA_10
REMARK    2  A    between atoms: C_3  and  C_5
REMARK    3  A    between atoms: C_5  and  S_8
REMARK    4  A    between atoms: CA_10  and  C_12
REMARK    5  A    between atoms: CA_10  and  CB_15
REMARK    6  A    between atoms: C_12  and  O_13
REMARK    7  A    between atoms: CB_15  and  SG_16
REMARK                            x       y       z     vdW  Elec       q    Type
REMARK                         _______ _______ _______ _____ _____    ______ ____
ROOT
ATOM      1  O   UNL     1      -1.208   0.674  -1.748  0.00  0.00    -0.274 OA
ATOM      2  N   UNL     1       0.054  -0.046   0.046  0.00  0.00    -0.295 N 
ATOM      3  C   ACE A   0      -1.141   0.226  -0.604  0.00  0.00    +0.231 C 
ATOM      4  H   UNL     1       0.022  -0.405   0.963  0.00  0.00    +0.150 HD
ENDROOT
BRANCH   3   5
ATOM      5  C   UNL     1      -2.398  -0.082   0.229  0.00  0.00    +0.104 C 
ATOM      6  C   UNL     1      -3.664   0.251  -0.573  0.00  0.00    +0.020 C 
ATOM      7  C   UNL     1      -2.409   0.700   1.547  0.00  0.00    +0.020 C 
BRANCH   5   8
ATOM      8  S   UNL     1      -2.415  -1.884   0.578  0.00  0.00    -0.161 S 
ATOM      9  H   UNL     1      -2.405  -2.573  -0.595  0.00  0.00    +0.103 HD
ENDBRANCH   5   8
ENDBRANCH   3   5
BRANCH   2  10
ATOM     10  CA  UNL     1       1.343   0.174  -0.567  0.00  0.00    +0.182 C 
BRANCH  10  12
ATOM     11  OXT UNL     1       3.486  -0.958  -0.619  0.00  0.00    -0.248 OA
ATOM     12  C   UNL     1       2.357  -0.878  -0.150  0.00  0.00    +0.333 C 
BRANCH  12  13
ATOM     13  O   UNL     1       1.886  -1.735   0.786  0.00  0.00    -0.479 OA
ATOM     14  H   UNL     1       1.014  -1.636   1.116  0.00  0.00    +0.295 HD
ENDBRANCH  12  13
ENDBRANCH  10  12
BRANCH  10  15
ATOM     15  CB  UNL     1       1.852   1.599  -0.334  0.00  0.00    +0.084 C 
BRANCH  15  16
ATOM     16  SG  UNL     1       2.256   1.959   1.408  0.00  0.00    -0.166 S 
ATOM     17  HG  UNL     1       2.697   3.241   1.515  0.00  0.00    +0.102 HD
ENDBRANCH  15  16
ENDBRANCH  10  15
ENDBRANCH   2  10
TORSDOF 7
