REMARK  Name = 59473233
REMARK  3 active torsions:
REMARK  status: ('A' for Active; 'I' for Inactive)
REMARK    1  A    between atoms: N_1  and  C_25
REMARK    2  A    between atoms: C_7  and  C_14
REMARK    3  A    between atoms: C_22  and  N_29
REMARK                            x       y       z     vdW  Elec       q    Type
REMARK                         _______ _______ _______ _____ _____    ______ ____
ROOT
ATOM      1  N   UNL     1      -0.147   2.684  -0.553  0.00  0.00    -0.286 N 
ATOM      2  N   UNL     1       3.422   2.706   0.427  0.00  0.00    -0.260 N 
ATOM      3  N   UNL     1       1.425   0.965  -0.376  0.00  0.00    -0.387 NA
ATOM      4  N   UNL     1       2.059   4.467   0.307  0.00  0.00    -0.224 NA
ATOM      5  C   UNL     1       1.126   2.245  -0.271  0.00  0.00    +0.216 C 
ATOM      6  C   UNL     1       2.163   3.168   0.146  0.00  0.00    +0.180 C 
ATOM      7  C   UNL     1       2.719   0.530  -0.089  0.00  0.00    +0.131 C 
ATOM      8  C   UNL     1       3.708   1.361   0.310  0.00  0.00    +0.156 C 
ATOM      9  C   UNL     1       4.176   3.785   0.794  0.00  0.00    +0.088 C 
ATOM     10  C   UNL     1       3.314   4.858   0.712  0.00  0.00    +0.117 C 
ATOM     11  H   UNL     1      -0.230   3.601  -0.902  0.00  0.00    +0.155 HD
ENDROOT
BRANCH   7  14
ATOM     12  N   UNL     1       2.012  -4.297   0.987  0.00  0.00    -0.236 N 
ATOM     13  N   UNL     1       2.564  -5.449   0.571  0.00  0.00    -0.180 NA
ATOM     14  C   UNL     1       2.987  -0.920  -0.214  0.00  0.00    +0.028 C 
ATOM     15  C   UNL     1       2.539  -3.178   0.400  0.00  0.00    +0.067 C 
ATOM     16  C   UNL     1       2.246  -1.822   0.557  0.00  0.00    +0.018 C 
ATOM     17  C   UNL     1       3.515  -3.647  -0.472  0.00  0.00    +0.035 C 
ATOM     18  C   UNL     1       3.974  -1.364  -1.096  0.00  0.00    +0.002 C 
ATOM     19  C   UNL     1       4.252  -2.729  -1.239  0.00  0.00    +0.003 C 
ATOM     20  C   UNL     1       3.478  -5.050  -0.316  0.00  0.00    +0.119 C 
ATOM     21  H   UNL     1       1.292  -4.261   1.657  0.00  0.00    +0.174 HD
ENDBRANCH   7  14
BRANCH   1  25
ATOM     22  C   UNL     1      -3.696   0.523  -0.084  0.00  0.00    +0.048 C 
ATOM     23  C   UNL     1      -3.596   1.492  -1.083  0.00  0.00    +0.016 C 
ATOM     24  C   UNL     1      -2.612   0.276   0.758  0.00  0.00    +0.016 C 
ATOM     25  C   UNL     1      -1.329   1.966  -0.396  0.00  0.00    +0.050 C 
ATOM     26  C   UNL     1      -2.412   2.214  -1.239  0.00  0.00    +0.016 C 
ATOM     27  C   UNL     1      -1.429   0.997   0.603  0.00  0.00    +0.016 C 
BRANCH  22  29
ATOM     28  O   UNL     1      -7.246  -1.720   0.115  0.00  0.00    -0.350 OA
ATOM     29  N   UNL     1      -4.883  -0.200   0.072  0.00  0.00    -0.303 N 
ATOM     30  C   UNL     1      -4.829  -1.661  -0.073  0.00  0.00    +0.123 C 
ATOM     31  C   UNL     1      -6.167   0.416  -0.282  0.00  0.00    +0.123 C 
ATOM     32  C   UNL     1      -6.036  -2.291   0.612  0.00  0.00    +0.164 C 
ATOM     33  C   UNL     1      -7.303  -0.326   0.413  0.00  0.00    +0.164 C 
ENDBRANCH  22  29
ENDBRANCH   1  25
TORSDOF 3
