REMARK  Name = 46892373
REMARK  3 active torsions:
REMARK  status: ('A' for Active; 'I' for Inactive)
REMARK    1  A    between atoms: C_7  and  C_20
REMARK    2  A    between atoms: C_20  and  C_22
REMARK    3  A    between atoms: C_20  and  O_28
REMARK                            x       y       z     vdW  Elec       q    Type
REMARK                         _______ _______ _______ _____ _____    ______ ____
ROOT
ATOM      1  N   UNL     1       0.402  -0.284  -0.773  0.00  0.00    -0.326 NA
ATOM      2  N   UNL     1       1.756   1.583  -0.306  0.00  0.00    -0.271 N 
ATOM      3  N   UNL     1       1.206  -2.519  -0.365  0.00  0.00    -0.345 NA
ATOM      4  N   UNL     1      -0.868   3.814   0.131  0.00  0.00    -0.239 N 
ATOM      5  N   UNL     1      -0.465   2.536   0.037  0.00  0.00    -0.166 NA
ATOM      6  C   UNL     1       2.618  -0.642   0.124  0.00  0.00    +0.072 C 
ATOM      7  C   UNL     1       0.284  -1.621  -0.767  0.00  0.00    +0.146 C 
ATOM      8  C   UNL     1       1.583   0.176  -0.320  0.00  0.00    +0.199 C 
ATOM      9  C   UNL     1       2.375  -2.025   0.081  0.00  0.00    +0.129 C 
ATOM     10  C   UNL     1       3.843  -0.138   0.592  0.00  0.00    +0.006 C 
ATOM     11  C   UNL     1       3.387  -2.877   0.518  0.00  0.00    +0.086 C 
ATOM     12  C   UNL     1       0.853   2.647  -0.149  0.00  0.00    +0.152 C 
ATOM     13  C   UNL     1       4.837  -1.011   1.022  0.00  0.00    -0.004 C 
ATOM     14  C   UNL     1       4.608  -2.382   0.985  0.00  0.00    -0.019 C 
ATOM     15  C   UNL     1       1.288   3.985  -0.174  0.00  0.00    +0.048 C 
ATOM     16  C   UNL     1       0.143   4.721   0.011  0.00  0.00    +0.046 C 
ATOM     17  C   UNL     1      -0.092   6.172   0.084  0.00  0.00    +0.049 C 
ATOM     18  H   UNL     1       2.689   1.870  -0.432  0.00  0.00    +0.156 HD
ATOM     19  H   UNL     1      -1.808   4.072   0.273  0.00  0.00    +0.174 HD
ENDROOT
BRANCH   7  20
ATOM     20  C   UNL     1      -1.010  -2.177  -1.261  0.00  0.00    +0.243 C 
BRANCH  20  22
ATOM     21  F   UNL     1      -5.514  -0.423   1.671  0.00  0.00    -0.204 F 
ATOM     22  C   UNL     1      -2.224  -1.704  -0.470  0.00  0.00    +0.021 C 
ATOM     23  C   UNL     1      -2.582  -2.352   0.712  0.00  0.00    +0.001 C 
ATOM     24  C   UNL     1      -2.978  -0.624  -0.929  0.00  0.00    +0.001 C 
ATOM     25  C   UNL     1      -3.693  -1.919   1.436  0.00  0.00    +0.029 C 
ATOM     26  C   UNL     1      -4.090  -0.191  -0.206  0.00  0.00    +0.029 C 
ATOM     27  C   UNL     1      -4.447  -0.839   0.977  0.00  0.00    +0.140 C 
ENDBRANCH  20  22
BRANCH  20  28
ATOM     28  O   UNL     1      -1.220  -1.908  -2.659  0.00  0.00    -0.366 OA
ATOM     29  H   UNL     1      -0.449  -2.207  -3.166  0.00  0.00    +0.212 HD
ENDBRANCH  20  28
ENDBRANCH   7  20
TORSDOF 3
