REMARK  Name = 9859632
REMARK  7 active torsions:
REMARK  status: ('A' for Active; 'I' for Inactive)
REMARK    1  A    between atoms: C_2  and  C_4
REMARK    2  A    between atoms: C_2  and  C_13
REMARK    3  A    between atoms: C_5  and  N_10
REMARK    4  A    between atoms: C_13  and  CA_14
REMARK    5  A    between atoms: CA_14  and  N_15
REMARK    6  A    between atoms: CA_14  and  C_20
REMARK    7  A    between atoms: C_20  and  O_21
REMARK                            x       y       z     vdW  Elec       q    Type
REMARK                         _______ _______ _______ _____ _____    ______ ____
ROOT
ATOM      1  O   UNL     1      -0.956  -0.960  -1.436  0.00  0.00    -0.291 OA
ATOM      2  C   UNL     1      -0.550   0.027  -0.824  0.00  0.00    +0.173 C 
ENDROOT
BRANCH   2   4
ATOM      3 CL   UNL     1       5.180   0.432   0.796  0.00  0.00    -0.082 Cl
ATOM      4  C   UNL     1       0.885   0.102  -0.419  0.00  0.00    +0.048 C 
ATOM      5  C   UNL     1       1.587  -1.052  -0.152  0.00  0.00    +0.045 C 
ATOM      6  C   UNL     1       1.453   1.354  -0.327  0.00  0.00    +0.005 C 
ATOM      7  C   UNL     1       2.926  -0.950   0.226  0.00  0.00    +0.026 C 
ATOM      8  C   UNL     1       2.792   1.456   0.052  0.00  0.00    +0.012 C 
ATOM      9  C   UNL     1       3.528   0.304   0.328  0.00  0.00    +0.059 C 
BRANCH   5  10
ATOM     10  N   UNL     1       0.995  -2.331  -0.249  0.00  0.00    -0.357 N 
ATOM     11  H   UNL     1       0.051  -2.418  -0.515  0.00  0.00    +0.142 HD
ATOM     12  H   UNL     1       1.527  -3.136  -0.050  0.00  0.00    +0.142 HD
ENDBRANCH   5  10
ENDBRANCH   2   4
BRANCH   2  13
ATOM     13  C   UNL     1      -1.503   1.158  -0.474  0.00  0.00    +0.058 C 
BRANCH  13  14
ATOM     14  CA  UNL     1      -2.952   0.676  -0.383  0.00  0.00    +0.043 C 
BRANCH  14  15
ATOM     15  N   UNL     1      -3.817   1.812  -0.052  0.00  0.00    +0.389 N 
ATOM     16  H1  UNL     1      -3.738   2.522  -0.780  0.00  0.00    -0.088 HD
ATOM     17  H2  UNL     1      -3.530   2.208   0.842  0.00  0.00    -0.088 HD
ATOM     18  H3  UNL     1      -4.784   1.495   0.010  0.00  0.00    -0.088 HD
ENDBRANCH  14  15
BRANCH  14  20
ATOM     19  OXT UNL     1      -2.797  -0.175   1.901  0.00  0.00    -0.253 OA
ATOM     20  C   UNL     1      -3.108  -0.348   0.730  0.00  0.00    +0.293 C 
BRANCH  20  21
ATOM     21  O   UNL     1      -3.663  -1.505   0.283  0.00  0.00    -0.482 OA
ATOM     22  H   UNL     1      -3.886  -1.599  -0.622  0.00  0.00    +0.295 HD
ENDBRANCH  20  21
ENDBRANCH  14  20
ENDBRANCH  13  14
ENDBRANCH   2  13
TORSDOF 7
