REMARK  Name = 10236037
REMARK  8 active torsions:
REMARK  status: ('A' for Active; 'I' for Inactive)
REMARK    1  A    between atoms: C_1  and  N_2
REMARK    2  A    between atoms: C_1  and  C_6
REMARK    3  A    between atoms: C_1  and  C_12
REMARK    4  A    between atoms: C_6  and  C_7
REMARK    5  A    between atoms: C_7  and  C_9
REMARK    6  A    between atoms: C_9  and  C_10
REMARK    7  A    between atoms: C_12  and  C_14
REMARK    8  A    between atoms: C_14  and  O_15
REMARK                            x       y       z     vdW  Elec       q    Type
REMARK                         _______ _______ _______ _____ _____    ______ ____
ROOT
ATOM      1  C   UNL     1      -1.038  -0.994  -0.485  0.00  0.00    -0.055 C 
ENDROOT
BRANCH   1   2
ATOM      2  N   UNL     1      -0.666  -1.873  -1.594  0.00  0.00    +0.382 N 
ATOM      3  H   UNL     1       0.145  -2.432  -1.328  0.00  0.00    -0.089 HD
ATOM      4  H   UNL     1      -0.436  -1.309  -2.413  0.00  0.00    -0.089 HD
ATOM      5  H   UNL     1      -1.447  -2.491  -1.815  0.00  0.00    -0.089 HD
ENDBRANCH   1   2
BRANCH   1   6
ATOM      6  C   UNL     1       0.165  -0.138  -0.035  0.00  0.00    -0.021 C 
BRANCH   6   7
ATOM      7  C   UNL     1       1.466  -0.917   0.285  0.00  0.00    -0.002 C 
ATOM      8  C   UNL     1       1.196  -1.857   1.468  0.00  0.00    -0.000 C 
BRANCH   7   9
ATOM      9  C   UNL     1       2.648   0.034   0.568  0.00  0.00    -0.000 C 
BRANCH   9  10
ATOM     10  C   UNL     1       3.001   0.949  -0.608  0.00  0.00    -0.000 C 
ATOM     11  C   UNL     1       4.217   1.809  -0.296  0.00  0.00    -0.000 C 
ENDBRANCH   9  10
ENDBRANCH   7   9
ENDBRANCH   6   7
ENDBRANCH   1   6
BRANCH   1  12
ATOM     12  C   UNL     1      -2.258  -0.131  -0.844  0.00  0.00    +0.088 C 
BRANCH  12  14
ATOM     13  O   UNL     1      -2.706   0.462   1.464  0.00  0.00    -0.250 OA
ATOM     14  C   UNL     1      -2.759   0.748   0.277  0.00  0.00    +0.312 C 
BRANCH  14  15
ATOM     15  O   UNL     1      -3.268   1.910  -0.201  0.00  0.00    -0.480 OA
ATOM     16  H   UNL     1      -3.281   2.071  -1.124  0.00  0.00    +0.295 HD
ENDBRANCH  14  15
ENDBRANCH  12  14
ENDBRANCH   1  12
TORSDOF 8
