REMARK  Name = 25195624
REMARK  13 active torsions:
REMARK  status: ('A' for Active; 'I' for Inactive)
REMARK    1  A    between atoms: C_2  and  C_12
REMARK    2  A    between atoms: C_5  and  C_23
REMARK    3  A    between atoms: C_9  and  O_14
REMARK    4  A    between atoms: C_10  and  O_16
REMARK    5  A    between atoms: C_11  and  O_18
REMARK    6  A    between atoms: C_13  and  C_20
REMARK    7  A    between atoms: C_20  and  O_21
REMARK    8  A    between atoms: C_23  and  C_24
REMARK    9  A    between atoms: C_25  and  O_30
REMARK   10  A    between atoms: O_30  and  C_31
REMARK   11  A    between atoms: C_31  and  C_32
REMARK   12  A    between atoms: C_32  and  O_33
REMARK   13  A    between atoms: O_33  and  C_34
REMARK                            x       y       z     vdW  Elec       q    Type
REMARK                         _______ _______ _______ _____ _____    ______ ____
ROOT
ATOM      1 CL   UNL     1      -0.044  -4.514  -1.337  0.00  0.00    -0.083 Cl
ATOM      2  C   UNL     1       2.613  -0.882  -0.971  0.00  0.00    +0.007 C 
ATOM      3  C   UNL     1       1.812  -1.259   0.107  0.00  0.00    -0.005 C 
ATOM      4  C   UNL     1       2.589  -1.626  -2.151  0.00  0.00    -0.001 C 
ATOM      5  C   UNL     1       0.987  -2.380   0.005  0.00  0.00    -0.007 C 
ATOM      6  C   UNL     1       1.764  -2.746  -2.253  0.00  0.00    +0.011 C 
ATOM      7  C   UNL     1       0.963  -3.123  -1.175  0.00  0.00    +0.054 C 
ENDROOT
BRANCH   2  12
ATOM      8  O   UNL     1       4.466   0.079   0.172  0.00  0.00    -0.347 OA
ATOM      9  C   UNL     1       3.642   2.795  -0.293  0.00  0.00    +0.169 C 
ATOM     10  C   UNL     1       2.708   1.612  -0.558  0.00  0.00    +0.171 C 
ATOM     11  C   UNL     1       4.734   2.427   0.712  0.00  0.00    +0.169 C 
ATOM     12  C   UNL     1       3.509   0.336  -0.861  0.00  0.00    +0.167 C 
ATOM     13  C   UNL     1       5.428   1.125   0.308  0.00  0.00    +0.174 C 
BRANCH   9  14
ATOM     14  O   UNL     1       2.890   3.881   0.251  0.00  0.00    -0.379 OA
ATOM     15  H   UNL     1       2.190   4.133  -0.371  0.00  0.00    +0.211 HD
ENDBRANCH   9  14
BRANCH  10  16
ATOM     16  O   UNL     1       1.886   1.913  -1.685  0.00  0.00    -0.379 OA
ATOM     17  H   UNL     1       1.374   2.717  -1.507  0.00  0.00    +0.211 HD
ENDBRANCH  10  16
BRANCH  11  18
ATOM     18  O   UNL     1       5.697   3.477   0.765  0.00  0.00    -0.379 OA
ATOM     19  H   UNL     1       5.260   4.304   1.021  0.00  0.00    +0.211 HD
ENDBRANCH  11  18
BRANCH  13  20
ATOM     20  C   UNL     1       6.445   0.679   1.353  0.00  0.00    +0.169 C 
BRANCH  20  21
ATOM     21  O   UNL     1       7.037  -0.532   0.919  0.00  0.00    -0.379 OA
ATOM     22  H   UNL     1       7.687  -0.828   1.576  0.00  0.00    +0.211 HD
ENDBRANCH  20  21
ENDBRANCH  13  20
ENDBRANCH   2  12
BRANCH   5  23
ATOM     23  C   UNL     1       0.145  -2.751   1.183  0.00  0.00    +0.053 C 
BRANCH  23  24
ATOM     24  C   UNL     1      -1.224  -2.105   1.184  0.00  0.00    -0.018 C 
ATOM     25  C   UNL     1      -3.747  -0.915   1.185  0.00  0.00    +0.139 C 
ATOM     26  C   UNL     1      -1.368  -0.776   1.582  0.00  0.00    -0.001 C 
ATOM     27  C   UNL     1      -2.341  -2.839   0.786  0.00  0.00    -0.001 C 
ATOM     28  C   UNL     1      -2.630  -0.181   1.582  0.00  0.00    +0.037 C 
ATOM     29  C   UNL     1      -3.603  -2.244   0.787  0.00  0.00    +0.037 C 
BRANCH  25  30
ATOM     30  O   UNL     1      -4.978  -0.334   1.185  0.00  0.00    -0.473 OA
BRANCH  30  31
ATOM     31  C   UNL     1      -5.920  -0.807   0.223  0.00  0.00    +0.237 C 
BRANCH  31  32
ATOM     32  C   UNL     1      -6.871   0.318  -0.133  0.00  0.00    +0.189 C 
BRANCH  32  33
ATOM     33  O   UNL     1      -6.125   1.409  -0.658  0.00  0.00    -0.352 OA
BRANCH  33  34
ATOM     34  C   UNL     1      -6.973   2.525  -1.047  0.00  0.00    +0.116 C 
ATOM     35  C   UNL     1      -7.197   3.576   0.000  0.00  0.00    +0.032 C 
ATOM     36  C   UNL     1      -6.296   3.859  -1.165  0.00  0.00    +0.032 C 
ENDBRANCH  33  34
ENDBRANCH  32  33
ENDBRANCH  31  32
ENDBRANCH  30  31
ENDBRANCH  25  30
ENDBRANCH  23  24
ENDBRANCH   5  23
TORSDOF 13
