REMARK  Name = 11953153
REMARK  7 active torsions:
REMARK  status: ('A' for Active; 'I' for Inactive)
REMARK    1  A    between atoms: C_8  and  C_21
REMARK    2  A    between atoms: C_11  and  C_16
REMARK    3  A    between atoms: C_12  and  C_20
REMARK    4  A    between atoms: C_21  and  C_22
REMARK    5  A    between atoms: C_22  and  N_23
REMARK    6  A    between atoms: C_22  and  C_27
REMARK    7  A    between atoms: C_27  and  N_31
REMARK                            x       y       z     vdW  Elec       q    Type
REMARK                         _______ _______ _______ _____ _____    ______ ____
ROOT
ATOM      1  O   UNL     1       1.152   4.298  -0.549  0.00  0.00    -0.275 OA
ATOM      2  N   UNL     1      -0.009   2.300  -0.818  0.00  0.00    -0.273 N 
ATOM      3  N   UNL     1      -1.370  -1.151  -0.476  0.00  0.00    -0.344 NA
ATOM      4  N   UNL     1      -3.694  -1.049   0.148  0.00  0.00    -0.337 NA
ATOM      5  C   UNL     1      -1.265   2.965  -1.168  0.00  0.00    +0.095 C 
ATOM      6  C   UNL     1      -0.020   0.831  -0.880  0.00  0.00    +0.149 C 
ATOM      7  C   UNL     1      -2.399   2.479  -0.272  0.00  0.00    +0.035 C 
ATOM      8  C   UNL     1       1.139   3.066  -0.602  0.00  0.00    +0.224 C 
ATOM      9  C   UNL     1      -2.459   0.984  -0.250  0.00  0.00    +0.110 C 
ATOM     10  C   UNL     1      -1.340   0.202  -0.516  0.00  0.00    +0.125 C 
ATOM     11  C   UNL     1      -3.611   0.295   0.090  0.00  0.00    +0.198 C 
ATOM     12  C   UNL     1      -2.554  -1.700  -0.145  0.00  0.00    +0.210 C 
ENDROOT
BRANCH  11  16
ATOM     13  F   UNL     1      -4.745   2.382   0.377  0.00  0.00    -0.164 F 
ATOM     14  F   UNL     1      -5.916   0.724  -0.387  0.00  0.00    -0.164 F 
ATOM     15  F   UNL     1      -5.302   0.749   1.699  0.00  0.00    -0.164 F 
ATOM     16  C   UNL     1      -4.869   1.024   0.436  0.00  0.00    +0.443 C 
ENDBRANCH  11  16
BRANCH  12  20
ATOM     17  F   UNL     1      -1.417  -3.789  -0.400  0.00  0.00    -0.156 F 
ATOM     18  F   UNL     1      -2.950  -3.684   1.131  0.00  0.00    -0.156 F 
ATOM     19  F   UNL     1      -3.514  -3.712  -0.970  0.00  0.00    -0.156 F 
ATOM     20  C   UNL     1      -2.606  -3.189  -0.095  0.00  0.00    +0.500 C 
ENDBRANCH  12  20
BRANCH   8  21
ATOM     21  C   UNL     1       2.428   2.304  -0.417  0.00  0.00    +0.065 C 
BRANCH  21  22
ATOM     22  C   UNL     1       2.665   1.967   1.056  0.00  0.00    -0.036 C 
BRANCH  22  23
ATOM     23  N   UNL     1       2.666   3.232   1.798  0.00  0.00    +0.383 N 
ATOM     24  H   UNL     1       2.822   3.045   2.789  0.00  0.00    -0.089 HD
ATOM     25  H   UNL     1       1.767   3.698   1.678  0.00  0.00    -0.089 HD
ATOM     26  H   UNL     1       3.410   3.834   1.444  0.00  0.00    -0.089 HD
ENDBRANCH  22  23
BRANCH  22  27
ATOM     27  C   UNL     1       3.998   1.247   1.308  0.00  0.00    +0.072 C 
BRANCH  27  31
ATOM     28  F   UNL     1       2.630  -3.357   0.972  0.00  0.00    -0.202 F 
ATOM     29  F   UNL     1       2.295  -2.085  -0.760  0.00  0.00    -0.202 F 
ATOM     30  O   UNL     1       5.914   0.626  -0.660  0.00  0.00    -0.275 OA
ATOM     31  N   UNL     1       4.091  -0.034   0.620  0.00  0.00    -0.276 N 
ATOM     32  C   UNL     1       3.244  -1.103   1.149  0.00  0.00    +0.160 C 
ATOM     33  C   UNL     1       3.150  -2.324   0.265  0.00  0.00    +0.282 C 
ATOM     34  C   UNL     1       4.505  -2.711  -0.275  0.00  0.00    +0.078 C 
ATOM     35  C   UNL     1       5.076  -1.557  -1.073  0.00  0.00    +0.091 C 
ATOM     36  C   UNL     1       5.089  -0.232  -0.334  0.00  0.00    +0.226 C 
ENDBRANCH  27  31
ENDBRANCH  22  27
ENDBRANCH  21  22
ENDBRANCH   8  21
TORSDOF 7
