REMARK  Name = 66571548
REMARK  8 active torsions:
REMARK  status: ('A' for Active; 'I' for Inactive)
REMARK    1  A    between atoms: C_2  and  C_10
REMARK    2  A    between atoms: C_2  and  C_22
REMARK    3  A    between atoms: N_3  and  C_15
REMARK    4  A    between atoms: C_15  and  C_18
REMARK    5  A    between atoms: C_18  and  O_19
REMARK    6  A    between atoms: C_25  and  N_28
REMARK    7  A    between atoms: C_29  and  C_31
REMARK    8  A    between atoms: C_31  and  C_34
REMARK                            x       y       z     vdW  Elec       q    Type
REMARK                         _______ _______ _______ _____ _____    ______ ____
ROOT
ATOM      1  O   UNL     1      -3.554  -2.784   0.947  0.00  0.00    -0.286 OA
ATOM      2  C   UNL     1      -2.585  -2.225   0.389  0.00  0.00    +0.199 C 
ENDROOT
BRANCH   2  10
ATOM      3  N   UNL     1      -2.236   1.072  -1.036  0.00  0.00    -0.261 N 
ATOM      4  N   UNL     1      -3.544   2.608   0.285  0.00  0.00    -0.322 NA
ATOM      5  N   UNL     1      -4.686   1.527   2.144  0.00  0.00    -0.170 NA
ATOM      6  N   UNL     1      -4.893   3.826   1.756  0.00  0.00    -0.293 N 
ATOM      7  C   UNL     1      -3.072   1.381   0.004  0.00  0.00    +0.201 C 
ATOM      8  C   UNL     1      -1.962  -0.271  -1.020  0.00  0.00    +0.071 C 
ATOM      9  C   UNL     1      -3.337   0.209   0.702  0.00  0.00    +0.069 C 
ATOM     10  C   UNL     1      -2.631  -0.832   0.048  0.00  0.00    +0.059 C 
ATOM     11  C   UNL     1      -4.178   0.318   1.809  0.00  0.00    +0.116 C 
ATOM     12  C   UNL     1      -4.342   2.582   1.371  0.00  0.00    +0.143 C 
ATOM     13  H   UNL     1      -4.685   4.637   1.238  0.00  0.00    +0.155 HD
ATOM     14  H   UNL     1      -5.485   3.881   2.540  0.00  0.00    +0.155 HD
BRANCH   3  15
ATOM     15  C   UNL     1      -1.681   2.070  -2.071  0.00  0.00    +0.091 C 
ATOM     16  C   UNL     1      -0.759   1.417  -3.129  0.00  0.00    +0.023 C 
ATOM     17  C   UNL     1      -2.862   2.710  -2.837  0.00  0.00    +0.023 C 
BRANCH  15  18
ATOM     18  C   UNL     1      -0.883   3.193  -1.361  0.00  0.00    +0.155 C 
BRANCH  18  19
ATOM     19  O   UNL     1       0.284   2.665  -0.739  0.00  0.00    -0.380 OA
ATOM     20  H   UNL     1       0.769   3.382  -0.301  0.00  0.00    +0.211 HD
ENDBRANCH  18  19
ENDBRANCH  15  18
ENDBRANCH   3  15
ENDBRANCH   2  10
BRANCH   2  22
ATOM     21  N   UNL     1      -0.520  -5.297  -0.398  0.00  0.00    -0.241 NA
ATOM     22  C   UNL     1      -1.394  -3.100   0.107  0.00  0.00    +0.059 C 
ATOM     23  C   UNL     1      -0.106  -2.575   0.088  0.00  0.00    +0.021 C 
ATOM     24  C   UNL     1      -1.546  -4.455  -0.139  0.00  0.00    +0.102 C 
ATOM     25  C   UNL     1       0.975  -3.410  -0.174  0.00  0.00    +0.070 C 
ATOM     26  C   UNL     1       0.717  -4.751  -0.409  0.00  0.00    +0.113 C 
BRANCH  25  28
ATOM     27  O   UNL     1       2.000  -0.623   0.270  0.00  0.00    -0.274 OA
ATOM     28  N   UNL     1       2.276  -2.913  -0.199  0.00  0.00    -0.282 N 
ATOM     29  C   UNL     1       2.709  -1.593   0.017  0.00  0.00    +0.232 C 
ATOM     30  H   UNL     1       2.982  -3.570  -0.393  0.00  0.00    +0.155 HD
BRANCH  29  31
ATOM     31  C   UNL     1       4.221  -1.484  -0.103  0.00  0.00    +0.131 C 
BRANCH  31  34
ATOM     32 CL   UNL     1       6.306   3.954   1.109  0.00  0.00    -0.081 Cl
ATOM     33  N   UNL     1       5.069   0.183   1.453  0.00  0.00    -0.247 NA
ATOM     34  C   UNL     1       4.746  -0.099   0.171  0.00  0.00    +0.068 C 
ATOM     35  C   UNL     1       4.870   0.800  -0.876  0.00  0.00    +0.016 C 
ATOM     36  C   UNL     1       5.358   2.070  -0.589  0.00  0.00    +0.014 C 
ATOM     37  C   UNL     1       5.540   1.427   1.694  0.00  0.00    +0.110 C 
ATOM     38  C   UNL     1       5.701   2.398   0.718  0.00  0.00    +0.077 C 
ENDBRANCH  31  34
ENDBRANCH  29  31
ENDBRANCH  25  28
ENDBRANCH   2  22
TORSDOF 8
