REMARK  Name = 25101874
REMARK  5 active torsions:
REMARK  status: ('A' for Active; 'I' for Inactive)
REMARK    1  A    between atoms: N_1  and  C_22
REMARK    2  A    between atoms: C_2  and  N_8
REMARK    3  A    between atoms: N_8  and  C_11
REMARK    4  A    between atoms: C_11  and  C_14
REMARK    5  A    between atoms: C_22  and  C_28
REMARK                            x       y       z     vdW  Elec       q    Type
REMARK                         _______ _______ _______ _____ _____    ______ ____
ROOT
ATOM      1  N   UNL     1      -1.292  -0.616   0.283  0.00  0.00    +0.388 N 
ATOM      2  C   UNL     1       1.616  -0.938   0.316  0.00  0.00    -0.066 C 
ATOM      3  C   UNL     1      -0.637  -1.559  -0.634  0.00  0.00    -0.079 C 
ATOM      4  C   UNL     1      -0.544  -0.491   1.542  0.00  0.00    -0.079 C 
ATOM      5  C   UNL     1       0.790  -1.111  -0.961  0.00  0.00    -0.044 C 
ATOM      6  C   UNL     1       0.886  -0.007   1.288  0.00  0.00    -0.044 C 
ATOM      7  H   UNL     1      -1.306   0.299  -0.166  0.00  0.00    -0.080 HD
ENDROOT
BRANCH   2   8
ATOM      8  N   UNL     1       2.943  -0.419  -0.007  0.00  0.00    +0.389 N 
ATOM      9  H   UNL     1       2.880   0.587  -0.164  0.00  0.00    -0.084 HD
ATOM     10  H   UNL     1       3.282  -0.889  -0.847  0.00  0.00    -0.084 HD
BRANCH   8  11
ATOM     11  C   UNL     1       3.877  -0.675   1.079  0.00  0.00    -0.034 C 
BRANCH  11  14
ATOM     12  O   UNL     1       8.958   1.440   0.079  0.00  0.00    -0.474 OA
ATOM     13  N   UNL     1       5.609   1.003   1.390  0.00  0.00    -0.247 NA
ATOM     14  C   UNL     1       5.253  -0.145   0.773  0.00  0.00    +0.037 C 
ATOM     15  C   UNL     1       6.068  -0.841  -0.106  0.00  0.00    +0.011 C 
ATOM     16  C   UNL     1       7.337  -0.327  -0.379  0.00  0.00    +0.015 C 
ATOM     17  C   UNL     1       8.257  -1.043  -1.325  0.00  0.00    +0.033 C 
ATOM     18  C   UNL     1       7.742   0.845   0.263  0.00  0.00    +0.154 C 
ATOM     19  C   UNL     1       9.384  -0.118  -1.765  0.00  0.00    +0.052 C 
ATOM     20  C   UNL     1       6.847   1.472   1.118  0.00  0.00    +0.135 C 
ATOM     21  C   UNL     1       9.941   0.609  -0.550  0.00  0.00    +0.206 C 
ENDBRANCH  11  14
ENDBRANCH   8  11
ENDBRANCH   2   8
BRANCH   1  22
ATOM     22  C   UNL     1      -2.670  -1.031   0.545  0.00  0.00    -0.055 C 
BRANCH  22  28
ATOM     23  O   UNL     1      -5.163  -3.219  -0.174  0.00  0.00    -0.273 OA
ATOM     24  O   UNL     1      -4.824   3.677  -0.658  0.00  0.00    -0.270 OA
ATOM     25  N   UNL     1      -5.009  -0.891  -0.274  0.00  0.00    -0.261 N 
ATOM     26  N   UNL     1      -4.947   1.369  -0.448  0.00  0.00    -0.255 N 
ATOM     27  N   UNL     1      -7.750  -0.826   0.317  0.00  0.00    -0.262 NA
ATOM     28  C   UNL     1      -3.596  -0.597  -0.585  0.00  0.00    +0.076 C 
ATOM     29  C   UNL     1      -3.581   0.943  -0.784  0.00  0.00    +0.113 C 
ATOM     30  C   UNL     1      -5.708   0.269  -0.193  0.00  0.00    +0.196 C 
ATOM     31  C   UNL     1      -7.007   0.304   0.091  0.00  0.00    +0.092 C 
ATOM     32  C   UNL     1      -5.638  -2.097  -0.102  0.00  0.00    +0.252 C 
ATOM     33  C   UNL     1      -5.459   2.652  -0.426  0.00  0.00    +0.251 C 
ATOM     34  C   UNL     1      -7.636   1.605   0.149  0.00  0.00    +0.022 C 
ATOM     35  C   UNL     1      -7.116  -1.959   0.225  0.00  0.00    +0.210 C 
ATOM     36  C   UNL     1      -6.927   2.725  -0.087  0.00  0.00    +0.059 C 
ENDBRANCH  22  28
ENDBRANCH   1  22
TORSDOF 5
