REMARK  Name = 3712
REMARK  2 active torsions:
REMARK  status: ('A' for Active; 'I' for Inactive)
REMARK    1  A    between atoms: C_3  and  C_11
REMARK    2  A    between atoms: C_11  and  O_12
REMARK                            x       y       z     vdW  Elec       q    Type
REMARK                         _______ _______ _______ _____ _____    ______ ____
ROOT
ATOM      1  N   UNL     1       0.097   1.976  -0.074  0.00  0.00    -0.312 N 
ATOM      2  C   UNL     1      -0.003  -0.242   0.148  0.00  0.00    +0.013 C 
ATOM      3  C   UNL     1       1.353   0.176   0.256  0.00  0.00    +0.023 C 
ATOM      4  C   UNL     1      -0.771   0.906  -0.058  0.00  0.00    +0.048 C 
ATOM      5  C   UNL     1       1.382   1.544   0.116  0.00  0.00    +0.060 C 
ATOM      6  C   UNL     1      -0.654  -1.490   0.207  0.00  0.00    +0.001 C 
ATOM      7  C   UNL     1      -2.161   0.869  -0.210  0.00  0.00    +0.015 C 
ATOM      8  C   UNL     1      -2.044  -1.544   0.057  0.00  0.00    +0.000 C 
ATOM      9  C   UNL     1      -2.784  -0.381  -0.148  0.00  0.00    +0.001 C 
ATOM     10  H   UNL     1      -0.169   2.915  -0.202  0.00  0.00    +0.152 HD
ENDROOT
BRANCH   3  11
ATOM     11  C   UNL     1       2.526  -0.694   0.479  0.00  0.00    +0.165 C 
BRANCH  11  12
ATOM     12  O   UNL     1       3.061  -1.119  -0.773  0.00  0.00    -0.377 OA
ATOM     13  H   UNL     1       3.831  -1.689  -0.619  0.00  0.00    +0.211 HD
ENDBRANCH  11  12
ENDBRANCH   3  11
TORSDOF 2
