REMARK  Name = 3086671
REMARK  6 active torsions:
REMARK  status: ('A' for Active; 'I' for Inactive)
REMARK    1  A    between atoms: C_2  and  C_18
REMARK    2  A    between atoms: C_4  and  C_7
REMARK    3  A    between atoms: C_6  and  C_8
REMARK    4  A    between atoms: C_8  and  N_11
REMARK    5  A    between atoms: N_11  and  O_16
REMARK    6  A    between atoms: C_18  and  C_20
REMARK                            x       y       z     vdW  Elec       q    Type
REMARK                         _______ _______ _______ _____ _____    ______ ____
ROOT
ATOM      1  S   UNL     1      -0.418  -0.629   1.171  0.00  0.00    -0.083 S 
ATOM      2  C   UNL     1      -1.781  -1.564   0.723  0.00  0.00    +0.012 C 
ATOM      3  C   UNL     1      -1.477  -2.487  -0.254  0.00  0.00    +0.004 C 
ATOM      4  C   UNL     1       0.578  -1.460   0.058  0.00  0.00    +0.071 C 
ATOM      5  C   UNL     1      -0.106  -2.426  -0.640  0.00  0.00    +0.015 C 
ENDROOT
BRANCH   4   7
ATOM      6  C   UNL     1       3.135  -0.916  -0.254  0.00  0.00    -0.064 C 
ATOM      7  C   UNL     1       1.968  -1.165  -0.111  0.00  0.00    -0.056 C 
BRANCH   6   8
ATOM      8  C   UNL     1       4.561  -0.612  -0.426  0.00  0.00    +0.168 C 
ATOM      9  C   UNL     1       5.081  -1.151  -1.752  0.00  0.00    +0.039 C 
BRANCH   8  11
ATOM     10  O   UNL     1       6.162   0.777   1.494  0.00  0.00    -0.251 OA
ATOM     11  N   UNL     1       4.775   0.811  -0.340  0.00  0.00    -0.146 N 
ATOM     12  N   UNL     1       5.636   2.781   0.538  0.00  0.00    -0.312 N 
ATOM     13  C   UNL     1       5.563   1.405   0.618  0.00  0.00    +0.324 C 
ATOM     14  H   UNL     1       6.179   3.284   1.186  0.00  0.00    +0.147 HD
ATOM     15  H   UNL     1       5.144   3.260  -0.168  0.00  0.00    +0.147 HD
BRANCH  11  16
ATOM     16  O   UNL     1       4.094   1.527  -1.336  0.00  0.00    -0.290 OA
ATOM     17  H   UNL     1       3.602   0.910  -1.900  0.00  0.00    +0.242 HD
ENDBRANCH  11  16
ENDBRANCH   8  11
ENDBRANCH   6   8
ENDBRANCH   4   7
BRANCH   2  18
ATOM     18  C   UNL     1      -3.082  -1.316   1.381  0.00  0.00    +0.059 C 
BRANCH  18  20
ATOM     19  F   UNL     1      -6.292   2.510  -1.198  0.00  0.00    -0.204 F 
ATOM     20  C   UNL     1      -3.950  -0.281   0.683  0.00  0.00    -0.017 C 
ATOM     21  C   UNL     1      -4.836  -0.698  -0.290  0.00  0.00    -0.002 C 
ATOM     22  C   UNL     1      -3.828   1.046   1.044  0.00  0.00    -0.002 C 
ATOM     23  C   UNL     1      -5.632   0.251  -0.929  0.00  0.00    +0.029 C 
ATOM     24  C   UNL     1      -4.624   1.996   0.404  0.00  0.00    +0.029 C 
ATOM     25  C   UNL     1      -5.527   1.598  -0.583  0.00  0.00    +0.140 C 
ENDBRANCH  18  20
ENDBRANCH   2  18
TORSDOF 6
