REMARK  Name = 65997
REMARK  2 active torsions:
REMARK  status: ('A' for Active; 'I' for Inactive)
REMARK    1  A    between atoms: N_2  and  C_18
REMARK    2  A    between atoms: C_18  and  C_19
REMARK                            x       y       z     vdW  Elec       q    Type
REMARK                         _______ _______ _______ _____ _____    ______ ____
ROOT
ATOM      1  N   UNL     1       1.073  -1.730   0.130  0.00  0.00    -0.276 N 
ATOM      2  N   UNL     1      -0.676  -0.294  -0.589  0.00  0.00    -0.244 N 
ATOM      3  N   UNL     1       3.873  -2.279   0.078  0.00  0.00    +0.386 N 
ATOM      4  N   UNL     1      -1.256  -1.945   0.782  0.00  0.00    -0.376 NA
ATOM      5  C   UNL     1       1.845  -1.749   1.378  0.00  0.00    +0.071 C 
ATOM      6  C   UNL     1       1.641  -2.530  -0.960  0.00  0.00    +0.071 C 
ATOM      7  C   UNL     1      -0.258  -1.374   0.141  0.00  0.00    +0.245 C 
ATOM      8  C   UNL     1       3.306  -1.399   1.100  0.00  0.00    -0.060 C 
ATOM      9  C   UNL     1       3.113  -2.171  -1.167  0.00  0.00    -0.060 C 
ATOM     10  C   UNL     1      -2.029  -0.159  -0.405  0.00  0.00    +0.081 C 
ATOM     11  C   UNL     1      -2.367  -1.201   0.454  0.00  0.00    +0.130 C 
ATOM     12  C   UNL     1      -2.957   0.756  -0.902  0.00  0.00    +0.017 C 
ATOM     13  C   UNL     1      -3.706  -1.354   0.852  0.00  0.00    +0.086 C 
ATOM     14  C   UNL     1      -4.285   0.590  -0.495  0.00  0.00    -0.003 C 
ATOM     15  C   UNL     1      -4.655  -0.446   0.366  0.00  0.00    -0.019 C 
ATOM     16  H   UNL     1       3.841  -3.243   0.409  0.00  0.00    -0.084 HD
ATOM     17  H   UNL     1       4.839  -2.001  -0.098  0.00  0.00    -0.084 HD
ENDROOT
BRANCH   2  18
ATOM     18  C   UNL     1       0.150   0.564  -1.410  0.00  0.00    +0.126 C 
BRANCH  18  19
ATOM     19  C   UNL     1       0.696   1.722  -0.620  0.00  0.00    -0.002 C 
ATOM     20  C   UNL     1      -0.145   2.427   0.231  0.00  0.00    -0.003 C 
ATOM     21  C   UNL     1       2.033   2.070  -0.751  0.00  0.00    -0.003 C 
ATOM     22  C   UNL     1       0.361   3.500   0.964  0.00  0.00    -0.000 C 
ATOM     23  C   UNL     1       2.539   3.144  -0.018  0.00  0.00    -0.000 C 
ATOM     24  C   UNL     1       1.703   3.858   0.840  0.00  0.00    -0.000 C 
ENDBRANCH  18  19
ENDBRANCH   2  18
TORSDOF 2
