REMARK  Name = 55191
REMARK  5 active torsions:
REMARK  status: ('A' for Active; 'I' for Inactive)
REMARK    1  A    between atoms: C_1  and  N_2
REMARK    2  A    between atoms: C_1  and  C_15
REMARK    3  A    between atoms: C_15  and  C_16
REMARK    4  A    between atoms: C_16  and  C_17
REMARK    5  A    between atoms: C_17  and  N_20
REMARK                            x       y       z     vdW  Elec       q    Type
REMARK                         _______ _______ _______ _____ _____    ______ ____
ROOT
ATOM      1  C   UNL     1      -0.334   3.125   0.291  0.00  0.00    -0.077 C 
ENDROOT
BRANCH   1   2
ATOM      2  N   UNL     1      -1.164   1.922   0.357  0.00  0.00    +0.389 N 
ATOM      3  N   UNL     1      -3.563   0.393   0.106  0.00  0.00    -0.257 N 
ATOM      4  N   UNL     1      -4.747  -1.329  -0.994  0.00  0.00    -0.203 NA
ATOM      5  N   UNL     1      -5.614  -0.335   1.023  0.00  0.00    -0.181 NA
ATOM      6  C   UNL     1      -1.701   1.594  -0.969  0.00  0.00    -0.055 C 
ATOM      7  C   UNL     1      -2.265   2.107   1.310  0.00  0.00    -0.055 C 
ATOM      8  C   UNL     1      -2.526   0.305  -0.926  0.00  0.00    +0.079 C 
ATOM      9  C   UNL     1      -3.107   0.835   1.430  0.00  0.00    +0.079 C 
ATOM     10  C   UNL     1      -4.678  -0.451   0.043  0.00  0.00    +0.090 C 
ATOM     11  C   UNL     1      -5.834  -2.128  -1.023  0.00  0.00    +0.165 C 
ATOM     12  C   UNL     1      -6.675  -1.163   0.931  0.00  0.00    +0.108 C 
ATOM     13  C   UNL     1      -6.840  -2.089  -0.079  0.00  0.00    +0.022 C 
ATOM     14  H   UNL     1      -0.579   1.149   0.675  0.00  0.00    -0.080 HD
ENDBRANCH   1   2
BRANCH   1  15
ATOM     15  C   UNL     1       0.851   2.901  -0.648  0.00  0.00    -0.021 C 
BRANCH  15  16
ATOM     16  C   UNL     1       1.722   1.736  -0.169  0.00  0.00    +0.020 C 
BRANCH  16  17
ATOM     17  C   UNL     1       2.899   1.462  -1.100  0.00  0.00    +0.101 C 
BRANCH  17  20
ATOM     18  O   UNL     1       5.093   1.735   0.617  0.00  0.00    -0.274 OA
ATOM     19  O   UNL     1       2.429  -1.114  -1.954  0.00  0.00    -0.274 OA
ATOM     20  N   UNL     1       3.713   0.337  -0.652  0.00  0.00    -0.230 N 
ATOM     21  C   UNL     1       4.831  -1.898   0.671  0.00  0.00    +0.017 C 
ATOM     22  C   UNL     1       5.609  -0.582   0.648  0.00  0.00    +0.086 C 
ATOM     23  C   UNL     1       4.202  -2.092  -0.708  0.00  0.00    +0.086 C 
ATOM     24  C   UNL     1       4.778   0.609   0.226  0.00  0.00    +0.231 C 
ATOM     25  C   UNL     1       3.349  -0.926  -1.154  0.00  0.00    +0.231 C 
ATOM     26  C   UNL     1       5.808  -3.056   0.945  0.00  0.00    +0.001 C 
ATOM     27  C   UNL     1       3.763  -1.897   1.780  0.00  0.00    +0.001 C 
ENDBRANCH  17  20
ENDBRANCH  16  17
ENDBRANCH  15  16
ENDBRANCH   1  15
TORSDOF 5
