REMARK  Name = 4410
REMARK  4 active torsions:
REMARK  status: ('A' for Active; 'I' for Inactive)
REMARK    1  A    between atoms: C_9  and  N_17
REMARK    2  A    between atoms: C_16  and  C_26
REMARK    3  A    between atoms: C_22  and  O_23
REMARK    4  A    between atoms: C_26  and  O_27
REMARK                            x       y       z     vdW  Elec       q    Type
REMARK                         _______ _______ _______ _____ _____    ______ ____
ROOT
ATOM      1  F   UNL     1       1.709   2.897   0.343  0.00  0.00    -0.203 F 
ATOM      2  O   UNL     1      -3.295   2.422   0.212  0.00  0.00    -0.286 OA
ATOM      3  N   UNL     1      -1.845  -1.368  -0.197  0.00  0.00    -0.287 N 
ATOM      4  C   UNL     1       0.473  -0.513  -0.113  0.00  0.00    +0.007 C 
ATOM      5  C   UNL     1      -1.331  -2.749  -0.221  0.00  0.00    +0.078 C 
ATOM      6  C   UNL     1       1.045  -1.894  -0.291  0.00  0.00    +0.031 C 
ATOM      7  C   UNL     1       0.022  -2.821  -0.933  0.00  0.00    +0.025 C 
ATOM      8  C   UNL     1      -0.921  -0.304  -0.075  0.00  0.00    +0.052 C 
ATOM      9  C   UNL     1       1.354   0.570   0.041  0.00  0.00    +0.073 C 
ATOM     10  C   UNL     1      -1.391   1.020   0.075  0.00  0.00    +0.055 C 
ATOM     11  C   UNL     1       0.866   1.864   0.201  0.00  0.00    +0.153 C 
ATOM     12  C   UNL     1      -1.283  -3.317   1.200  0.00  0.00    +0.022 C 
ATOM     13  C   UNL     1      -3.201  -1.092  -0.185  0.00  0.00    +0.075 C 
ATOM     14  C   UNL     1      -0.505   2.094   0.212  0.00  0.00    +0.035 C 
ATOM     15  C   UNL     1      -2.854   1.287   0.086  0.00  0.00    +0.204 C 
ATOM     16  C   UNL     1      -3.757   0.119  -0.062  0.00  0.00    +0.129 C 
ENDROOT
BRANCH   9  17
ATOM     17  N   UNL     1       2.741   0.379   0.043  0.00  0.00    -0.306 N 
ATOM     18  C   UNL     1       3.521   1.070  -0.994  0.00  0.00    +0.093 C 
ATOM     19  C   UNL     1       3.430   0.115   1.312  0.00  0.00    +0.093 C 
ATOM     20  C   UNL     1       4.840   0.345  -1.244  0.00  0.00    +0.051 C 
ATOM     21  C   UNL     1       4.753  -0.607   1.064  0.00  0.00    +0.051 C 
ATOM     22  C   UNL     1       5.617   0.137   0.052  0.00  0.00    +0.114 C 
BRANCH  22  23
ATOM     23  O   UNL     1       6.786  -0.632  -0.205  0.00  0.00    -0.384 OA
ATOM     24  H   UNL     1       7.344  -0.168  -0.848  0.00  0.00    +0.210 HD
ENDBRANCH  22  23
ENDBRANCH   9  17
BRANCH  16  26
ATOM     25  O   UNL     1      -5.972  -0.649   0.333  0.00  0.00    -0.245 OA
ATOM     26  C   UNL     1      -5.216   0.219  -0.069  0.00  0.00    +0.342 C 
BRANCH  26  27
ATOM     27  O   UNL     1      -5.587   1.410  -0.586  0.00  0.00    -0.477 OA
ATOM     28  H   UNL     1      -4.936   2.020  -0.872  0.00  0.00    +0.295 HD
ENDBRANCH  26  27
ENDBRANCH  16  26
TORSDOF 4
