REMARK  Name = 57582353
REMARK  3 active torsions:
REMARK  status: ('A' for Active; 'I' for Inactive)
REMARK    1  A    between atoms: C_4  and  C_12
REMARK    2  A    between atoms: C_9  and  C_22
REMARK    3  A    between atoms: C_15  and  O_18
REMARK                            x       y       z     vdW  Elec       q    Type
REMARK                         _______ _______ _______ _____ _____    ______ ____
ROOT
ATOM      1  O   UNL     1       3.280  -0.975  -1.355  0.00  0.00    -0.268 OA
ATOM      2  N   UNL     1       2.521   0.368   0.418  0.00  0.00    -0.255 N 
ATOM      3  N   UNL     1       0.371   1.017   1.159  0.00  0.00    -0.376 NA
ATOM      4  C   UNL     1      -1.581   0.231  -0.032  0.00  0.00    +0.112 C 
ATOM      5  C   UNL     1      -0.968   0.949   0.982  0.00  0.00    +0.163 C 
ATOM      6  C   UNL     1      -0.768  -0.464  -0.921  0.00  0.00    -0.010 C 
ATOM      7  C   UNL     1       1.129   0.329   0.275  0.00  0.00    +0.187 C 
ATOM      8  C   UNL     1       0.614  -0.419  -0.771  0.00  0.00    +0.044 C 
ATOM      9  C   UNL     1       3.482  -0.264  -0.377  0.00  0.00    +0.266 C 
ATOM     10  H   UNL     1       2.864   0.905   1.168  0.00  0.00    +0.158 HD
ATOM     11  N   UNL     1      -1.783   1.663   1.897  0.00  0.00    -0.336 N 
ATOM     12  H   UNL     1      -1.369   2.180   2.625  0.00  0.00    +0.144 HD
ATOM     13  H   UNL     1      -2.763   1.641   1.804  0.00  0.00    +0.144 HD
ENDROOT
BRANCH   4  15
ATOM     14 CL   UNL     1      -2.890   2.383  -1.813  0.00  0.00    -0.083 Cl
ATOM     15  C   UNL     1      -3.022   0.179  -0.195  0.00  0.00    +0.003 C 
ATOM     16  C   UNL     1      -3.723  -0.833   0.460  0.00  0.00    +0.034 C 
ATOM     17  C   UNL     1      -3.707   1.107  -0.980  0.00  0.00    +0.055 C 
ATOM     18  C   UNL     1      -5.109  -0.917   0.331  0.00  0.00    +0.138 C 
ATOM     19  C   UNL     1      -5.093   1.022  -1.109  0.00  0.00    +0.014 C 
ATOM     20  C   UNL     1      -5.794   0.010  -0.454  0.00  0.00    +0.038 C 
BRANCH  18  21
ATOM     21  O   UNL     1      -5.794  -1.906   0.969  0.00  0.00    -0.471 OA
ATOM     22  C   UNL     1      -7.210  -1.934   0.792  0.00  0.00    +0.252 C 
ENDBRANCH  18  21
ENDBRANCH   4  15
BRANCH   9  25
ATOM     23  N   UNL     1       5.934  -0.871  -0.165  0.00  0.00    -0.205 N 
ATOM     24  N   UNL     1       7.113  -0.399   0.275  0.00  0.00    -0.176 NA
ATOM     25  C   UNL     1       4.894  -0.007   0.013  0.00  0.00    +0.124 C 
ATOM     26  C   UNL     1       5.430   1.107   0.611  0.00  0.00    +0.043 C 
ATOM     27  C   UNL     1       5.877  -2.187  -0.757  0.00  0.00    +0.140 C 
ATOM     28  C   UNL     1       6.799   0.810   0.748  0.00  0.00    +0.119 C 
ENDBRANCH   9  25
TORSDOF 3
