REMARK  Name = 5351154
REMARK  7 active torsions:
REMARK  status: ('A' for Active; 'I' for Inactive)
REMARK    1  A    between atoms: N_1  and  C_2
REMARK    2  A    between atoms: N_1  and  N_4
REMARK    3  A    between atoms: C_2  and  C_13
REMARK    4  A    between atoms: N_4  and  C_7
REMARK    5  A    between atoms: N_12  and  C_13
REMARK    6  A    between atoms: N_12  and  N_14
REMARK    7  A    between atoms: N_14  and  C_17
REMARK                            x       y       z     vdW  Elec       q    Type
REMARK                         _______ _______ _______ _____ _____    ______ ____
ROOT
ATOM      1  C   UNL     1      -0.697  -1.348  -0.010  0.00  0.00    +0.118 C 
ATOM      2  C   UNL     1      -1.319  -2.676   0.311  0.00  0.00    +0.023 C 
ENDROOT
BRANCH   1   3
ATOM      3  N   UNL     1      -1.316  -0.216  -0.124  0.00  0.00    -0.097 NA
BRANCH   3   4
ATOM      4  N   UNL     1      -2.685  -0.322   0.094  0.00  0.00    -0.145 NA
BRANCH   4   7
ATOM      5  N   UNL     1      -4.645   1.058   0.129  0.00  0.00    -0.369 N 
ATOM      6  N   UNL     1      -2.602   1.971  -0.334  0.00  0.00    -0.369 N 
ATOM      7  C   UNL     1      -3.297   0.827  -0.025  0.00  0.00    +0.207 C 
ATOM      8  H   UNL     1      -5.250   0.314   0.352  0.00  0.00    +0.159 HD
ATOM      9  H   UNL     1      -5.005   1.968   0.017  0.00  0.00    +0.159 HD
ATOM     10  H   UNL     1      -1.627   1.934  -0.469  0.00  0.00    +0.159 HD
ATOM     11  H   UNL     1      -3.078   2.829  -0.419  0.00  0.00    +0.159 HD
ENDBRANCH   4   7
ENDBRANCH   3   4
ENDBRANCH   1   3
BRANCH   1  12
ATOM     12  C   UNL     1       0.778  -1.346  -0.254  0.00  0.00    +0.136 C 
BRANCH  12  13
ATOM     13  N   UNL     1       1.460  -0.296   0.044  0.00  0.00    -0.096 NA
BRANCH  13  14
ATOM     14  N   UNL     1       2.804  -0.493  -0.253  0.00  0.00    -0.145 NA
BRANCH  14  17
ATOM     15  N   UNL     1       4.891   0.550  -0.186  0.00  0.00    -0.369 N 
ATOM     16  N   UNL     1       3.093   1.739   0.572  0.00  0.00    -0.369 N 
ATOM     17  C   UNL     1       3.535   0.551   0.036  0.00  0.00    +0.207 C 
ATOM     18  H   UNL     1       5.327  -0.246  -0.568  0.00  0.00    +0.159 HD
ATOM     19  H   UNL     1       5.427   1.345   0.037  0.00  0.00    +0.159 HD
ATOM     20  H   UNL     1       2.137   1.862   0.776  0.00  0.00    +0.159 HD
ATOM     21  H   UNL     1       3.732   2.466   0.751  0.00  0.00    +0.159 HD
ENDBRANCH  14  17
ENDBRANCH  13  14
ENDBRANCH  12  13
ENDBRANCH   1  12
TORSDOF 7
