REMARK  Name = 6914657
REMARK  8 active torsions:
REMARK  status: ('A' for Active; 'I' for Inactive)
REMARK    1  A    between atoms: C_1  and  C_4
REMARK    2  A    between atoms: C_1  and  C_16
REMARK    3  A    between atoms: C_9  and  C_10
REMARK    4  A    between atoms: C_16  and  C_17
REMARK    5  A    between atoms: C_17  and  C_18
REMARK    6  A    between atoms: C_18  and  N_20
REMARK    7  A    between atoms: C_21  and  C_23
REMARK    8  A    between atoms: C_24  and  C_26
REMARK                            x       y       z     vdW  Elec       q    Type
REMARK                         _______ _______ _______ _____ _____    ______ ____
ROOT
ATOM      1  C   UNL     1       0.734  -1.721   1.093  0.00  0.00    +0.000 C 
ENDROOT
BRANCH   1   4
ATOM      2  O   UNL     1       6.057   1.317   2.189  0.00  0.00    -0.270 OA
ATOM      3  N   UNL     1       4.143   0.886   0.917  0.00  0.00    -0.276 N 
ATOM      4  C   UNL     1       1.580  -0.463   0.911  0.00  0.00    +0.003 C 
ATOM      5  C   UNL     1       2.596  -0.647  -0.228  0.00  0.00    +0.022 C 
ATOM      6  C   UNL     1       2.303  -0.097   2.218  0.00  0.00    +0.022 C 
ATOM      7  C   UNL     1       3.497   0.578  -0.365  0.00  0.00    +0.094 C 
ATOM      8  C   UNL     1       3.218   1.111   2.027  0.00  0.00    +0.094 C 
ATOM      9  C   UNL     1       5.518   1.018   1.125  0.00  0.00    +0.249 C 
BRANCH   9  10
ATOM     10  C   UNL     1       6.417   0.772  -0.009  0.00  0.00    +0.054 C 
ATOM     11  C   UNL     1       6.911  -0.512  -0.242  0.00  0.00    +0.005 C 
ATOM     12  C   UNL     1       6.778   1.821  -0.854  0.00  0.00    +0.005 C 
ATOM     13  C   UNL     1       7.765  -0.746  -1.319  0.00  0.00    +0.000 C 
ATOM     14  C   UNL     1       7.632   1.587  -1.932  0.00  0.00    +0.000 C 
ATOM     15  C   UNL     1       8.126   0.303  -2.164  0.00  0.00    +0.000 C 
ENDBRANCH   9  10
ENDBRANCH   1   4
BRANCH   1  16
ATOM     16  C   UNL     1      -0.317  -1.844  -0.007  0.00  0.00    +0.002 C 
BRANCH  16  17
ATOM     17  C   UNL     1      -1.183  -3.087   0.196  0.00  0.00    +0.021 C 
BRANCH  17  18
ATOM     18  C   UNL     1      -2.210  -3.236  -0.920  0.00  0.00    +0.090 C 
BRANCH  18  20
ATOM     19  O   UNL     1      -4.730  -2.908   0.472  0.00  0.00    -0.270 OA
ATOM     20  N   UNL     1      -3.097  -2.106  -0.977  0.00  0.00    -0.301 N 
ATOM     21  C   UNL     1      -4.291  -2.036  -0.271  0.00  0.00    +0.246 C 
ATOM     22  H   UNL     1      -2.844  -1.343  -1.545  0.00  0.00    +0.150 HD
BRANCH  21  23
ATOM     23  C   UNL     1      -5.011  -0.753  -0.513  0.00  0.00    +0.058 C 
ATOM     24  C   UNL     1      -6.184  -0.519   0.092  0.00  0.00    +0.006 C 
BRANCH  24  26
ATOM     25  N   UNL     1      -7.474   2.696  -1.357  0.00  0.00    -0.242 NA
ATOM     26  C   UNL     1      -6.976   0.713  -0.066  0.00  0.00    +0.019 C 
ATOM     27  C   UNL     1      -7.941   1.071   0.869  0.00  0.00    +0.003 C 
ATOM     28  C   UNL     1      -6.783   1.552  -1.152  0.00  0.00    +0.099 C 
ATOM     29  C   UNL     1      -8.672   2.240   0.693  0.00  0.00    +0.021 C 
ATOM     30  C   UNL     1      -8.403   3.011  -0.426  0.00  0.00    +0.099 C 
ENDBRANCH  24  26
ENDBRANCH  21  23
ENDBRANCH  18  20
ENDBRANCH  17  18
ENDBRANCH  16  17
ENDBRANCH   1  16
TORSDOF 8
