REMARK  Name = 65906
REMARK  3 active torsions:
REMARK  status: ('A' for Active; 'I' for Inactive)
REMARK    1  A    between atoms: N_2  and  C_26
REMARK    2  A    between atoms: C_4  and  N_17
REMARK    3  A    between atoms: C_26  and  C_28
REMARK                            x       y       z     vdW  Elec       q    Type
REMARK                         _______ _______ _______ _____ _____    ______ ____
ROOT
ATOM      1  N   UNL     1      -0.395  -1.251  -0.617  0.00  0.00    -0.271 N 
ATOM      2  N   UNL     1      -2.426  -0.832   0.538  0.00  0.00    -0.244 N 
ATOM      3  N   UNL     1      -2.504  -2.363  -1.071  0.00  0.00    -0.376 NA
ATOM      4  C   UNL     1       2.349  -0.372  -0.781  0.00  0.00    +0.079 C 
ATOM      5  C   UNL     1       1.741  -0.864   0.533  0.00  0.00    +0.041 C 
ATOM      6  C   UNL     1       1.261   0.225  -1.676  0.00  0.00    +0.041 C 
ATOM      7  C   UNL     1       0.606  -1.851   0.275  0.00  0.00    +0.096 C 
ATOM      8  C   UNL     1       0.114  -0.761  -1.902  0.00  0.00    +0.096 C 
ATOM      9  C   UNL     1      -1.734  -1.510  -0.429  0.00  0.00    +0.245 C 
ATOM     10  C   UNL     1      -3.724  -1.275   0.517  0.00  0.00    +0.081 C 
ATOM     11  C   UNL     1      -3.747  -2.230  -0.496  0.00  0.00    +0.130 C 
ATOM     12  C   UNL     1      -4.845  -0.933   1.274  0.00  0.00    +0.017 C 
ATOM     13  C   UNL     1      -4.952  -2.893  -0.785  0.00  0.00    +0.086 C 
ATOM     14  C   UNL     1      -6.036  -1.603   0.973  0.00  0.00    -0.003 C 
ATOM     15  C   UNL     1      -6.090  -2.566  -0.037  0.00  0.00    -0.019 C 
ENDROOT
BRANCH   4  17
ATOM     16  O   UNL     1       6.289  -2.816   0.537  0.00  0.00    -0.270 OA
ATOM     17  N   UNL     1       3.358   0.628  -0.512  0.00  0.00    -0.281 N 
ATOM     18  N   UNL     1       4.843  -1.084   0.017  0.00  0.00    -0.254 N 
ATOM     19  N   UNL     1       5.536   1.165   0.136  0.00  0.00    -0.215 NA
ATOM     20  C   UNL     1       2.911   2.014  -0.443  0.00  0.00    +0.115 C 
ATOM     21  C   UNL     1       4.608   0.281  -0.113  0.00  0.00    +0.191 C 
ATOM     22  C   UNL     1       6.054  -1.619   0.413  0.00  0.00    +0.253 C 
ATOM     23  C   UNL     1       6.758   0.686   0.532  0.00  0.00    +0.106 C 
ATOM     24  C   UNL     1       7.088  -0.600   0.689  0.00  0.00    +0.079 C 
ATOM     25  H   UNL     1       4.104  -1.703  -0.184  0.00  0.00    +0.158 HD
ENDBRANCH   4  17
BRANCH   2  26
ATOM     26  C   UNL     1      -1.897   0.176   1.431  0.00  0.00    +0.126 C 
BRANCH  26  28
ATOM     27  F   UNL     1      -2.359   5.323  -0.778  0.00  0.00    -0.204 F 
ATOM     28  C   UNL     1      -2.021   1.554   0.840  0.00  0.00    -0.002 C 
ATOM     29  C   UNL     1      -3.210   1.933   0.233  0.00  0.00    -0.000 C 
ATOM     30  C   UNL     1      -0.944   2.427   0.909  0.00  0.00    -0.000 C 
ATOM     31  C   UNL     1      -3.325   3.211  -0.315  0.00  0.00    +0.029 C 
ATOM     32  C   UNL     1      -1.058   3.704   0.361  0.00  0.00    +0.029 C 
ATOM     33  C   UNL     1      -2.249   4.097  -0.251  0.00  0.00    +0.140 C 
ENDBRANCH  26  28
ENDBRANCH   2  26
TORSDOF 3
