REMARK  Name = 25151352
REMARK  5 active torsions:
REMARK  status: ('A' for Active; 'I' for Inactive)
REMARK    1  A    between atoms: N_1  and  C_21
REMARK    2  A    between atoms: C_3  and  C_9
REMARK    3  A    between atoms: C_9  and  C_13
REMARK    4  A    between atoms: C_21  and  C_23
REMARK    5  A    between atoms: C_27  and  C_31
REMARK                            x       y       z     vdW  Elec       q    Type
REMARK                         _______ _______ _______ _____ _____    ______ ____
ROOT
ATOM      1  N   UNL     1      -1.693  -0.842  -0.279  0.00  0.00    -0.314 N 
ATOM      2  N   UNL     1       0.260  -2.083   0.292  0.00  0.00    -0.230 NA
ATOM      3  C   UNL     1       2.354  -1.574  -0.803  0.00  0.00    +0.002 C 
ATOM      4  C   UNL     1       1.732  -0.575  -1.544  0.00  0.00    +0.000 C 
ATOM      5  C   UNL     1       1.581  -2.293   0.094  0.00  0.00    +0.096 C 
ATOM      6  C   UNL     1      -0.310  -1.105  -0.447  0.00  0.00    +0.129 C 
ATOM      7  C   UNL     1       0.375  -0.330  -1.369  0.00  0.00    +0.034 C 
ATOM      8  H   UNL     1      -2.200  -1.380   0.370  0.00  0.00    +0.149 HD
ENDROOT
BRANCH   3   9
ATOM      9  C   UNL     1       3.838  -1.865  -0.971  0.00  0.00    +0.056 C 
BRANCH   9  13
ATOM     10 CL   UNL     1       6.169   3.570  -1.520  0.00  0.00    -0.081 Cl
ATOM     11  N   UNL     1       5.858  -1.023   1.959  0.00  0.00    -0.297 N 
ATOM     12  N   UNL     1       6.754   1.190   1.639  0.00  0.00    -0.228 NA
ATOM     13  C   UNL     1       4.698  -1.279   0.078  0.00  0.00    -0.000 C 
ATOM     14  C   UNL     1       5.307   0.003   0.054  0.00  0.00    +0.030 C 
ATOM     15  C   UNL     1       6.022   0.132   1.241  0.00  0.00    +0.132 C 
ATOM     16  C   UNL     1       5.055  -1.888   1.262  0.00  0.00    +0.059 C 
ATOM     17  C   UNL     1       5.339   1.085  -0.841  0.00  0.00    +0.015 C 
ATOM     18  C   UNL     1       6.082   2.207  -0.478  0.00  0.00    +0.077 C 
ATOM     19  C   UNL     1       6.750   2.201   0.739  0.00  0.00    +0.112 C 
ATOM     20  H   UNL     1       6.255  -1.204   2.841  0.00  0.00    +0.154 HD
ENDBRANCH   9  13
ENDBRANCH   3   9
BRANCH   1  21
ATOM     21  C   UNL     1      -2.378   0.170  -1.014  0.00  0.00    +0.117 C 
BRANCH  21  23
ATOM     22  N   UNL     1      -5.562   1.370   0.641  0.00  0.00    -0.240 NA
ATOM     23  C   UNL     1      -3.821   0.238  -0.597  0.00  0.00    +0.017 C 
ATOM     24  C   UNL     1      -4.738  -0.715  -1.029  0.00  0.00    +0.000 C 
ATOM     25  C   UNL     1      -4.280   1.251   0.229  0.00  0.00    +0.096 C 
ATOM     26  C   UNL     1      -6.066  -0.626  -0.626  0.00  0.00    +0.023 C 
ATOM     27  C   UNL     1      -6.424   0.426   0.201  0.00  0.00    +0.153 C 
BRANCH  27  31
ATOM     28  F   UNL     1      -8.657  -0.432   0.172  0.00  0.00    -0.164 F 
ATOM     29  F   UNL     1      -7.989   0.508   2.009  0.00  0.00    -0.164 F 
ATOM     30  F   UNL     1      -8.414   1.727   0.259  0.00  0.00    -0.164 F 
ATOM     31  C   UNL     1      -7.841   0.552   0.652  0.00  0.00    +0.435 C 
ENDBRANCH  27  31
ENDBRANCH  21  23
ENDBRANCH   1  21
TORSDOF 5
