REMARK  Name = 52934180
REMARK  2 active torsions:
REMARK  status: ('A' for Active; 'I' for Inactive)
REMARK    1  A    between atoms: N_4  and  C_30
REMARK    2  A    between atoms: C_17  and  C_20
REMARK                            x       y       z     vdW  Elec       q    Type
REMARK                         _______ _______ _______ _____ _____    ______ ____
ROOT
ATOM      1  O   UNL     1       3.885  -0.384   2.205  0.00  0.00    -0.290 OA
ATOM      2  O   UNL     1      -2.949  -3.341  -0.344  0.00  0.00    -0.270 OA
ATOM      3  N   UNL     1      -1.056  -2.079   0.209  0.00  0.00    -0.276 N 
ATOM      4  N   UNL     1       4.911   1.179  -0.124  0.00  0.00    -0.211 N 
ATOM      5  N   UNL     1       5.128   1.658  -1.364  0.00  0.00    -0.177 NA
ATOM      6  C   UNL     1       1.724  -1.501  -0.584  0.00  0.00    +0.015 C 
ATOM      7  C   UNL     1       0.977  -2.805  -0.973  0.00  0.00    +0.022 C 
ATOM      8  C   UNL     1       0.662  -0.392  -0.329  0.00  0.00    +0.022 C 
ATOM      9  C   UNL     1       2.639  -1.092  -1.787  0.00  0.00    +0.030 C 
ATOM     10  C   UNL     1       2.600  -1.750   0.689  0.00  0.00    +0.071 C 
ATOM     11  C   UNL     1      -0.123  -3.186   0.016  0.00  0.00    +0.094 C 
ATOM     12  C   UNL     1      -0.441  -0.819   0.641  0.00  0.00    +0.094 C 
ATOM     13  C   UNL     1       3.620  -0.053  -1.389  0.00  0.00    +0.016 C 
ATOM     14  C   UNL     1       3.541  -0.595   1.045  0.00  0.00    +0.188 C 
ATOM     15  C   UNL     1       4.018   0.149  -0.088  0.00  0.00    +0.101 C 
ATOM     16  C   UNL     1       4.337   0.902  -2.132  0.00  0.00    +0.115 C 
ATOM     17  C   UNL     1      -2.424  -2.289   0.017  0.00  0.00    +0.249 C 
ENDROOT
BRANCH  17  20
ATOM     18  N   UNL     1      -5.025   1.769  -1.269  0.00  0.00    -0.318 N 
ATOM     19  N   UNL     1      -5.882   2.073   0.759  0.00  0.00    -0.318 N 
ATOM     20  C   UNL     1      -3.332  -1.164   0.262  0.00  0.00    +0.055 C 
ATOM     21  C   UNL     1      -3.645  -0.297  -0.791  0.00  0.00    +0.020 C 
ATOM     22  C   UNL     1      -3.868  -0.977   1.538  0.00  0.00    +0.006 C 
ATOM     23  C   UNL     1      -4.514   0.755  -0.500  0.00  0.00    +0.059 C 
ATOM     24  C   UNL     1      -4.739   0.086   1.807  0.00  0.00    +0.016 C 
ATOM     25  C   UNL     1      -5.064   0.967   0.761  0.00  0.00    +0.059 C 
ATOM     26  C   UNL     1      -5.836   2.529  -0.473  0.00  0.00    +0.144 C 
ATOM     27  C   UNL     1      -6.544   3.709  -1.004  0.00  0.00    +0.044 C 
ATOM     28  H   UNL     1      -4.841   1.922  -2.224  0.00  0.00    +0.148 HD
ATOM     29  H   UNL     1      -6.392   2.443   1.516  0.00  0.00    +0.148 HD
ENDBRANCH  17  20
BRANCH   4  30
ATOM     30  C   UNL     1       5.610   1.774   0.990  0.00  0.00    +0.096 C 
ATOM     31  C   UNL     1       6.998   2.274   0.582  0.00  0.00    +0.024 C 
ATOM     32  C   UNL     1       4.793   2.897   1.632  0.00  0.00    +0.024 C 
ENDBRANCH   4  30
TORSDOF 2
