REMARK  Name = 134664
REMARK  0 active torsions:
REMARK  status: ('A' for Active; 'I' for Inactive)
REMARK                            x       y       z     vdW  Elec       q    Type
REMARK                         _______ _______ _______ _____ _____    ______ ____
ROOT
ATOM      1  N   UNL     1      -0.953  -1.414  -0.446  0.00  0.00    -0.236 N 
ATOM      2  N   UNL     1      -2.046  -1.265   0.338  0.00  0.00    -0.180 NA
ATOM      3  C   UNL     1       0.251   0.729  -0.106  0.00  0.00    +0.015 C 
ATOM      4  C   UNL     1       0.230  -0.672  -0.231  0.00  0.00    +0.065 C 
ATOM      5  C   UNL     1       1.475   1.383   0.125  0.00  0.00    +0.001 C 
ATOM      6  C   UNL     1       1.442  -1.381  -0.110  0.00  0.00    +0.016 C 
ATOM      7  C   UNL     1      -0.934   1.566  -0.325  0.00  0.00    +0.003 C 
ATOM      8  C   UNL     1       2.662   0.663   0.251  0.00  0.00    +0.000 C 
ATOM      9  C   UNL     1       2.646  -0.721   0.131  0.00  0.00    +0.001 C 
ATOM     10  C   UNL     1      -2.201   1.208  -0.102  0.00  0.00    +0.022 C 
ATOM     11  C   UNL     1      -2.573  -0.097   0.477  0.00  0.00    +0.118 C 
ATOM     12  H   UNL     1      -0.983  -2.059  -1.189  0.00  0.00    +0.174 HD
ENDROOT
TORSDOF 0
