REMARK  Name = 11498153
REMARK  1 active torsions:
REMARK  status: ('A' for Active; 'I' for Inactive)
REMARK    1  A    between atoms: C_11  and  C_18
REMARK                            x       y       z     vdW  Elec       q    Type
REMARK                         _______ _______ _______ _____ _____    ______ ____
ROOT
ATOM      1  N   UNL     1      -2.783   0.571  -1.500  0.00  0.00    +0.384 N 
ATOM      2  C   UNL     1      -1.876   1.218   0.764  0.00  0.00    +0.001 C 
ATOM      3  C   UNL     1      -2.503  -1.048   0.415  0.00  0.00    +0.001 C 
ATOM      4  C   UNL     1      -2.732   0.109   1.403  0.00  0.00    +0.004 C 
ATOM      5  C   UNL     1      -0.634   0.412   0.471  0.00  0.00    -0.029 C 
ATOM      6  C   UNL     1      -1.005  -0.931   0.264  0.00  0.00    -0.029 C 
ATOM      7  C   UNL     1      -2.573   1.665  -0.537  0.00  0.00    -0.077 C 
ATOM      8  C   UNL     1      -3.226  -0.699  -0.902  0.00  0.00    -0.077 C 
ATOM      9  C   UNL     1       0.680   0.820   0.354  0.00  0.00    -0.001 C 
ATOM     10  C   UNL     1      -0.070  -1.892  -0.063  0.00  0.00    -0.005 C 
ATOM     11  C   UNL     1       1.635  -0.148   0.033  0.00  0.00    +0.071 C 
ATOM     12  C   UNL     1       1.264  -1.490  -0.173  0.00  0.00    +0.004 C 
ATOM     13  H   UNL     1      -1.902   0.403  -1.986  0.00  0.00    -0.084 HD
ATOM     14  H   UNL     1      -3.533   0.873  -2.121  0.00  0.00    -0.084 HD
ENDROOT
BRANCH  11  18
ATOM     15  F   UNL     1       3.893  -0.794  -0.421  0.00  0.00    -0.166 F 
ATOM     16  F   UNL     1       3.288   1.188  -1.063  0.00  0.00    -0.166 F 
ATOM     17  F   UNL     1       3.575   0.774   1.052  0.00  0.00    -0.166 F 
ATOM     18  C   UNL     1       3.068   0.246  -0.099  0.00  0.00    +0.419 C 
ENDBRANCH  11  18
TORSDOF 1
