REMARK  Name = 54910
REMARK  2 active torsions:
REMARK  status: ('A' for Active; 'I' for Inactive)
REMARK    1  A    between atoms: C_3  and  C_12
REMARK    2  A    between atoms: C_7  and  O_18
REMARK                            x       y       z     vdW  Elec       q    Type
REMARK                         _______ _______ _______ _____ _____    ______ ____
ROOT
ATOM      1  O   UNL     1       0.042  -2.150   0.583  0.00  0.00    -0.343 OA
ATOM      2  N   UNL     1       2.319   1.913   0.358  0.00  0.00    -0.245 NA
ATOM      3  C   UNL     1      -0.240  -0.821   1.104  0.00  0.00    +0.162 C 
ATOM      4  C   UNL     1       0.918   0.002   0.668  0.00  0.00    +0.029 C 
ATOM      5  C   UNL     1       1.856  -0.799   0.044  0.00  0.00    +0.042 C 
ATOM      6  C   UNL     1       1.376  -2.200   0.022  0.00  0.00    +0.172 C 
ATOM      7  C   UNL     1       3.035  -0.270  -0.438  0.00  0.00    +0.145 C 
ATOM      8  C   UNL     1       1.180   1.344   0.815  0.00  0.00    +0.097 C 
ATOM      9  C   UNL     1       3.213   1.093  -0.256  0.00  0.00    +0.093 C 
ATOM     10  C   UNL     1       4.462   1.750  -0.748  0.00  0.00    +0.055 C 
ENDROOT
BRANCH   3  12
ATOM     11 CL   UNL     1      -5.503   0.962  -1.168  0.00  0.00    -0.082 Cl
ATOM     12  C   UNL     1      -1.544  -0.378   0.540  0.00  0.00    +0.009 C 
ATOM     13  C   UNL     1      -2.364   0.488   1.267  0.00  0.00    -0.001 C 
ATOM     14  C   UNL     1      -1.953  -0.827  -0.718  0.00  0.00    -0.001 C 
ATOM     15  C   UNL     1      -3.587   0.902   0.739  0.00  0.00    +0.011 C 
ATOM     16  C   UNL     1      -3.176  -0.413  -1.246  0.00  0.00    +0.011 C 
ATOM     17  C   UNL     1      -3.993   0.452  -0.517  0.00  0.00    +0.058 C 
ENDBRANCH   3  12
BRANCH   7  18
ATOM     18  O   UNL     1       3.960  -1.047  -1.049  0.00  0.00    -0.505 OA
ATOM     19  H   UNL     1       3.805  -1.965  -1.154  0.00  0.00    +0.292 HD
ENDBRANCH   7  18
TORSDOF 2
