9952125
  -OEChem-10051722393D

 46 48  0     0  0  0  0  0  0999 V2000
    0.1204   -0.1812   -0.0812 O   0  0  0  0  0  0  0  0  0  0  0  0
   -3.1751    3.3730   -0.0410 O   0  0  0  0  0  0  0  0  0  0  0  0
   -4.4813   -1.1383   -0.7478 O   0  0  0  0  0  0  0  0  0  0  0  0
   -0.6127    3.8064    0.3192 O   0  0  0  0  0  0  0  0  0  0  0  0
    5.2929   -0.7402   -1.9460 O   0  0  0  0  0  0  0  0  0  0  0  0
    6.2517   -1.6175    0.5102 O   0  0  0  0  0  0  0  0  0  0  0  0
   -5.4184   -4.3552    0.5338 O   0  0  0  0  0  0  0  0  0  0  0  0
   -6.6964   -2.5621   -0.0484 O   0  0  0  0  0  0  0  0  0  0  0  0
   -1.4846    1.6417   -0.0523 C   0  0  0  0  0  0  0  0  0  0  0  0
   -1.1640    0.2911   -0.1779 C   0  0  0  0  0  0  0  0  0  0  0  0
    1.1432    0.7276    0.1436 C   0  0  0  0  0  0  0  0  0  0  0  0
    2.4826    0.1127    0.2362 C   0  0  0  0  0  0  0  0  0  0  0  0
   -2.8110    2.0659   -0.1590 C   0  0  0  0  0  0  0  0  0  0  0  0
   -0.4034    2.6076    0.1954 C   0  0  0  0  0  0  0  0  0  0  0  0
    0.9610    2.0498    0.2887 C   0  0  0  0  0  0  0  0  0  0  0  0
   -2.1710   -0.6457   -0.4112 C   0  0  0  0  0  0  0  0  0  0  0  0
   -3.4972   -0.2261   -0.5187 C   0  0  0  0  0  0  0  0  0  0  0  0
   -3.8163    1.1267   -0.3929 C   0  0  0  0  0  0  0  0  0  0  0  0
    3.2709   -0.0280   -0.9085 C   0  0  0  0  0  0  0  0  0  0  0  0
    2.9674   -0.3308    1.4691 C   0  0  0  0  0  0  0  0  0  0  0  0
    4.5363   -0.6084   -0.8210 C   0  0  0  0  0  0  0  0  0  0  0  0
    5.0171   -1.0502    0.4116 C   0  0  0  0  0  0  0  0  0  0  0  0
    4.2326   -0.9115    1.5566 C   0  0  0  0  0  0  0  0  0  0  0  0
   -4.2766   -2.4556   -0.2396 C   0  0  0  0  0  0  0  0  0  0  0  0
   -3.4988    3.8404    1.2671 C   0  0  0  0  0  0  0  0  0  0  0  0
    6.1648    0.3408   -2.2711 C   0  0  0  0  0  0  0  0  0  0  0  0
    6.6681   -2.0424    1.8065 C   0  0  0  0  0  0  0  0  0  0  0  0
   -5.6019   -3.0903    0.0784 C   0  0  0  0  0  0  0  0  0  0  0  0
    1.7791    2.7374    0.4719 H   0  0  0  0  0  0  0  0  0  0  0  0
   -1.8863   -1.6874   -0.5308 H   0  0  0  0  0  0  0  0  0  0  0  0
   -4.8521    1.4469   -0.4782 H   0  0  0  0  0  0  0  0  0  0  0  0
    2.9027    0.3124   -1.8741 H   0  0  0  0  0  0  0  0  0  0  0  0
    2.3666   -0.2296    2.3700 H   0  0  0  0  0  0  0  0  0  0  0  0
    4.5406   -1.2313    2.5461 H   0  0  0  0  0  0  0  0  0  0  0  0
   -3.7738   -3.0582   -1.0031 H   0  0  0  0  0  0  0  0  0  0  0  0
   -3.7081   -2.4422    0.6987 H   0  0  0  0  0  0  0  0  0  0  0  0
   -3.5571    4.9318    1.2366 H   0  0  0  0  0  0  0  0  0  0  0  0
   -2.7373    3.5497    1.9981 H   0  0  0  0  0  0  0  0  0  0  0  0
   -4.4733    3.4463    1.5721 H   0  0  0  0  0  0  0  0  0  0  0  0
    6.8935    0.5025   -1.4706 H   0  0  0  0  0  0  0  0  0  0  0  0
    6.7031    0.0831   -3.1873 H   0  0  0  0  0  0  0  0  0  0  0  0
    5.5910    1.2561   -2.4476 H   0  0  0  0  0  0  0  0  0  0  0  0
    7.6708   -2.4691    1.6990 H   0  0  0  0  0  0  0  0  0  0  0  0
    6.7546   -1.1985    2.4994 H   0  0  0  0  0  0  0  0  0  0  0  0
    6.0244   -2.8382    2.1966 H   0  0  0  0  0  0  0  0  0  0  0  0
   -6.2691   -4.7938    0.7488 H   0  0  0  0  0  0  0  0  0  0  0  0
  1 10  1  0  0  0  0
  1 11  1  0  0  0  0
  2 13  1  0  0  0  0
  2 25  1  0  0  0  0
  3 17  1  0  0  0  0
  3 24  1  0  0  0  0
  4 14  2  0  0  0  0
  5 21  1  0  0  0  0
  5 26  1  0  0  0  0
  6 22  1  0  0  0  0
  6 27  1  0  0  0  0
  7 28  1  0  0  0  0
  7 46  1  0  0  0  0
  8 28  2  0  0  0  0
  9 10  2  0  0  0  0
  9 13  1  0  0  0  0
  9 14  1  0  0  0  0
 10 16  1  0  0  0  0
 11 12  1  0  0  0  0
 11 15  2  0  0  0  0
 12 19  2  0  0  0  0
 12 20  1  0  0  0  0
 13 18  2  0  0  0  0
 14 15  1  0  0  0  0
 15 29  1  0  0  0  0
 16 17  2  0  0  0  0
 16 30  1  0  0  0  0
 17 18  1  0  0  0  0
 18 31  1  0  0  0  0
 19 21  1  0  0  0  0
 19 32  1  0  0  0  0
 20 23  2  0  0  0  0
 20 33  1  0  0  0  0
 21 22  2  0  0  0  0
 22 23  1  0  0  0  0
 23 34  1  0  0  0  0
 24 28  1  0  0  0  0
 24 35  1  0  0  0  0
 24 36  1  0  0  0  0
 25 37  1  0  0  0  0
 25 38  1  0  0  0  0
 25 39  1  0  0  0  0
 26 40  1  0  0  0  0
 26 41  1  0  0  0  0
 26 42  1  0  0  0  0
 27 43  1  0  0  0  0
 27 44  1  0  0  0  0
 27 45  1  0  0  0  0
M  END
> <DATABASE_ID>
DB12058

> <DATABASE_NAME>
drugbank

> <ORIGINAL_SOURCE>
PUBCHEM

> <ORIGINAL_SOURCE_URL>
https://pubchem.ncbi.nlm.nih.gov/rest/pug/compound/inchikey/BCPQOBQIVJZOFL-UHFFFAOYSA-N/SDF?record_type=3d

> <SMILES>
COC1=CC=C(C=C1OC)C1=CC(=O)C2=C(OC)C=C(OCC(O)=O)C=C2O1

> <INCHI_IDENTIFIER>
InChI=1S/C20H18O8/c1-24-14-5-4-11(6-16(14)25-2)15-9-13(21)20-17(26-3)7-12(8-18(20)28-15)27-10-19(22)23/h4-9H,10H2,1-3H3,(H,22,23)

> <INCHI_KEY>
BCPQOBQIVJZOFL-UHFFFAOYSA-N

> <FORMULA>
C20H18O8

> <MOLECULAR_WEIGHT>
386.356

> <EXACT_MASS>
386.10016754

> <JCHEM_ACCEPTOR_COUNT>
8

> <JCHEM_ATOM_COUNT>
46

> <JCHEM_AVERAGE_POLARIZABILITY>
39.31666533030226

> <JCHEM_BIOAVAILABILITY>
1

> <JCHEM_DONOR_COUNT>
1

> <JCHEM_FORMAL_CHARGE>
0

> <JCHEM_GHOSE_FILTER>
1

> <JCHEM_IUPAC>
2-{[2-(3,4-dimethoxyphenyl)-5-methoxy-4-oxo-4H-chromen-7-yl]oxy}acetic acid

> <ALOGPS_LOGP>
2.67

> <JCHEM_LOGP>
1.814683344333334

> <ALOGPS_LOGS>
-4.39

> <JCHEM_MDDR_LIKE_RULE>
1

> <JCHEM_NUMBER_OF_RINGS>
3

> <JCHEM_PHYSIOLOGICAL_CHARGE>
-1

> <JCHEM_PKA>
15.404199931033908

> <JCHEM_PKA_STRONGEST_ACIDIC>
2.787770188795929

> <JCHEM_PKA_STRONGEST_BASIC>
-4.268679209900799

> <JCHEM_POLAR_SURFACE_AREA>
100.52000000000002

> <JCHEM_REFRACTIVITY>
98.9086

> <JCHEM_ROTATABLE_BOND_COUNT>
7

> <JCHEM_RULE_OF_FIVE>
1

> <ALOGPS_SOLUBILITY>
1.58e-02 g/l

> <JCHEM_TRADITIONAL_IUPAC>
{[2-(3,4-dimethoxyphenyl)-5-methoxy-4-oxochromen-7-yl]oxy}acetic acid

> <JCHEM_VEBER_RULE>
0

> <DRUGBANK_ID>
DB12058

> <DRUG_GROUPS>
investigational

> <GENERIC_NAME>
Recoflavone

$$$$
