54575171
  -OEChem-10051722543D

 55 57  0     0  0  0  0  0  0999 V2000
   -6.4330    2.1406    0.9459 Cl  0  0  0  0  0  0  0  0  0  0  0  0
   -3.1212   -1.9263    1.8006 O   0  0  0  0  0  0  0  0  0  0  0  0
   -1.2520    0.1927   -1.0382 O   0  0  0  0  0  0  0  0  0  0  0  0
    2.6185   -2.0863   -0.2735 N   0  0  0  0  0  0  0  0  0  0  0  0
   -1.9561   -2.1818   -0.1897 N   0  0  0  0  0  0  0  0  0  0  0  0
    4.3853    1.8658    0.0191 N   0  0  0  0  0  0  0  0  0  0  0  0
    3.8501    2.3759    1.1400 N   0  0  0  0  0  0  0  0  0  0  0  0
    4.4442    3.5427    1.3651 N   0  0  0  0  0  0  0  0  0  0  0  0
   -4.5659    3.6534   -0.9209 N   0  0  0  0  0  0  0  0  0  0  0  0
    0.0761   -3.5064    0.0646 C   0  0  0  0  0  0  0  0  0  0  0  0
    0.6387   -2.5617    1.1320 C   0  0  0  0  0  0  0  0  0  0  0  0
    0.6234   -3.1162   -1.3125 C   0  0  0  0  0  0  0  0  0  0  0  0
    2.1657   -2.4913    1.0640 C   0  0  0  0  0  0  0  0  0  0  0  0
    2.1510   -3.0281   -1.2994 C   0  0  0  0  0  0  0  0  0  0  0  0
   -1.4501   -3.4954    0.0718 C   0  0  0  0  0  0  0  0  0  0  0  0
    4.0766   -1.9739   -0.3080 C   0  0  0  0  0  0  0  0  0  0  0  0
    4.5192   -0.6323    0.2738 C   0  0  0  0  0  0  0  0  0  0  0  0
    3.9232    0.5350   -0.5172 C   0  0  0  0  0  0  0  0  0  0  0  0
   -2.7644   -1.4899    0.7094 C   0  0  0  0  0  0  0  0  0  0  0  0
   -3.2291   -0.1465    0.2780 C   0  0  0  0  0  0  0  0  0  0  0  0
    5.3338    2.6896   -0.5040 C   0  0  0  0  0  0  0  0  0  0  0  0
   -2.4544    0.6382   -0.5765 C   0  0  0  0  0  0  0  0  0  0  0  0
   -4.4561    0.3291    0.7407 C   0  0  0  0  0  0  0  0  0  0  0  0
    5.3556    3.7495    0.3673 C   0  0  0  0  0  0  0  0  0  0  0  0
   -2.9070    1.8981   -0.9683 C   0  0  0  0  0  0  0  0  0  0  0  0
   -4.9086    1.5890    0.3487 C   0  0  0  0  0  0  0  0  0  0  0  0
   -4.1340    2.3736   -0.5058 C   0  0  0  0  0  0  0  0  0  0  0  0
   -0.5296    1.0627   -1.9070 C   0  0  0  0  0  0  0  0  0  0  0  0
    0.4102   -4.5278    0.2913 H   0  0  0  0  0  0  0  0  0  0  0  0
    0.3343   -2.9024    2.1290 H   0  0  0  0  0  0  0  0  0  0  0  0
    0.2432   -1.5457    1.0096 H   0  0  0  0  0  0  0  0  0  0  0  0
    0.2316   -2.1468   -1.6396 H   0  0  0  0  0  0  0  0  0  0  0  0
    0.3094   -3.8533   -2.0612 H   0  0  0  0  0  0  0  0  0  0  0  0
    2.4940   -1.7710    1.8211 H   0  0  0  0  0  0  0  0  0  0  0  0
    2.5781   -4.0264   -1.1367 H   0  0  0  0  0  0  0  0  0  0  0  0
    2.4762   -2.6918   -2.2916 H   0  0  0  0  0  0  0  0  0  0  0  0
    2.5868   -3.4668    1.3417 H   0  0  0  0  0  0  0  0  0  0  0  0
   -1.8258   -3.8669    1.0311 H   0  0  0  0  0  0  0  0  0  0  0  0
   -1.8400   -4.1548   -0.7114 H   0  0  0  0  0  0  0  0  0  0  0  0
    4.5649   -2.8028    0.2198 H   0  0  0  0  0  0  0  0  0  0  0  0
    4.4398   -2.0120   -1.3438 H   0  0  0  0  0  0  0  0  0  0  0  0
    5.6144   -0.5741    0.2309 H   0  0  0  0  0  0  0  0  0  0  0  0
    4.2575   -0.5475    1.3345 H   0  0  0  0  0  0  0  0  0  0  0  0
   -1.7905   -1.7859   -1.1095 H   0  0  0  0  0  0  0  0  0  0  0  0
    2.8299    0.5755   -0.4627 H   0  0  0  0  0  0  0  0  0  0  0  0
    4.2304    0.5149   -1.5685 H   0  0  0  0  0  0  0  0  0  0  0  0
    5.8850    2.4622   -1.4051 H   0  0  0  0  0  0  0  0  0  0  0  0
   -5.0656   -0.2813    1.4036 H   0  0  0  0  0  0  0  0  0  0  0  0
    5.9699    4.6363    0.3291 H   0  0  0  0  0  0  0  0  0  0  0  0
   -2.3494    2.5529   -1.6301 H   0  0  0  0  0  0  0  0  0  0  0  0
   -3.9915    4.2097   -1.5399 H   0  0  0  0  0  0  0  0  0  0  0  0
   -5.4527    4.0133   -0.5937 H   0  0  0  0  0  0  0  0  0  0  0  0
   -1.0713    1.2427   -2.8418 H   0  0  0  0  0  0  0  0  0  0  0  0
   -0.2416    1.9912   -1.4022 H   0  0  0  0  0  0  0  0  0  0  0  0
    0.3999    0.5487   -2.1743 H   0  0  0  0  0  0  0  0  0  0  0  0
  1 26  1  0  0  0  0
  2 19  2  0  0  0  0
  3 22  1  0  0  0  0
  3 28  1  0  0  0  0
  4 13  1  0  0  0  0
  4 14  1  0  0  0  0
  4 16  1  0  0  0  0
  5 15  1  0  0  0  0
  5 19  1  0  0  0  0
  5 44  1  0  0  0  0
  6  7  1  0  0  0  0
  6 18  1  0  0  0  0
  6 21  1  0  0  0  0
  7  8  2  0  0  0  0
  8 24  1  0  0  0  0
  9 27  1  0  0  0  0
  9 51  1  0  0  0  0
  9 52  1  0  0  0  0
 10 11  1  0  0  0  0
 10 12  1  0  0  0  0
 10 15  1  0  0  0  0
 10 29  1  0  0  0  0
 11 13  1  0  0  0  0
 11 30  1  0  0  0  0
 11 31  1  0  0  0  0
 12 14  1  0  0  0  0
 12 32  1  0  0  0  0
 12 33  1  0  0  0  0
 13 34  1  0  0  0  0
 13 37  1  0  0  0  0
 14 35  1  0  0  0  0
 14 36  1  0  0  0  0
 15 38  1  0  0  0  0
 15 39  1  0  0  0  0
 16 17  1  0  0  0  0
 16 40  1  0  0  0  0
 16 41  1  0  0  0  0
 17 18  1  0  0  0  0
 17 42  1  0  0  0  0
 17 43  1  0  0  0  0
 18 45  1  0  0  0  0
 18 46  1  0  0  0  0
 19 20  1  0  0  0  0
 20 22  1  0  0  0  0
 20 23  2  0  0  0  0
 21 24  2  0  0  0  0
 21 47  1  0  0  0  0
 22 25  2  0  0  0  0
 23 26  1  0  0  0  0
 23 48  1  0  0  0  0
 24 49  1  0  0  0  0
 25 27  1  0  0  0  0
 25 50  1  0  0  0  0
 26 27  2  0  0  0  0
 28 53  1  0  0  0  0
 28 54  1  0  0  0  0
 28 55  1  0  0  0  0
M  END
> <DATABASE_ID>
DB12853

> <DATABASE_NAME>
drugbank

> <ORIGINAL_SOURCE>
PUBCHEM

> <ORIGINAL_SOURCE_URL>
https://pubchem.ncbi.nlm.nih.gov/rest/pug/compound/inchikey/AULLTYAISZREAX-UHFFFAOYSA-N/SDF?record_type=3d

> <SMILES>
COC1=CC(N)=C(Cl)C=C1C(=O)NCC1CCN(CCCN2C=CN=N2)CC1

> <INCHI_IDENTIFIER>
InChI=1S/C19H27ClN6O2/c1-28-18-12-17(21)16(20)11-15(18)19(27)22-13-14-3-8-25(9-4-14)6-2-7-26-10-5-23-24-26/h5,10-12,14H,2-4,6-9,13,21H2,1H3,(H,22,27)

> <INCHI_KEY>
AULLTYAISZREAX-UHFFFAOYSA-N

> <FORMULA>
C19H27ClN6O2

> <MOLECULAR_WEIGHT>
406.92

> <EXACT_MASS>
406.1884018

> <JCHEM_ACCEPTOR_COUNT>
6

> <JCHEM_ATOM_COUNT>
55

> <JCHEM_AVERAGE_POLARIZABILITY>
43.524100263308824

> <JCHEM_BIOAVAILABILITY>
1

> <JCHEM_DONOR_COUNT>
2

> <JCHEM_FORMAL_CHARGE>
0

> <JCHEM_GHOSE_FILTER>
1

> <JCHEM_IUPAC>
4-amino-5-chloro-2-methoxy-N-({1-[3-(1H-1,2,3-triazol-1-yl)propyl]piperidin-4-yl}methyl)benzamide

> <ALOGPS_LOGP>
1.77

> <JCHEM_LOGP>
1.0610813363333333

> <ALOGPS_LOGS>
-3.29

> <JCHEM_MDDR_LIKE_RULE>
1

> <JCHEM_NUMBER_OF_RINGS>
3

> <JCHEM_PHYSIOLOGICAL_CHARGE>
1

> <JCHEM_PKA>
18.77770709054011

> <JCHEM_PKA_STRONGEST_ACIDIC>
14.504561901288014

> <JCHEM_PKA_STRONGEST_BASIC>
9.224615108323771

> <JCHEM_POLAR_SURFACE_AREA>
98.3

> <JCHEM_REFRACTIVITY>
122.48539999999998

> <JCHEM_ROTATABLE_BOND_COUNT>
8

> <JCHEM_RULE_OF_FIVE>
1

> <ALOGPS_SOLUBILITY>
2.09e-01 g/l

> <JCHEM_TRADITIONAL_IUPAC>
4-amino-5-chloro-2-methoxy-N-({1-[3-(1,2,3-triazol-1-yl)propyl]piperidin-4-yl}methyl)benzamide

> <JCHEM_VEBER_RULE>
0

> <DRUGBANK_ID>
DB12853

> <DRUG_GROUPS>
investigational

> <GENERIC_NAME>
DA-6886

$$$$
