REMARK  Name = 10409068
REMARK  6 active torsions:
REMARK  status: ('A' for Active; 'I' for Inactive)
REMARK    1  A    between atoms: N_1  and  C_16
REMARK    2  A    between atoms: C_8  and  C_29
REMARK    3  A    between atoms: C_13  and  C_22
REMARK    4  A    between atoms: N_21  and  C_24
REMARK    5  A    between atoms: N_28  and  C_31
REMARK    6  A    between atoms: C_31  and  C_32
REMARK                            x       y       z     vdW  Elec       q    Type
REMARK                         _______ _______ _______ _____ _____    ______ ____
ROOT
ATOM      1  N   UNL     1      -0.693   1.779  -0.225  0.00  0.00    -0.297 N 
ATOM      2  N   UNL     1       1.870  -0.396  -1.774  0.00  0.00    -0.185 N 
ATOM      3  N   UNL     1      -0.738   0.247  -1.970  0.00  0.00    -0.206 NA
ATOM      4  N   UNL     1       1.159  -1.026  -2.740  0.00  0.00    -0.151 NA
ATOM      5  C   UNL     1       1.337   0.531  -0.915  0.00  0.00    +0.102 C 
ATOM      6  C   UNL     1       2.340   0.960  -0.074  0.00  0.00    +0.002 C 
ATOM      7  C   UNL     1      -0.062   0.865  -1.033  0.00  0.00    +0.149 C 
ATOM      8  C   UNL     1       3.520   0.265  -0.442  0.00  0.00    +0.067 C 
ATOM      9  C   UNL     1       3.200  -0.566  -1.494  0.00  0.00    +0.094 C 
ATOM     10  C   UNL     1       2.239   1.954   1.015  0.00  0.00    +0.033 C 
ATOM     11  C   UNL     1      -0.095  -0.671  -2.781  0.00  0.00    +0.219 C 
ATOM     12  H   UNL     1      -0.142   2.517   0.122  0.00  0.00    +0.154 HD
ENDROOT
BRANCH   1  16
ATOM     13  C   UNL     1      -4.041   0.522   0.651  0.00  0.00    +0.055 C 
ATOM     14  C   UNL     1      -2.699   0.550   0.272  0.00  0.00    +0.019 C 
ATOM     15  C   UNL     1      -4.717   1.714   0.914  0.00  0.00    +0.004 C 
ATOM     16  C   UNL     1      -2.033   1.770   0.155  0.00  0.00    +0.045 C 
ATOM     17  C   UNL     1      -2.708   2.962   0.418  0.00  0.00    -0.008 C 
ATOM     18  C   UNL     1      -4.050   2.934   0.798  0.00  0.00    -0.003 C 
ATOM     19  C   UNL     1      -2.019   4.283   0.301  0.00  0.00    +0.032 C 
BRANCH  13  22
ATOM     20  O   UNL     1      -5.692  -0.876   1.560  0.00  0.00    -0.270 OA
ATOM     21  N   UNL     1      -4.268  -1.810  -0.012  0.00  0.00    -0.302 N 
ATOM     22  C   UNL     1      -4.737  -0.749   0.773  0.00  0.00    +0.246 C 
ATOM     23  H   UNL     1      -3.508  -1.645  -0.615  0.00  0.00    +0.150 HD
BRANCH  21  24
ATOM     24  C   UNL     1      -4.842  -3.127   0.018  0.00  0.00    +0.072 C 
ATOM     25  C   UNL     1      -4.427  -4.132   1.051  0.00  0.00    +0.021 C 
ATOM     26  C   UNL     1      -4.042  -4.330  -0.386  0.00  0.00    +0.021 C 
ENDBRANCH  21  24
ENDBRANCH  13  22
ENDBRANCH   1  16
BRANCH   8  29
ATOM     27  O   UNL     1       5.239   1.438   0.641  0.00  0.00    -0.270 OA
ATOM     28  N   UNL     1       5.652  -0.777   0.103  0.00  0.00    -0.301 N 
ATOM     29  C   UNL     1       4.830   0.366   0.137  0.00  0.00    +0.247 C 
ATOM     30  H   UNL     1       5.288  -1.597  -0.303  0.00  0.00    +0.150 HD
BRANCH  28  31
ATOM     31  C   UNL     1       6.990  -0.820   0.624  0.00  0.00    +0.090 C 
BRANCH  31  32
ATOM     32  C   UNL     1       7.029  -1.236   2.090  0.00  0.00    +0.021 C 
ATOM     33  C   UNL     1       6.457  -2.627   2.322  0.00  0.00    +0.002 C 
ENDBRANCH  31  32
ENDBRANCH  28  31
ENDBRANCH   8  29
TORSDOF 6
