REMARK  Name = 11224409
REMARK  8 active torsions:
REMARK  status: ('A' for Active; 'I' for Inactive)
REMARK    1  A    between atoms: C_2  and  N_10
REMARK    2  A    between atoms: C_5  and  C_20
REMARK    3  A    between atoms: C_11  and  C_14
REMARK    4  A    between atoms: C_14  and  N_16
REMARK    5  A    between atoms: C_21  and  C_26
REMARK    6  A    between atoms: C_26  and  N_27
REMARK    7  A    between atoms: N_27  and  C_30
REMARK    8  A    between atoms: C_30  and  C_34
REMARK                            x       y       z     vdW  Elec       q    Type
REMARK                         _______ _______ _______ _____ _____    ______ ____
ROOT
ATOM      1  F   UNL     1       0.270   3.001   0.061  0.00  0.00    -0.204 F 
ATOM      2  C   UNL     1       2.714   0.343  -0.354  0.00  0.00    +0.059 C 
ATOM      3  C   UNL     1       2.159   1.619  -0.248  0.00  0.00    +0.045 C 
ATOM      4  C   UNL     1       1.897  -0.783  -0.250  0.00  0.00    +0.015 C 
ATOM      5  C   UNL     1      -0.028   0.642   0.065  0.00  0.00    +0.028 C 
ATOM      6  C   UNL     1       0.788   1.768  -0.039  0.00  0.00    +0.141 C 
ATOM      7  C   UNL     1       0.526  -0.634  -0.040  0.00  0.00    +0.004 C 
ENDROOT
BRANCH   2  10
ATOM      8  O   UNL     1       6.303   0.629  -0.896  0.00  0.00    -0.434 OA
ATOM      9  O   UNL     1       4.920   2.413  -0.672  0.00  0.00    -0.226 OA
ATOM     10  N   UNL     1       4.113   0.191  -0.568  0.00  0.00    -0.221 N 
ATOM     11  C   UNL     1       6.210  -0.784  -0.671  0.00  0.00    +0.210 C 
ATOM     12  C   UNL     1       4.732  -1.087  -0.797  0.00  0.00    +0.147 C 
ATOM     13  C   UNL     1       5.066   1.199  -0.694  0.00  0.00    +0.409 C 
BRANCH  11  14
ATOM     14  C   UNL     1       6.772  -1.100   0.708  0.00  0.00    +0.135 C 
BRANCH  14  16
ATOM     15  O   UNL     1       8.988  -2.876   0.102  0.00  0.00    -0.275 OA
ATOM     16  N   UNL     1       8.172  -0.801   0.778  0.00  0.00    -0.301 N 
ATOM     17  C   UNL     1       9.171  -1.718   0.468  0.00  0.00    +0.223 C 
ATOM     18  C   UNL     1      10.553  -1.136   0.602  0.00  0.00    +0.095 C 
ATOM     19  H   UNL     1       8.441   0.103   1.062  0.00  0.00    +0.150 HD
ENDBRANCH  14  16
ENDBRANCH  11  14
ENDBRANCH   2  10
BRANCH   5  20
ATOM     20  C   UNL     1      -1.451   0.792   0.282  0.00  0.00    +0.002 C 
ATOM     21  C   UNL     1      -4.194   1.079   0.699  0.00  0.00    -0.044 C 
ATOM     22  C   UNL     1      -2.229   1.482  -0.647  0.00  0.00    -0.000 C 
ATOM     23  C   UNL     1      -2.045   0.245   1.420  0.00  0.00    -0.000 C 
ATOM     24  C   UNL     1      -3.601   1.625  -0.439  0.00  0.00    -0.006 C 
ATOM     25  C   UNL     1      -3.416   0.389   1.629  0.00  0.00    -0.006 C 
BRANCH  21  26
ATOM     26  C   UNL     1      -5.661   1.232   0.921  0.00  0.00    -0.054 C 
BRANCH  26  27
ATOM     27  N   UNL     1      -6.432   0.135   0.333  0.00  0.00    +0.390 N 
ATOM     28  H   UNL     1      -6.140  -0.745   0.758  0.00  0.00    -0.083 HD
ATOM     29  H   UNL     1      -6.261   0.116  -0.672  0.00  0.00    -0.083 HD
BRANCH  27  30
ATOM     30  C   UNL     1      -7.855   0.327   0.562  0.00  0.00    -0.031 C 
BRANCH  30  34
ATOM     31  N   UNL     1      -8.967  -1.881   0.678  0.00  0.00    -0.170 NA
ATOM     32  N   UNL     1      -9.685  -2.580  -0.215  0.00  0.00    -0.157 N 
ATOM     33  N   UNL     1      -9.885  -2.050  -1.433  0.00  0.00    -0.162 NA
ATOM     34  C   UNL     1      -8.674  -0.788  -0.033  0.00  0.00    +0.077 C 
ATOM     35  C   UNL     1      -9.231  -0.891  -1.315  0.00  0.00    +0.133 C 
ATOM     36  H   UNL     1     -10.056  -3.462   0.017  0.00  0.00    +0.197 HD
ENDBRANCH  30  34
ENDBRANCH  27  30
ENDBRANCH  26  27
ENDBRANCH  21  26
ENDBRANCH   5  20
TORSDOF 8
