REMARK  Name = 71815
REMARK  4 active torsions:
REMARK  status: ('A' for Active; 'I' for Inactive)
REMARK    1  A    between atoms: N_1  and  C_10
REMARK    2  A    between atoms: C_4  and  N_9
REMARK    3  A    between atoms: C_10  and  C_11
REMARK    4  A    between atoms: C_11  and  O_13
REMARK                            x       y       z     vdW  Elec       q    Type
REMARK                         _______ _______ _______ _____ _____    ______ ____
ROOT
ATOM      1  N   UNL     1      -0.038  -0.424   0.334  0.00  0.00    -0.254 N 
ATOM      2  N   UNL     1      -1.145  -2.247  -0.228  0.00  0.00    -0.230 NA
ATOM      3  C   UNL     1       0.007  -1.774   0.191  0.00  0.00    +0.114 C 
ATOM      4  C   UNL     1      -1.279   0.005  -0.009  0.00  0.00    +0.218 C 
ATOM      5  C   UNL     1      -1.951  -1.143  -0.356  0.00  0.00    +0.140 C 
ATOM      6  C   UNL     1       1.217  -2.568   0.484  0.00  0.00    +0.069 C 
ENDROOT
BRANCH   4   9
ATOM      7  O   UNL     1      -2.866   1.644  -0.319  0.00  0.00    -0.125 OA
ATOM      8  O   UNL     1      -0.868   2.236   0.383  0.00  0.00    -0.125 OA
ATOM      9  N   UNL     1      -1.685   1.343   0.019  0.00  0.00    +0.074 N 
ENDBRANCH   4   9
BRANCH   1  10
ATOM     10  C   UNL     1       1.068   0.419   0.785  0.00  0.00    +0.127 C 
BRANCH  10  11
ATOM     11  C   UNL     1       1.940   0.918  -0.371  0.00  0.00    +0.131 C 
ATOM     12  C   UNL     1       3.084   1.780   0.145  0.00  0.00    +0.034 C 
BRANCH  11  13
ATOM     13  O   UNL     1       2.518  -0.190  -1.058  0.00  0.00    -0.383 OA
ATOM     14  H   UNL     1       1.813  -0.761  -1.401  0.00  0.00    +0.210 HD
ENDBRANCH  11  13
ENDBRANCH  10  11
ENDBRANCH   1  10
TORSDOF 4
