REMARK  Name = 6918474
REMARK  5 active torsions:
REMARK  status: ('A' for Active; 'I' for Inactive)
REMARK    1  A    between atoms: C_1  and  C_3
REMARK    2  A    between atoms: C_1  and  O_9
REMARK    3  A    between atoms: C_1  and  C_11
REMARK    4  A    between atoms: C_11  and  O_12
REMARK    5  A    between atoms: O_12  and  C_15
REMARK                            x       y       z     vdW  Elec       q    Type
REMARK                         _______ _______ _______ _____ _____    ______ ____
ROOT
ATOM      1  C   UNL     1       0.045   1.194  -0.939  0.00  0.00    +0.177 C 
ENDROOT
BRANCH   1   3
ATOM      2 CL   UNL     1      -1.927   2.312   1.151  0.00  0.00    -0.082 Cl
ATOM      3  C   UNL     1      -1.005   0.274  -0.406  0.00  0.00    +0.019 C 
ATOM      4  C   UNL     1      -1.937   0.697   0.541  0.00  0.00    +0.056 C 
ATOM      5  C   UNL     1      -1.039  -1.038  -0.880  0.00  0.00    -0.001 C 
ATOM      6  C   UNL     1      -2.902  -0.192   1.015  0.00  0.00    +0.011 C 
ATOM      7  C   UNL     1      -2.004  -1.926  -0.406  0.00  0.00    -0.000 C 
ATOM      8  C   UNL     1      -2.936  -1.503   0.542  0.00  0.00    +0.001 C 
ENDBRANCH   1   3
BRANCH   1   9
ATOM      9  O   UNL     1       0.316   0.865  -2.306  0.00  0.00    -0.376 OA
ATOM     10  H   UNL     1      -0.508   0.900  -2.816  0.00  0.00    +0.211 HD
ENDBRANCH   1   9
BRANCH   1  11
ATOM     11  C   UNL     1       1.358   1.135  -0.146  0.00  0.00    +0.244 C 
BRANCH  11  12
ATOM     12  O   UNL     1       1.872  -0.190  -0.172  0.00  0.00    -0.432 OA
BRANCH  12  15
ATOM     13  O   UNL     1       3.669   0.472   1.104  0.00  0.00    -0.227 OA
ATOM     14  N   UNL     1       3.442  -1.706   0.403  0.00  0.00    -0.295 N 
ATOM     15  C   UNL     1       3.048  -0.394   0.498  0.00  0.00    +0.399 C 
ATOM     16  H   UNL     1       2.894  -2.350  -0.101  0.00  0.00    +0.148 HD
ATOM     17  H   UNL     1       4.274  -2.002   0.838  0.00  0.00    +0.148 HD
ENDBRANCH  12  15
ENDBRANCH  11  12
ENDBRANCH   1  11
TORSDOF 5
