REMARK  Name = 405012
REMARK  5 active torsions:
REMARK  status: ('A' for Active; 'I' for Inactive)
REMARK    1  A    between atoms: C_2  and  C_11
REMARK    2  A    between atoms: C_11  and  CA_12
REMARK    3  A    between atoms: CA_12  and  N_13
REMARK    4  A    between atoms: CA_12  and  C_18
REMARK    5  A    between atoms: C_18  and  O_19
REMARK                            x       y       z     vdW  Elec       q    Type
REMARK                         _______ _______ _______ _____ _____    ______ ____
ROOT
ATOM      1  N   UNL     1      -1.187   1.675  -0.328  0.00  0.00    -0.284 N 
ATOM      2  C   UNL     1       0.229   0.014  -0.734  0.00  0.00    -0.008 C 
ATOM      3  C   UNL     1      -1.003  -0.548  -0.295  0.00  0.00    +0.011 C 
ATOM      4  C   UNL     1      -1.874   0.515  -0.047  0.00  0.00    +0.051 C 
ATOM      5  C   UNL     1       0.084   1.382  -0.743  0.00  0.00    +0.061 C 
ATOM      6  C   UNL     1      -1.462  -1.864  -0.084  0.00  0.00    +0.001 C 
ATOM      7  C   UNL     1      -3.186   0.328   0.403  0.00  0.00    +0.015 C 
ATOM      8  C   UNL     1      -1.718   3.016  -0.208  0.00  0.00    +0.117 C 
ATOM      9  C   UNL     1      -2.772  -2.066   0.365  0.00  0.00    +0.000 C 
ATOM     10  C   UNL     1      -3.619  -0.986   0.604  0.00  0.00    +0.001 C 
ENDROOT
BRANCH   2  11
ATOM     11  C   UNL     1       1.448  -0.729  -1.112  0.00  0.00    +0.017 C 
BRANCH  11  12
ATOM     12  CA  UNL     1       2.422  -0.992   0.059  0.00  0.00    +0.040 C 
BRANCH  12  13
ATOM     13  N   UNL     1       3.591  -1.743  -0.408  0.00  0.00    +0.389 N 
ATOM     14  H1  UNL     1       3.287  -2.632  -0.806  0.00  0.00    -0.088 HD
ATOM     15  H2  UNL     1       4.219  -1.918   0.377  0.00  0.00    -0.088 HD
ATOM     16  H3  UNL     1       4.080  -1.201  -1.120  0.00  0.00    -0.088 HD
ENDBRANCH  12  13
BRANCH  12  18
ATOM     17  OXT UNL     1       3.921   0.925   0.224  0.00  0.00    -0.253 OA
ATOM     18  C   UNL     1       2.944   0.313   0.636  0.00  0.00    +0.293 C 
BRANCH  18  19
ATOM     19  O   UNL     1       2.180   0.760   1.668  0.00  0.00    -0.482 OA
ATOM     20  H   UNL     1       1.440   0.262   1.954  0.00  0.00    +0.295 HD
ENDBRANCH  18  19
ENDBRANCH  12  18
ENDBRANCH  11  12
ENDBRANCH   2  11
TORSDOF 5
