REMARK  Name = 11687907
REMARK  4 active torsions:
REMARK  status: ('A' for Active; 'I' for Inactive)
REMARK    1  A    between atoms: C_1  and  C_7
REMARK    2  A    between atoms: C_2  and  C_16
REMARK    3  A    between atoms: C_7  and  N_8
REMARK    4  A    between atoms: C_16  and  N_17
REMARK                            x       y       z     vdW  Elec       q    Type
REMARK                         _______ _______ _______ _____ _____    ______ ____
ROOT
ATOM      1  C   UNL     1      -1.395   1.135   0.019  0.00  0.00    -0.002 C 
ATOM      2  C   UNL     1       1.395   1.134  -0.020  0.00  0.00    -0.002 C 
ATOM      3  C   UNL     1      -0.715   1.135  -1.198  0.00  0.00    -0.003 C 
ATOM      4  C   UNL     1       0.680   1.135  -1.218  0.00  0.00    -0.003 C 
ATOM      5  C   UNL     1      -0.680   1.134   1.218  0.00  0.00    -0.003 C 
ATOM      6  C   UNL     1       0.714   1.134   1.198  0.00  0.00    -0.003 C 
ENDROOT
BRANCH   1   7
ATOM      7  C   UNL     1      -2.886   1.134   0.040  0.00  0.00    +0.123 C 
BRANCH   7   8
ATOM      8  N   UNL     1      -3.443  -0.220   0.048  0.00  0.00    -0.273 N 
ATOM      9  N   UNL     1      -5.644   0.592  -0.013  0.00  0.00    -0.181 NA
ATOM     10  N   UNL     1      -5.199  -1.776   0.031  0.00  0.00    -0.203 NA
ATOM     11  C   UNL     1      -4.794  -0.474   0.022  0.00  0.00    +0.087 C 
ATOM     12  C   UNL     1      -6.962   0.306  -0.038  0.00  0.00    +0.108 C 
ATOM     13  C   UNL     1      -6.531  -1.989   0.004  0.00  0.00    +0.165 C 
ATOM     14  C   UNL     1      -7.469  -0.977  -0.031  0.00  0.00    +0.022 C 
ATOM     15  H   UNL     1      -2.822  -0.983   0.073  0.00  0.00    +0.159 HD
ENDBRANCH   7   8
ENDBRANCH   1   7
BRANCH   2  16
ATOM     16  C   UNL     1       2.886   1.134  -0.040  0.00  0.00    +0.123 C 
BRANCH  16  17
ATOM     17  N   UNL     1       3.443  -0.220  -0.048  0.00  0.00    -0.273 N 
ATOM     18  N   UNL     1       5.644   0.592   0.013  0.00  0.00    -0.181 NA
ATOM     19  N   UNL     1       5.199  -1.776  -0.032  0.00  0.00    -0.203 NA
ATOM     20  C   UNL     1       4.794  -0.474  -0.022  0.00  0.00    +0.087 C 
ATOM     21  C   UNL     1       6.962   0.306   0.039  0.00  0.00    +0.108 C 
ATOM     22  C   UNL     1       6.531  -1.989  -0.004  0.00  0.00    +0.165 C 
ATOM     23  C   UNL     1       7.469  -0.977   0.031  0.00  0.00    +0.022 C 
ATOM     24  H   UNL     1       2.822  -0.983  -0.074  0.00  0.00    +0.159 HD
ENDBRANCH  16  17
ENDBRANCH   2  16
TORSDOF 4
