REMARK  Name = 44517831
REMARK  8 active torsions:
REMARK  status: ('A' for Active; 'I' for Inactive)
REMARK    1  A    between atoms: O_1  and  C_7
REMARK    2  A    between atoms: O_1  and  C_20
REMARK    3  A    between atoms: N_2  and  C_10
REMARK    4  A    between atoms: C_10  and  C_11
REMARK    5  A    between atoms: C_11  and  C_13
REMARK    6  A    between atoms: C_20  and  C_21
REMARK    7  A    between atoms: C_21  and  N_23
REMARK    8  A    between atoms: C_21  and  C_30
REMARK                            x       y       z     vdW  Elec       q    Type
REMARK                         _______ _______ _______ _____ _____    ______ ____
ROOT
ATOM      1  O   UNL     1      -0.057  -1.224   1.209  0.00  0.00    -0.456 OA
ENDROOT
BRANCH   1   7
ATOM      2  N   UNL     1      -0.333  -2.318  -2.082  0.00  0.00    +0.393 N 
ATOM      3  C   UNL     1      -0.240  -3.443   0.236  0.00  0.00    +0.034 C 
ATOM      4  C   UNL     1      -0.933  -1.371  -1.028  0.00  0.00    -0.028 C 
ATOM      5  C   UNL     1       1.126  -2.625  -1.718  0.00  0.00    -0.073 C 
ATOM      6  C   UNL     1      -1.138  -3.626  -2.108  0.00  0.00    -0.073 C 
ATOM      7  C   UNL     1      -0.851  -2.038   0.349  0.00  0.00    +0.149 C 
ATOM      8  C   UNL     1       1.168  -3.340  -0.368  0.00  0.00    -0.019 C 
ATOM      9  C   UNL     1      -1.108  -4.266  -0.720  0.00  0.00    -0.019 C 
BRANCH   2  10
ATOM     10  C   UNL     1      -0.389  -1.657  -3.451  0.00  0.00    -0.068 C 
BRANCH  10  11
ATOM     11  C   UNL     1       0.408  -0.357  -3.443  0.00  0.00    +0.004 C 
BRANCH  11  13
ATOM     12  F   UNL     1       0.199   2.451  -8.327  0.00  0.00    -0.204 F 
ATOM     13  C   UNL     1       0.352   0.395  -4.750  0.00  0.00    -0.024 C 
ATOM     14  C   UNL     1       1.304   0.145  -5.739  0.00  0.00    -0.002 C 
ATOM     15  C   UNL     1      -0.651   1.339  -4.969  0.00  0.00    -0.002 C 
ATOM     16  C   UNL     1       1.252   0.840  -6.947  0.00  0.00    +0.029 C 
ATOM     17  C   UNL     1      -0.702   2.034  -6.178  0.00  0.00    +0.029 C 
ATOM     18  C   UNL     1       0.249   1.784  -7.166  0.00  0.00    +0.140 C 
ENDBRANCH  11  13
ENDBRANCH  10  11
ENDBRANCH   2  10
ENDBRANCH   1   7
BRANCH   1  20
ATOM     19  O   UNL     1      -1.935  -0.038   1.815  0.00  0.00    -0.252 OA
ATOM     20  C   UNL     1      -0.730  -0.246   1.896  0.00  0.00    +0.302 C 
BRANCH  20  21
ATOM     21  C   UNL     1       0.247   0.560   2.765  0.00  0.00    +0.069 C 
ATOM     22  C   UNL     1       1.567   0.671   1.979  0.00  0.00    -0.006 C 
BRANCH  21  23
ATOM     23  N   UNL     1      -0.300   1.912   2.876  0.00  0.00    +0.398 N 
ATOM     24  C   UNL     1       0.577   2.756   3.700  0.00  0.00    -0.076 C 
ATOM     25  C   UNL     1      -0.499   2.497   1.542  0.00  0.00    -0.076 C 
ATOM     26  C   UNL     1      -0.005   4.160   3.865  0.00  0.00    -0.023 C 
ATOM     27  C   UNL     1      -1.117   3.893   1.637  0.00  0.00    -0.023 C 
ATOM     28  C   UNL     1      -0.275   4.812   2.514  0.00  0.00    -0.004 C 
ATOM     29  H   UNL     1      -1.209   1.861   3.335  0.00  0.00    -0.078 HD
ENDBRANCH  21  23
BRANCH  21  30
ATOM     30  C   UNL     1       0.363  -0.055   4.162  0.00  0.00    -0.030 C 
ATOM     31  C   UNL     1      -0.767  -0.166   4.972  0.00  0.00    -0.006 C 
ATOM     32  C   UNL     1       1.599  -0.506   4.625  0.00  0.00    -0.006 C 
ATOM     33  C   UNL     1      -0.661  -0.727   6.245  0.00  0.00    -0.000 C 
ATOM     34  C   UNL     1       1.706  -1.067   5.897  0.00  0.00    -0.000 C 
ATOM     35  C   UNL     1       0.575  -1.177   6.707  0.00  0.00    -0.000 C 
ENDBRANCH  21  30
ENDBRANCH  20  21
ENDBRANCH   1  20
TORSDOF 8
