REMARK  Name = 11618368
REMARK  3 active torsions:
REMARK  status: ('A' for Active; 'I' for Inactive)
REMARK    1  A    between atoms: C_6  and  O_27
REMARK    2  A    between atoms: C_13  and  N_22
REMARK    3  A    between atoms: C_18  and  O_29
REMARK                            x       y       z     vdW  Elec       q    Type
REMARK                         _______ _______ _______ _____ _____    ______ ____
ROOT
ATOM      1  S   UNL     1       0.976  -0.904  -0.172  0.00  0.00    -0.055 S 
ATOM      2  O   UNL     1      -2.604   1.959  -0.217  0.00  0.00    -0.252 OA
ATOM      3  N   UNL     1      -3.879   0.046  -0.470  0.00  0.00    -0.264 N 
ATOM      4  N   UNL     1      -1.537  -0.105  -0.233  0.00  0.00    -0.239 N 
ATOM      5  N   UNL     1       0.216   1.546   0.094  0.00  0.00    -0.381 NA
ATOM      6  C   UNL     1      -6.431  -1.146   0.306  0.00  0.00    +0.092 C 
ATOM      7  C   UNL     1      -5.106  -1.913   0.423  0.00  0.00    +0.049 C 
ATOM      8  C   UNL     1      -6.171   0.366   0.401  0.00  0.00    +0.049 C 
ATOM      9  C   UNL     1      -4.050  -1.412  -0.567  0.00  0.00    +0.097 C 
ATOM     10  C   UNL     1      -5.116   0.819  -0.607  0.00  0.00    +0.097 C 
ATOM     11  C   UNL     1      -7.414  -1.600   1.385  0.00  0.00    +0.029 C 
ATOM     12  C   UNL     1      -2.654   0.728  -0.288  0.00  0.00    +0.310 C 
ATOM     13  C   UNL     1       3.594   0.119   0.131  0.00  0.00    +0.042 C 
ATOM     14  C   UNL     1       2.201   0.285   0.061  0.00  0.00    +0.146 C 
ATOM     15  C   UNL     1      -0.212   0.322  -0.092  0.00  0.00    +0.215 C 
ATOM     16  C   UNL     1       1.601   1.542   0.184  0.00  0.00    +0.160 C 
ATOM     17  C   UNL     1       4.387   1.252   0.329  0.00  0.00    +0.015 C 
ATOM     18  C   UNL     1       2.426   2.671   0.383  0.00  0.00    +0.165 C 
ATOM     19  C   UNL     1       3.813   2.512   0.453  0.00  0.00    +0.040 C 
ATOM     20  H   UNL     1      -1.694  -1.075  -0.299  0.00  0.00    +0.159 HD
ENDROOT
BRANCH  13  22
ATOM     21  O   UNL     1       5.647  -3.544  -0.091  0.00  0.00    -0.350 OA
ATOM     22  N   UNL     1       4.205  -1.133   0.010  0.00  0.00    -0.305 N 
ATOM     23  C   UNL     1       4.424  -1.919   1.232  0.00  0.00    +0.123 C 
ATOM     24  C   UNL     1       5.168  -1.376  -1.070  0.00  0.00    +0.123 C 
ATOM     25  C   UNL     1       4.605  -3.390   0.872  0.00  0.00    +0.164 C 
ATOM     26  C   UNL     1       5.309  -2.876  -1.307  0.00  0.00    +0.164 C 
ENDBRANCH  13  22
BRANCH   6  27
ATOM     27  O   UNL     1      -7.007  -1.446  -0.968  0.00  0.00    -0.387 OA
ATOM     28  H   UNL     1      -6.400  -1.167  -1.671  0.00  0.00    +0.210 HD
ENDBRANCH   6  27
BRANCH  18  29
ATOM     29  O   UNL     1       1.889   3.924   0.509  0.00  0.00    -0.469 OA
ATOM     30  C   UNL     1       1.720   4.673  -0.690  0.00  0.00    +0.253 C 
ENDBRANCH  18  29
TORSDOF 3
