REMARK  Name = 4942
REMARK  8 active torsions:
REMARK  status: ('A' for Active; 'I' for Inactive)
REMARK    1  A    between atoms: C_1  and  C_2
REMARK    2  A    between atoms: C_1  and  C_8
REMARK    3  A    between atoms: C_1  and  C_15
REMARK    4  A    between atoms: C_1  and  O_25
REMARK    5  A    between atoms: C_15  and  O_16
REMARK    6  A    between atoms: O_16  and  C_18
REMARK    7  A    between atoms: O_25  and  C_26
REMARK    8  A    between atoms: C_26  and  C_27
REMARK                            x       y       z     vdW  Elec       q    Type
REMARK                         _______ _______ _______ _____ _____    ______ ____
ROOT
ATOM      1  C   UNL     1       1.103  -0.042   0.216  0.00  0.00    +0.219 C 
ENDROOT
BRANCH   1   2
ATOM      2  C   UNL     1       2.314   0.247  -0.673  0.00  0.00    +0.016 C 
ATOM      3  C   UNL     1       2.150   0.219  -2.039  0.00  0.00    -0.001 C 
ATOM      4  C   UNL     1       3.521   0.523  -0.073  0.00  0.00    -0.001 C 
ATOM      5  C   UNL     1       3.253   0.482  -2.850  0.00  0.00    -0.000 C 
ATOM      6  C   UNL     1       4.625   0.787  -0.884  0.00  0.00    -0.000 C 
ATOM      7  C   UNL     1       4.491   0.766  -2.273  0.00  0.00    -0.000 C 
ENDBRANCH   1   2
BRANCH   1   8
ATOM      8  C   UNL     1       0.995  -1.537   0.523  0.00  0.00    +0.016 C 
ATOM      9  C   UNL     1       1.634  -2.029   1.638  0.00  0.00    -0.001 C 
ATOM     10  C   UNL     1       0.262  -2.333  -0.328  0.00  0.00    -0.001 C 
ATOM     11  C   UNL     1       1.536  -3.392   1.917  0.00  0.00    -0.000 C 
ATOM     12  C   UNL     1       0.164  -3.696  -0.048  0.00  0.00    -0.000 C 
ATOM     13  C   UNL     1       0.800  -4.225   1.075  0.00  0.00    -0.000 C 
ENDBRANCH   1   8
BRANCH   1  15
ATOM     14  O   UNL     1      -0.321   1.202  -1.338  0.00  0.00    -0.247 OA
ATOM     15  C   UNL     1      -0.209   0.550  -0.306  0.00  0.00    +0.349 C 
BRANCH  15  16
ATOM     16  O   UNL     1      -1.256   0.220   0.520  0.00  0.00    -0.450 OA
BRANCH  16  18
ATOM     17  N   UNL     1      -5.277  -0.025  -0.617  0.00  0.00    +0.386 N 
ATOM     18  C   UNL     1      -2.538   0.683   0.118  0.00  0.00    +0.165 C 
ATOM     19  C   UNL     1      -2.892   0.115  -1.254  0.00  0.00    +0.021 C 
ATOM     20  C   UNL     1      -3.571   0.247   1.152  0.00  0.00    +0.021 C 
ATOM     21  C   UNL     1      -4.333   0.450  -1.639  0.00  0.00    -0.074 C 
ATOM     22  C   UNL     1      -4.991   0.577   0.693  0.00  0.00    -0.074 C 
ATOM     23  C   UNL     1      -6.654   0.258  -1.021  0.00  0.00    -0.101 C 
ATOM     24  H   UNL     1      -5.162  -1.035  -0.530  0.00  0.00    -0.080 HD
ENDBRANCH  16  18
ENDBRANCH  15  16
ENDBRANCH   1  15
BRANCH   1  25
ATOM     25  O   UNL     1       1.201   0.700   1.449  0.00  0.00    -0.340 OA
BRANCH  25  26
ATOM     26  C   UNL     1       1.248   2.090   1.195  0.00  0.00    +0.144 C 
BRANCH  26  27
ATOM     27  C   UNL     1       1.352   2.828   2.521  0.00  0.00    +0.032 C 
ATOM     28  C   UNL     1       1.392   4.334   2.327  0.00  0.00    +0.003 C 
ENDBRANCH  26  27
ENDBRANCH  25  26
ENDBRANCH   1  25
TORSDOF 8
