REMARK  Name = 10220323
REMARK  0 active torsions:
REMARK  status: ('A' for Active; 'I' for Inactive)
REMARK                            x       y       z     vdW  Elec       q    Type
REMARK                         _______ _______ _______ _____ _____    ______ ____
ROOT
ATOM      1  O   UNL     1       0.243   2.594   0.000  0.00  0.00    -0.213 OA
ATOM      2  N   UNL     1      -1.572  -0.366   0.000  0.00  0.00    -0.249 N 
ATOM      3  N   UNL     1      -1.968   1.867  -0.001  0.00  0.00    -0.319 NA
ATOM      4  C   UNL     1      -0.228   0.181  -0.001  0.00  0.00    +0.176 C 
ATOM      5  C   UNL     1       0.582  -0.199  -1.252  0.00  0.00    +0.062 C 
ATOM      6  C   UNL     1       0.581  -0.198   1.252  0.00  0.00    +0.062 C 
ATOM      7  C   UNL     1       1.973  -0.262  -0.699  0.00  0.00    -0.023 C 
ATOM      8  C   UNL     1       1.972  -0.261   0.699  0.00  0.00    -0.023 C 
ATOM      9  C   UNL     1      -0.587   1.692  -0.001  0.00  0.00    +0.198 C 
ATOM     10  C   UNL     1      -2.489   0.669   0.000  0.00  0.00    +0.201 C 
ATOM     11  C   UNL     1      -1.993  -1.677   0.000  0.00  0.00    +0.068 C 
ATOM     12  C   UNL     1       3.158  -0.346  -1.412  0.00  0.00    -0.004 C 
ATOM     13  C   UNL     1       3.158  -0.344   1.413  0.00  0.00    -0.004 C 
ATOM     14  C   UNL     1      -3.951   0.390   0.001  0.00  0.00    +0.049 C 
ATOM     15  C   UNL     1       4.357  -0.421  -0.701  0.00  0.00    -0.000 C 
ATOM     16  C   UNL     1       4.357  -0.420   0.702  0.00  0.00    -0.000 C 
ATOM     17  C   UNL     1      -3.302  -1.984   0.001  0.00  0.00    +0.016 C 
ATOM     18  C   UNL     1      -4.290  -0.912   0.001  0.00  0.00    +0.005 C 
ENDROOT
TORSDOF 0
