REMARK  Name = 10407120
REMARK  4 active torsions:
REMARK  status: ('A' for Active; 'I' for Inactive)
REMARK    1  A    between atoms: N_2  and  C_19
REMARK    2  A    between atoms: C_3  and  C_6
REMARK    3  A    between atoms: C_5  and  C_16
REMARK    4  A    between atoms: C_19  and  C_21
REMARK                            x       y       z     vdW  Elec       q    Type
REMARK                         _______ _______ _______ _____ _____    ______ ____
ROOT
ATOM      1  O   UNL     1       1.230  -3.792   1.158  0.00  0.00    -0.270 OA
ATOM      2  N   UNL     1       2.330  -2.618  -0.520  0.00  0.00    -0.267 N 
ATOM      3  C   UNL     1       1.261  -2.866   0.346  0.00  0.00    +0.250 C 
ATOM      4  C   UNL     1       3.495  -3.492  -0.485  0.00  0.00    +0.116 C 
ENDROOT
BRANCH   3   6
ATOM      5  C   UNL     1      -1.162  -2.401   0.458  0.00  0.00    +0.006 C 
ATOM      6  C   UNL     1       0.092  -1.945   0.228  0.00  0.00    +0.058 C 
BRANCH   5  16
ATOM      7  O   UNL     1      -7.073   2.504  -0.124  0.00  0.00    -0.275 OA
ATOM      8  N   UNL     1      -5.921   0.523   0.032  0.00  0.00    -0.270 N 
ATOM      9  N   UNL     1      -4.779  -1.547   0.106  0.00  0.00    -0.229 NA
ATOM     10  C   UNL     1      -3.531   2.001   0.401  0.00  0.00    +0.039 C 
ATOM     11  C   UNL     1      -3.518   0.509   0.268  0.00  0.00    +0.010 C 
ATOM     12  C   UNL     1      -4.691   2.603  -0.376  0.00  0.00    +0.090 C 
ATOM     13  C   UNL     1      -4.713  -0.195   0.127  0.00  0.00    +0.130 C 
ATOM     14  C   UNL     1      -2.336  -0.224   0.385  0.00  0.00    +0.000 C 
ATOM     15  C   UNL     1      -6.004   1.894  -0.112  0.00  0.00    +0.227 C 
ATOM     16  C   UNL     1      -2.376  -1.613   0.345  0.00  0.00    +0.019 C 
ATOM     17  C   UNL     1      -3.611  -2.220   0.208  0.00  0.00    +0.100 C 
ATOM     18  H   UNL     1      -6.762   0.014   0.071  0.00  0.00    +0.156 HD
ENDBRANCH   5  16
ENDBRANCH   3   6
BRANCH   2  19
ATOM     19  C   UNL     1       2.375  -1.547  -1.514  0.00  0.00    +0.158 C 
BRANCH  19  21
ATOM     20  O   UNL     1       4.075  -0.455  -0.219  0.00  0.00    -0.456 OA
ATOM     21  C   UNL     1       2.959  -0.284  -0.952  0.00  0.00    +0.139 A 
ATOM     22  C   UNL     1       2.581   1.014  -1.038  0.00  0.00    +0.013 A 
ATOM     23  C   UNL     1       3.545   1.740  -0.290  0.00  0.00    +0.033 A 
ATOM     24  C   UNL     1       4.441   0.791   0.193  0.00  0.00    +0.145 A 
ATOM     25  C   UNL     1       1.415   1.567  -1.755  0.00  0.00    +0.034 C 
ATOM     26  C   UNL     1       3.759   3.091   0.032  0.00  0.00    +0.003 C 
ATOM     27  C   UNL     1       5.549   1.093   0.982  0.00  0.00    +0.037 C 
ATOM     28  C   UNL     1       4.865   3.426   0.825  0.00  0.00    +0.000 C 
ATOM     29  C   UNL     1       5.742   2.443   1.291  0.00  0.00    +0.003 C 
ENDBRANCH  19  21
ENDBRANCH   2  19
TORSDOF 4
