REMARK  Name = 21640
REMARK  1 active torsions:
REMARK  status: ('A' for Active; 'I' for Inactive)
REMARK    1  A    between atoms: N_1  and  C_9
REMARK                            x       y       z     vdW  Elec       q    Type
REMARK                         _______ _______ _______ _____ _____    ______ ____
ROOT
ATOM      1  N   UNL     1       0.872  -0.226   0.045  0.00  0.00    -0.180 N 
ATOM      2  N   UNL     1       1.501  -1.389   0.293  0.00  0.00    -0.038 NA
ATOM      3  N   UNL     1       2.999   0.225  -0.058  0.00  0.00    -0.092 NA
ATOM      4  N   UNL     1       1.428   2.020  -0.439  0.00  0.00    -0.326 N 
ATOM      5  N   UNL     1       2.796  -1.106   0.229  0.00  0.00    -0.021 NA
ATOM      6  C   UNL     1       1.800   0.750  -0.167  0.00  0.00    +0.237 A 
ATOM      7  H   UNL     1       0.473   2.254  -0.487  0.00  0.00    +0.145 HD
ATOM      8  H   UNL     1       2.112   2.712  -0.590  0.00  0.00    +0.145 HD
ENDROOT
BRANCH   1   9
ATOM      9  C   UNL     1      -0.507  -0.137   0.031  0.00  0.00    +0.087 C 
ATOM     10  C   UNL     1      -1.132   1.056   0.395  0.00  0.00    +0.019 C 
ATOM     11  C   UNL     1      -1.274  -1.238  -0.348  0.00  0.00    +0.019 C 
ATOM     12  C   UNL     1      -2.524   1.147   0.381  0.00  0.00    +0.002 C 
ATOM     13  C   UNL     1      -2.666  -1.147  -0.363  0.00  0.00    +0.002 C 
ATOM     14  C   UNL     1      -3.291   0.045   0.002  0.00  0.00    +0.000 C 
ENDBRANCH   1   9
TORSDOF 1
