REMARK  Name = 82755
REMARK  5 active torsions:
REMARK  status: ('A' for Active; 'I' for Inactive)
REMARK    1  A    between atoms: C_1  and  C_11
REMARK    2  A    between atoms: C_4  and  O_7
REMARK    3  A    between atoms: C_6  and  O_9
REMARK    4  A    between atoms: C_11  and  C_12
REMARK    5  A    between atoms: C_12  and  O_13
REMARK                            x       y       z     vdW  Elec       q    Type
REMARK                         _______ _______ _______ _____ _____    ______ ____
ROOT
ATOM      1  C   UNL     1       0.819  -0.386  -0.465  0.00  0.00    -0.016 C 
ATOM      2  C   UNL     1       0.106   0.812  -0.510  0.00  0.00    +0.036 C 
ATOM      3  C   UNL     1       0.177  -1.567  -0.089  0.00  0.00    -0.001 C 
ATOM      4  C   UNL     1      -1.249   0.829  -0.179  0.00  0.00    +0.167 C 
ATOM      5  C   UNL     1      -1.178  -1.549   0.241  0.00  0.00    +0.039 C 
ATOM      6  C   UNL     1      -1.891  -0.351   0.196  0.00  0.00    +0.167 C 
ENDROOT
BRANCH   4   7
ATOM      7  O   UNL     1      -1.935   2.006  -0.225  0.00  0.00    -0.503 OA
ATOM      8  H   UNL     1      -1.496   2.794  -0.479  0.00  0.00    +0.292 HD
ENDBRANCH   4   7
BRANCH   6   9
ATOM      9  O   UNL     1      -3.214  -0.346   0.521  0.00  0.00    -0.503 OA
ATOM     10  H   UNL     1      -3.700   0.454   0.493  0.00  0.00    +0.292 HD
ENDBRANCH   6   9
BRANCH   1  11
ATOM     11  C   UNL     1       2.268  -0.405  -0.817  0.00  0.00    +0.058 C 
BRANCH  11  12
ATOM     12  C   UNL     1       3.180  -0.164   0.389  0.00  0.00    +0.142 C 
BRANCH  12  13
ATOM     13  O   UNL     1       2.915   1.121   0.938  0.00  0.00    -0.382 OA
ATOM     14  H   UNL     1       3.494   1.272   1.702  0.00  0.00    +0.210 HD
ENDBRANCH  12  13
ENDBRANCH  11  12
ENDBRANCH   1  11
TORSDOF 5
