REMARK  Name = 11488320
REMARK  6 active torsions:
REMARK  status: ('A' for Active; 'I' for Inactive)
REMARK    1  A    between atoms: N_2  and  C_15
REMARK    2  A    between atoms: C_4  and  O_23
REMARK    3  A    between atoms: C_6  and  O_21
REMARK    4  A    between atoms: O_23  and  C_25
REMARK    5  A    between atoms: N_24  and  C_31
REMARK    6  A    between atoms: C_31  and  C_34
REMARK                            x       y       z     vdW  Elec       q    Type
REMARK                         _______ _______ _______ _____ _____    ______ ____
ROOT
ATOM      1  N   UNL     1      -3.196   3.555   1.151  0.00  0.00    -0.248 NA
ATOM      2  N   UNL     1      -3.058  -0.329  -0.272  0.00  0.00    -0.296 N 
ATOM      3  N   UNL     1      -4.243   1.419   0.764  0.00  0.00    -0.230 NA
ATOM      4  C   UNL     1       0.335   2.192  -0.575  0.00  0.00    +0.168 C 
ATOM      5  C   UNL     1      -0.758   1.342  -0.491  0.00  0.00    +0.044 C 
ATOM      6  C   UNL     1       0.250   3.486  -0.087  0.00  0.00    +0.156 C 
ATOM      7  C   UNL     1      -1.953   1.799   0.092  0.00  0.00    +0.048 C 
ATOM      8  C   UNL     1      -0.942   3.934   0.491  0.00  0.00    +0.112 C 
ATOM      9  C   UNL     1      -2.058   3.107   0.592  0.00  0.00    +0.066 C 
ATOM     10  C   UNL     1      -3.089   1.003   0.210  0.00  0.00    +0.131 C 
ATOM     11  C   UNL     1      -4.227   2.687   1.206  0.00  0.00    +0.252 C 
ATOM     12  H   UNL     1      -2.450  -0.461  -1.035  0.00  0.00    +0.154 HD
ENDROOT
BRANCH   2  15
ATOM     13 CL   UNL     1      -5.065  -4.881  -1.551  0.00  0.00    -0.080 Cl
ATOM     14  F   UNL     1      -3.675  -2.329  -2.088  0.00  0.00    -0.202 F 
ATOM     15  C   UNL     1      -3.726  -1.497   0.128  0.00  0.00    +0.078 C 
ATOM     16  C   UNL     1      -4.029  -2.494  -0.804  0.00  0.00    +0.164 C 
ATOM     17  C   UNL     1      -4.094  -1.671   1.466  0.00  0.00    +0.017 C 
ATOM     18  C   UNL     1      -4.693  -3.652  -0.404  0.00  0.00    +0.086 C 
ATOM     19  C   UNL     1      -4.758  -2.830   1.867  0.00  0.00    +0.002 C 
ATOM     20  C   UNL     1      -5.058  -3.821   0.932  0.00  0.00    +0.014 C 
ENDBRANCH   2  15
BRANCH   6  21
ATOM     21  O   UNL     1       1.315   4.333  -0.162  0.00  0.00    -0.472 OA
ATOM     22  C   UNL     1       1.421   5.138  -1.334  0.00  0.00    +0.252 C 
ENDBRANCH   6  21
BRANCH   4  23
ATOM     23  O   UNL     1       1.497   1.739  -1.142  0.00  0.00    -0.477 OA
BRANCH  23  25
ATOM     24  N   UNL     1       4.362  -1.252  -0.542  0.00  0.00    +0.393 N 
ATOM     25  C   UNL     1       2.115   0.616  -0.528  0.00  0.00    +0.162 C 
ATOM     26  C   UNL     1       3.508   1.015  -0.051  0.00  0.00    +0.021 C 
ATOM     27  C   UNL     1       2.208  -0.538  -1.522  0.00  0.00    +0.021 C 
ATOM     28  C   UNL     1       4.284  -0.193   0.473  0.00  0.00    -0.073 C 
ATOM     29  C   UNL     1       3.022  -1.698  -0.952  0.00  0.00    -0.073 C 
ATOM     30  H   UNL     1       4.829  -0.866  -1.363  0.00  0.00    -0.079 HD
BRANCH  24  31
ATOM     31  C   UNL     1       5.147  -2.382  -0.044  0.00  0.00    +0.010 C 
BRANCH  31  34
ATOM     32  O   UNL     1       7.086  -0.966  -0.308  0.00  0.00    -0.277 OA
ATOM     33  N   UNL     1       7.105  -2.608   1.334  0.00  0.00    -0.304 N 
ATOM     34  C   UNL     1       6.544  -1.897   0.283  0.00  0.00    +0.201 C 
ATOM     35  C   UNL     1       8.420  -2.330   1.867  0.00  0.00    +0.111 C 
ATOM     36  H   UNL     1       6.582  -3.338   1.737  0.00  0.00    +0.149 HD
ENDBRANCH  31  34
ENDBRANCH  24  31
ENDBRANCH  23  25
ENDBRANCH   4  23
TORSDOF 6
