REMARK  Name = 4413
REMARK  6 active torsions:
REMARK  status: ('A' for Active; 'I' for Inactive)
REMARK    1  A    between atoms: O_1  and  C_9
REMARK    2  A    between atoms: O_1  and  C_19
REMARK    3  A    between atoms: C_6  and  C_14
REMARK    4  A    between atoms: C_19  and  C_20
REMARK    5  A    between atoms: C_23  and  N_26
REMARK    6  A    between atoms: N_26  and  C_29
REMARK                            x       y       z     vdW  Elec       q    Type
REMARK                         _______ _______ _______ _____ _____    ______ ____
ROOT
ATOM      1  O   UNL     1       0.543   0.160   0.473  0.00  0.00    -0.421 OA
ENDROOT
BRANCH   1   9
ATOM      2  C   UNL     1      -3.577   0.740   0.198  0.00  0.00    +0.000 C 
ATOM      3  C   UNL     1      -3.051  -0.572   0.280  0.00  0.00    +0.003 C 
ATOM      4  C   UNL     1      -4.967   0.918   0.106  0.00  0.00    +0.003 C 
ATOM      5  C   UNL     1      -1.661  -0.749   0.372  0.00  0.00    +0.038 C 
ATOM      6  C   UNL     1      -5.826  -0.181   0.096  0.00  0.00    +0.031 C 
ATOM      7  C   UNL     1      -3.930  -1.666   0.269  0.00  0.00    +0.000 C 
ATOM      8  C   UNL     1      -2.697   1.835   0.209  0.00  0.00    +0.003 C 
ATOM      9  C   UNL     1      -0.801   0.350   0.382  0.00  0.00    +0.149 C 
ATOM     10  C   UNL     1      -5.309  -1.471   0.177  0.00  0.00    +0.003 C 
ATOM     11  C   UNL     1      -1.319   1.639   0.301  0.00  0.00    +0.038 C 
BRANCH   6  14
ATOM     12  N   UNL     1      -8.147  -1.058  -0.012  0.00  0.00    -0.343 N 
ATOM     13  N   UNL     1      -7.752   1.245  -0.081  0.00  0.00    -0.285 NA
ATOM     14  C   UNL     1      -7.263   0.020   0.000  0.00  0.00    +0.117 C 
ATOM     15  H   UNL     1      -9.116  -0.898  -0.077  0.00  0.00    +0.144 HD
ATOM     16  H   UNL     1      -7.802  -1.978   0.045  0.00  0.00    +0.144 HD
ATOM     17  H   UNL     1      -8.725   1.383  -0.146  0.00  0.00    +0.188 HD
ENDBRANCH   6  14
ENDBRANCH   1   9
BRANCH   1  19
ATOM     18  O   UNL     1       0.653   0.084  -1.853  0.00  0.00    -0.244 OA
ATOM     19  C   UNL     1       1.191   0.031  -0.757  0.00  0.00    +0.346 C 
BRANCH  19  20
ATOM     20  C   UNL     1       2.651  -0.173  -0.578  0.00  0.00    +0.076 C 
ATOM     21  C   UNL     1       3.514   0.293  -1.548  0.00  0.00    +0.008 C 
ATOM     22  C   UNL     1       3.099  -0.821   0.555  0.00  0.00    +0.008 C 
ATOM     23  C   UNL     1       5.364  -0.548  -0.242  0.00  0.00    +0.084 C 
ATOM     24  C   UNL     1       4.885   0.103  -1.378  0.00  0.00    +0.019 C 
ATOM     25  C   UNL     1       4.471  -1.011   0.725  0.00  0.00    +0.019 C 
BRANCH  23  26
ATOM     26  N   UNL     1       6.738  -0.740  -0.072  0.00  0.00    -0.214 NA
BRANCH  26  29
ATOM     27  N   UNL     1       8.788   0.031   0.741  0.00  0.00    -0.370 N 
ATOM     28  N   UNL     1       6.967   1.362   1.086  0.00  0.00    -0.370 N 
ATOM     29  C   UNL     1       7.434   0.181   0.552  0.00  0.00    +0.193 C 
ATOM     30  H   UNL     1       9.246  -0.773   0.405  0.00  0.00    +0.159 HD
ATOM     31  H   UNL     1       9.300   0.729   1.211  0.00  0.00    +0.159 HD
ATOM     32  H   UNL     1       6.012   1.589   1.017  0.00  0.00    +0.159 HD
ATOM     33  H   UNL     1       7.589   1.980   1.535  0.00  0.00    +0.159 HD
ENDBRANCH  26  29
ENDBRANCH  23  26
ENDBRANCH  19  20
ENDBRANCH   1  19
TORSDOF 6
