REMARK  Name = 24916881
REMARK  9 active torsions:
REMARK  status: ('A' for Active; 'I' for Inactive)
REMARK    1  A    between atoms: C_1  and  C_4
REMARK    2  A    between atoms: C_1  and  C_5
REMARK    3  A    between atoms: C_1  and  C_12
REMARK    4  A    between atoms: C_5  and  C_6
REMARK    5  A    between atoms: C_6  and  C_7
REMARK    6  A    between atoms: C_7  and  N_8
REMARK    7  A    between atoms: C_12  and  C_15
REMARK    8  A    between atoms: N_13  and  C_18
REMARK    9  A    between atoms: C_18  and  C_19
REMARK                            x       y       z     vdW  Elec       q    Type
REMARK                         _______ _______ _______ _____ _____    ______ ____
ROOT
ATOM      1  C   UNL     1      -1.468   0.252   0.221  0.00  0.00    +0.109 C 
ENDROOT
BRANCH   1   4
ATOM      2  O   UNL     1      -1.855  -1.636  -1.188  0.00  0.00    -0.246 OA
ATOM      3  O   UNL     1      -0.948   0.259  -2.088  0.00  0.00    -0.246 OA
ATOM      4  C   UNL     1      -1.422  -0.450  -1.154  0.00  0.00    +0.365 C 
ENDBRANCH   1   4
BRANCH   1   5
ATOM      5  C   UNL     1      -2.919   0.347   0.723  0.00  0.00    +0.009 C 
BRANCH   5   6
ATOM      6  C   UNL     1      -3.802   1.205  -0.194  0.00  0.00    -0.023 C 
BRANCH   6   7
ATOM      7  C   UNL     1      -5.225   1.374   0.324  0.00  0.00    -0.086 C 
BRANCH   7   8
ATOM      8  N   UNL     1      -5.911   0.063   0.408  0.00  0.00    +0.380 N 
ATOM      9  H   UNL     1      -6.860   0.197   0.757  0.00  0.00    -0.089 HD
ATOM     10  H   UNL     1      -5.399  -0.548   1.045  0.00  0.00    -0.089 HD
ATOM     11  H   UNL     1      -5.945  -0.363  -0.518  0.00  0.00    -0.089 HD
ENDBRANCH   7   8
ENDBRANCH   6   7
ENDBRANCH   5   6
ENDBRANCH   1   5
BRANCH   1  12
ATOM     12  C   UNL     1      -0.610  -0.546   1.219  0.00  0.00    +0.054 C 
BRANCH  12  15
ATOM     13  N   UNL     1       2.964  -0.384   0.473  0.00  0.00    -0.247 NA
ATOM     14  N   UNL     1       1.250  -1.722   0.022  0.00  0.00    -0.259 NA
ATOM     15  C   UNL     1       0.835  -0.668   0.797  0.00  0.00    +0.050 C 
ATOM     16  C   UNL     1       1.881   0.175   1.089  0.00  0.00    +0.115 C 
ATOM     17  C   UNL     1       2.537  -1.521  -0.155  0.00  0.00    +0.200 C 
BRANCH  13  18
ATOM     18  C   UNL     1       4.312   0.130   0.482  0.00  0.00    +0.074 C 
BRANCH  18  19
ATOM     19  C   UNL     1       4.474   1.307  -0.481  0.00  0.00    +0.017 C 
ATOM     20  C   UNL     1       5.907   1.816  -0.499  0.00  0.00    +0.001 C 
ENDBRANCH  18  19
ENDBRANCH  13  18
ENDBRANCH  12  15
ENDBRANCH   1  12
TORSDOF 9
