REMARK  Name = 2448
REMARK  7 active torsions:
REMARK  status: ('A' for Active; 'I' for Inactive)
REMARK    1  A    between atoms: N_1  and  C_17
REMARK    2  A    between atoms: C_2  and  C_9
REMARK    3  A    between atoms: C_2  and  O_15
REMARK    4  A    between atoms: C_17  and  C_18
REMARK    5  A    between atoms: C_18  and  C_19
REMARK    6  A    between atoms: C_19  and  C_21
REMARK    7  A    between atoms: C_21  and  C_23
REMARK                            x       y       z     vdW  Elec       q    Type
REMARK                         _______ _______ _______ _____ _____    ______ ____
ROOT
ATOM      1  N   UNL     1       0.461  -0.383   0.732  0.00  0.00    +0.387 N 
ATOM      2  C   UNL     1       3.167   0.362  -0.240  0.00  0.00    +0.103 C 
ATOM      3  C   UNL     1       2.449  -0.952  -0.618  0.00  0.00    +0.008 C 
ATOM      4  C   UNL     1       2.560   0.894   1.079  0.00  0.00    +0.008 C 
ATOM      5  C   UNL     1       0.921  -0.832  -0.587  0.00  0.00    -0.075 C 
ATOM      6  C   UNL     1       1.027   0.927   1.070  0.00  0.00    -0.075 C 
ATOM      7  H   UNL     1       0.787  -1.055   1.426  0.00  0.00    -0.080 HD
ENDROOT
BRANCH   2   9
ATOM      8 BR   UNL     1       9.342  -0.070   0.230  0.00  0.00    -0.049 Br
ATOM      9  C   UNL     1       4.689   0.256  -0.126  0.00  0.00    +0.002 C 
ATOM     10  C   UNL     1       5.321  -0.964  -0.357  0.00  0.00    -0.002 C 
ATOM     11  C   UNL     1       5.441   1.381   0.211  0.00  0.00    -0.002 C 
ATOM     12  C   UNL     1       6.708  -1.062  -0.252  0.00  0.00    +0.006 C 
ATOM     13  C   UNL     1       6.829   1.284   0.317  0.00  0.00    +0.006 C 
ATOM     14  C   UNL     1       7.462   0.062   0.085  0.00  0.00    +0.035 C 
ENDBRANCH   2   9
BRANCH   2  15
ATOM     15  O   UNL     1       2.929   1.310  -1.291  0.00  0.00    -0.383 OA
ATOM     16  H   UNL     1       1.973   1.423  -1.414  0.00  0.00    +0.211 HD
ENDBRANCH   2  15
BRANCH   1  17
ATOM     17  C   UNL     1      -1.000  -0.338   0.777  0.00  0.00    -0.077 C 
BRANCH  17  18
ATOM     18  C   UNL     1      -1.582  -1.723   0.488  0.00  0.00    -0.015 C 
BRANCH  18  19
ATOM     19  C   UNL     1      -3.113  -1.729   0.521  0.00  0.00    +0.067 C 
BRANCH  19  21
ATOM     20  O   UNL     1      -3.192  -0.628  -1.625  0.00  0.00    -0.291 OA
ATOM     21  C   UNL     1      -3.744  -0.850  -0.550  0.00  0.00    +0.173 C 
BRANCH  21  23
ATOM     22  F   UNL     1      -8.775   1.363   0.430  0.00  0.00    -0.204 F 
ATOM     23  C   UNL     1      -5.087  -0.259  -0.288  0.00  0.00    +0.035 C 
ATOM     24  C   UNL     1      -5.965  -0.945   0.521  0.00  0.00    +0.005 C 
ATOM     25  C   UNL     1      -5.401   0.951  -0.866  0.00  0.00    +0.005 C 
ATOM     26  C   UNL     1      -7.221  -0.392   0.766  0.00  0.00    +0.030 C 
ATOM     27  C   UNL     1      -6.657   1.504  -0.621  0.00  0.00    +0.030 C 
ATOM     28  C   UNL     1      -7.568   0.833   0.195  0.00  0.00    +0.140 C 
ENDBRANCH  21  23
ENDBRANCH  19  21
ENDBRANCH  18  19
ENDBRANCH  17  18
ENDBRANCH   1  17
TORSDOF 7
