REMARK  Name = 4820
REMARK  3 active torsions:
REMARK  status: ('A' for Active; 'I' for Inactive)
REMARK    1  A    between atoms: N_2  and  C_5
REMARK    2  A    between atoms: C_3  and  C_13
REMARK    3  A    between atoms: C_13  and  C_15
REMARK                            x       y       z     vdW  Elec       q    Type
REMARK                         _______ _______ _______ _____ _____    ______ ____
ROOT
ATOM      1  O   UNL     1      -0.002   0.095   1.280  0.00  0.00    -0.275 OA
ATOM      2  N   UNL     1       1.153  -0.028  -0.762  0.00  0.00    -0.284 N 
ATOM      3  C   UNL     1       0.028   0.023   0.055  0.00  0.00    +0.224 C 
ATOM      4  H   UNL     1       0.984  -0.083  -1.731  0.00  0.00    +0.155 HD
ENDROOT
BRANCH   2   5
ATOM      5  C   UNL     1       2.511  -0.010  -0.364  0.00  0.00    +0.042 C 
ATOM      6  C   UNL     1       3.168   1.205  -0.241  0.00  0.00    -0.009 C 
ATOM      7  C   UNL     1       3.160  -1.207  -0.103  0.00  0.00    -0.009 C 
ATOM      8  C   UNL     1       4.507   1.223   0.151  0.00  0.00    -0.003 C 
ATOM      9  C   UNL     1       4.499  -1.189   0.290  0.00  0.00    -0.003 C 
ATOM     10  C   UNL     1       2.484   2.504  -0.519  0.00  0.00    +0.032 C 
ATOM     11  C   UNL     1       2.466  -2.524  -0.231  0.00  0.00    +0.032 C 
ATOM     12  C   UNL     1       5.172   0.026   0.417  0.00  0.00    -0.001 C 
ENDBRANCH   2   5
BRANCH   3  13
ATOM     13  C   UNL     1      -1.231  -0.021  -0.788  0.00  0.00    +0.067 C 
BRANCH  13  15
ATOM     14  N   UNL     1      -3.692   0.033  -0.833  0.00  0.00    +0.390 N 
ATOM     15  C   UNL     1      -2.503   0.016   0.064  0.00  0.00    -0.034 C 
ATOM     16  C   UNL     1      -2.571   1.296   0.907  0.00  0.00    -0.021 C 
ATOM     17  C   UNL     1      -2.634  -1.265   0.902  0.00  0.00    -0.021 C 
ATOM     18  C   UNL     1      -4.375   1.318  -0.630  0.00  0.00    -0.077 C 
ATOM     19  C   UNL     1      -4.546  -1.107  -0.465  0.00  0.00    -0.077 C 
ATOM     20  C   UNL     1      -4.016   1.743   0.782  0.00  0.00    -0.025 C 
ATOM     21  C   UNL     1      -3.576  -2.131   0.088  0.00  0.00    -0.025 C 
ATOM     22  H   UNL     1      -3.447  -0.056  -1.818  0.00  0.00    -0.080 HD
ENDBRANCH  13  15
ENDBRANCH   3  13
TORSDOF 3
