REMARK  Name = 60203
REMARK  3 active torsions:
REMARK  status: ('A' for Active; 'I' for Inactive)
REMARK    1  A    between atoms: C_4  and  C_12
REMARK    2  A    between atoms: C_5  and  O_13
REMARK    3  A    between atoms: C_8  and  O_15
REMARK                            x       y       z     vdW  Elec       q    Type
REMARK                         _______ _______ _______ _____ _____    ______ ____
ROOT
ATOM      1 CL   UNL     1       0.852   2.684   0.238  0.00  0.00    -0.077 Cl
ATOM      2 CL   UNL     1      -3.508  -0.540   0.219  0.00  0.00    -0.095 Cl
ATOM      3  N   UNL     1       0.408  -1.278  -0.037  0.00  0.00    -0.370 NA
ATOM      4  C   UNL     1       0.911  -0.025   0.031  0.00  0.00    +0.167 C 
ATOM      5  C   UNL     1      -1.245   0.962   0.215  0.00  0.00    +0.154 C 
ATOM      6  C   UNL     1       0.136   1.117   0.156  0.00  0.00    +0.118 C 
ATOM      7  C   UNL     1      -1.800  -0.311   0.149  0.00  0.00    +0.225 C 
ATOM      8  C   UNL     1      -0.938  -1.388   0.024  0.00  0.00    +0.275 C 
ENDROOT
BRANCH   4  12
ATOM      9 CL   UNL     1       3.070   0.830   1.457  0.00  0.00    -0.076 Cl
ATOM     10 CL   UNL     1       3.268  -1.517  -0.205  0.00  0.00    -0.076 Cl
ATOM     11 CL   UNL     1       2.914   1.059  -1.457  0.00  0.00    -0.076 Cl
ATOM     12  C   UNL     1       2.402   0.060  -0.039  0.00  0.00    +0.245 C 
ENDBRANCH   4  12
BRANCH   5  13
ATOM     13  O   UNL     1      -2.052   2.056   0.339  0.00  0.00    -0.473 OA
ATOM     14  C   UNL     1      -2.499   2.668  -0.868  0.00  0.00    +0.252 C 
ENDBRANCH   5  13
BRANCH   8  15
ATOM     15  O   UNL     1      -1.434  -2.664  -0.047  0.00  0.00    -0.450 OA
ATOM     16  C   UNL     1      -0.484  -3.714  -0.174  0.00  0.00    +0.255 C 
ENDBRANCH   8  15
TORSDOF 3
