REMARK  Name = 13099
REMARK  5 active torsions:
REMARK  status: ('A' for Active; 'I' for Inactive)
REMARK    1  A    between atoms: C_1  and  C_7
REMARK    2  A    between atoms: C_4  and  C_18
REMARK    3  A    between atoms: C_10  and  C_14
REMARK    4  A    between atoms: C_14  and  O_15
REMARK    5  A    between atoms: C_18  and  O_19
REMARK                            x       y       z     vdW  Elec       q    Type
REMARK                         _______ _______ _______ _____ _____    ______ ____
ROOT
ATOM      1  C   UNL     1       0.722   0.048   0.043  0.00  0.00    +0.000 C 
ATOM      2  C   UNL     1       1.340   1.258   0.356  0.00  0.00    +0.000 C 
ATOM      3  C   UNL     1       1.495  -1.070  -0.270  0.00  0.00    +0.000 C 
ATOM      4  C   UNL     1       3.505   0.233   0.043  0.00  0.00    +0.076 C 
ATOM      5  C   UNL     1       2.732   1.351   0.356  0.00  0.00    +0.006 C 
ATOM      6  C   UNL     1       2.887  -0.978  -0.270  0.00  0.00    +0.006 C 
ENDROOT
BRANCH   1   7
ATOM      7  C   UNL     1      -0.722  -0.048   0.042  0.00  0.00    +0.000 C 
ATOM      8  C   UNL     1      -1.495   1.070  -0.271  0.00  0.00    +0.000 C 
ATOM      9  C   UNL     1      -1.341  -1.258   0.355  0.00  0.00    +0.000 C 
ATOM     10  C   UNL     1      -3.505  -0.233   0.042  0.00  0.00    +0.076 C 
ATOM     11  C   UNL     1      -2.887   0.977  -0.271  0.00  0.00    +0.006 C 
ATOM     12  C   UNL     1      -2.732  -1.351   0.355  0.00  0.00    +0.006 C 
BRANCH  10  14
ATOM     13  O   UNL     1      -5.590  -1.360   0.307  0.00  0.00    -0.245 OA
ATOM     14  C   UNL     1      -4.957  -0.329   0.043  0.00  0.00    +0.341 C 
BRANCH  14  15
ATOM     15  O   UNL     1      -5.540   0.864  -0.285  0.00  0.00    -0.441 OA
ATOM     16  C   UNL     1      -6.971   0.897  -0.318  0.00  0.00    +0.256 C 
ENDBRANCH  14  15
ENDBRANCH  10  14
ENDBRANCH   1   7
BRANCH   4  18
ATOM     17  O   UNL     1       5.590   1.360   0.306  0.00  0.00    -0.245 OA
ATOM     18  C   UNL     1       4.957   0.329   0.043  0.00  0.00    +0.341 C 
BRANCH  18  19
ATOM     19  O   UNL     1       5.540  -0.864  -0.286  0.00  0.00    -0.441 OA
ATOM     20  C   UNL     1       6.971  -0.897  -0.319  0.00  0.00    +0.256 C 
ENDBRANCH  18  19
ENDBRANCH   4  18
TORSDOF 5
