24812808
  -OEChem-01012010093D

 24 24  0     1  0  0  0  0  0999 V2000
   -2.0744    0.1015   -0.0117 N   0  0  0  0  0  0  0  0  0  0  0  0
    0.0139    1.0698   -0.0786 N   0  0  0  0  0  0  0  0  0  0  0  0
   -0.1639   -1.2577   -0.1916 N   0  0  0  0  0  0  0  0  0  0  0  0
    2.0815   -0.0107   -0.2170 N   0  0  0  0  0  0  0  0  0  0  0  0
    1.9403    2.3315   -0.0577 N   0  0  0  0  0  0  0  0  0  0  0  0
    1.3162   -1.2796   -0.2953 C   0  0  1  0  0  0  0  0  0  0  0  0
   -0.7216   -0.0886   -0.1011 C   0  0  0  0  0  0  0  0  0  0  0  0
    1.3854    1.0816   -0.1250 C   0  0  0  0  0  0  0  0  0  0  0  0
    1.8384   -2.1981    0.8055 C   0  0  0  0  0  0  0  0  0  0  0  0
   -2.9927   -0.8317   -0.6275 C   0  0  0  0  0  0  0  0  0  0  0  0
   -2.6232    1.0820    0.9000 C   0  0  0  0  0  0  0  0  0  0  0  0
    1.5580   -1.7347   -1.2630 H   0  0  0  0  0  0  0  0  0  0  0  0
   -0.4684    1.9625   -0.0469 H   0  0  0  0  0  0  0  0  0  0  0  0
    1.6195   -1.7845    1.7966 H   0  0  0  0  0  0  0  0  0  0  0  0
    2.9235   -2.3253    0.7287 H   0  0  0  0  0  0  0  0  0  0  0  0
    1.3716   -3.1870    0.7457 H   0  0  0  0  0  0  0  0  0  0  0  0
   -3.1828   -1.6774    0.0412 H   0  0  0  0  0  0  0  0  0  0  0  0
   -2.5929   -1.2170   -1.5719 H   0  0  0  0  0  0  0  0  0  0  0  0
   -3.9493   -0.3490   -0.8549 H   0  0  0  0  0  0  0  0  0  0  0  0
   -2.7191    2.0527    0.4028 H   0  0  0  0  0  0  0  0  0  0  0  0
   -1.9954    1.2013    1.7902 H   0  0  0  0  0  0  0  0  0  0  0  0
   -3.6187    0.7867    1.2503 H   0  0  0  0  0  0  0  0  0  0  0  0
    2.9459    2.4610   -0.0804 H   0  0  0  0  0  0  0  0  0  0  0  0
    1.3655    3.1637    0.0165 H   0  0  0  0  0  0  0  0  0  0  0  0
  1  7  1  0  0  0  0
  1 10  1  0  0  0  0
  1 11  1  0  0  0  0
  2  7  1  0  0  0  0
  2  8  1  0  0  0  0
  2 13  1  0  0  0  0
  3  6  1  0  0  0  0
  3  7  2  0  0  0  0
  4  6  1  0  0  0  0
  4  8  2  0  0  0  0
  5  8  1  0  0  0  0
  5 23  1  0  0  0  0
  5 24  1  0  0  0  0
  6  9  1  0  0  0  0
  6 12  1  0  0  0  0
  9 14  1  0  0  0  0
  9 15  1  0  0  0  0
  9 16  1  0  0  0  0
 10 17  1  0  0  0  0
 10 18  1  0  0  0  0
 10 19  1  0  0  0  0
 11 20  1  0  0  0  0
 11 21  1  0  0  0  0
 11 22  1  0  0  0  0
M  END
> <DATABASE_ID>
DB12509

> <DATABASE_NAME>
drugbank

> <ORIGINAL_SOURCE>
PUBCHEM

> <ORIGINAL_SOURCE_URL>
https://pubchem.ncbi.nlm.nih.gov/rest/pug/compound/inchikey/GFICWFZTBXUVIG-SCSAIBSYSA-N/SDF?record_type=3d

> <SMILES>
C[C@@H]1NC(N)=NC(=N1)N(C)C

> <INCHI_IDENTIFIER>
InChI=1S/C6H13N5/c1-4-8-5(7)10-6(9-4)11(2)3/h4H,1-3H3,(H3,7,8,9,10)/t4-/m1/s1

> <INCHI_KEY>
GFICWFZTBXUVIG-SCSAIBSYSA-N

> <FORMULA>
C6H13N5

> <MOLECULAR_WEIGHT>
155.205

> <EXACT_MASS>
155.117095439

> <JCHEM_ACCEPTOR_COUNT>
5

> <JCHEM_ATOM_COUNT>
24

> <JCHEM_AVERAGE_NEUTRAL_MICROSPECIES_CHARGE>
1.6716795699574267

> <JCHEM_AVERAGE_POLARIZABILITY>
16.61935770886267

> <JCHEM_BIOAVAILABILITY>
1

> <JCHEM_DONOR_COUNT>
2

> <JCHEM_FORMAL_CHARGE>
0

> <JCHEM_GHOSE_FILTER>
0

> <JCHEM_IUPAC>
(6R)-N4,N4,6-trimethyl-1,6-dihydro-1,3,5-triazine-2,4-diamine

> <ALOGPS_LOGP>
-0.92

> <JCHEM_LOGP>
-0.6887715736666669

> <ALOGPS_LOGS>
-1.53

> <JCHEM_MDDR_LIKE_RULE>
0

> <JCHEM_NEUTRAL_CHARGE>
2

> <JCHEM_NUMBER_OF_RINGS>
1

> <JCHEM_PHYSIOLOGICAL_CHARGE>
2

> <JCHEM_PKA_STRONGEST_ACIDIC>
17.098700535514222

> <JCHEM_PKA_STRONGEST_BASIC>
10.21390074217334

> <JCHEM_POLAR_SURFACE_AREA>
66.01

> <JCHEM_REFRACTIVITY>
43.28909999999999

> <JCHEM_ROTATABLE_BOND_COUNT>
0

> <JCHEM_RULE_OF_FIVE>
1

> <ALOGPS_SOLUBILITY>
4.63e+00 g/l

> <JCHEM_TRADITIONAL_IUPAC>
mizolastine

> <JCHEM_VEBER_RULE>
0

> <DRUGBANK_ID>
DB12509

> <DRUG_GROUPS>
investigational

> <GENERIC_NAME>
Imeglimin

> <SYNONYMS>
Imeglimin; Imeglimina; ImÃ©glimine; Imegliminum

$$$$
