REMARK  Name = 11248490
REMARK  12 active torsions:
REMARK  status: ('A' for Active; 'I' for Inactive)
REMARK    1  A    between atoms: S_1  and  C_4
REMARK    2  A    between atoms: S_1  and  C_18
REMARK    3  A    between atoms: C_5  and  C_6
REMARK    4  A    between atoms: C_7  and  O_12
REMARK    5  A    between atoms: C_8  and  O_14
REMARK    6  A    between atoms: C_11  and  O_16
REMARK    7  A    between atoms: C_18  and  C_19
REMARK    8  A    between atoms: C_22  and  O_27
REMARK    9  A    between atoms: C_23  and  O_25
REMARK   10  A    between atoms: O_27  and  P_28
REMARK   11  A    between atoms: P_28  and  O_30
REMARK   12  A    between atoms: P_28  and  O_32
REMARK                            x       y       z     vdW  Elec       q    Type
REMARK                         _______ _______ _______ _____ _____    ______ ____
ROOT
ATOM      1  S   UNL     1       0.228  -0.625   0.384  0.00  0.00    +0.014 S 
ATOM      2  O   UNL     1       0.329  -1.853   1.155  0.00  0.00    -0.168 OA
ATOM      3  O   UNL     1       0.631   0.643   0.968  0.00  0.00    -0.168 OA
ENDROOT
BRANCH   1   4
ATOM      4  C   UNL     1      -1.370  -0.479  -0.240  0.00  0.00    +0.123 C 
ATOM      5  C   UNL     1      -2.370  -0.292   0.642  0.00  0.00    +0.026 C 
BRANCH   5   6
ATOM      6  C   UNL     1      -3.779  -0.139   0.298  0.00  0.00    +0.069 C 
ATOM      7  C   UNL     1      -4.454   1.037   0.627  0.00  0.00    +0.145 C 
ATOM      8  C   UNL     1      -4.453  -1.167  -0.361  0.00  0.00    +0.145 C 
ATOM      9  C   UNL     1      -5.801   1.184   0.298  0.00  0.00    +0.074 C 
ATOM     10  C   UNL     1      -5.800  -1.021  -0.690  0.00  0.00    +0.074 C 
ATOM     11  C   UNL     1      -6.474   0.155  -0.360  0.00  0.00    +0.145 C 
BRANCH   7  12
ATOM     12  O   UNL     1      -3.822   2.060   1.271  0.00  0.00    -0.471 OA
ATOM     13  C   UNL     1      -3.193   3.047   0.457  0.00  0.00    +0.252 C 
ENDBRANCH   7  12
BRANCH   8  14
ATOM     14  O   UNL     1      -3.819  -2.328  -0.695  0.00  0.00    -0.471 OA
ATOM     15  C   UNL     1      -3.848  -3.380   0.266  0.00  0.00    +0.252 C 
ENDBRANCH   8  14
BRANCH  11  16
ATOM     16  O   UNL     1      -7.789   0.298  -0.682  0.00  0.00    -0.471 OA
ATOM     17  C   UNL     1      -8.417   1.526  -0.316  0.00  0.00    +0.252 C 
ENDBRANCH  11  16
ENDBRANCH   5   6
ENDBRANCH   1   4
BRANCH   1  18
ATOM     18  C   UNL     1       1.197  -0.852  -1.087  0.00  0.00    +0.182 C 
BRANCH  18  19
ATOM     19  C   UNL     1       2.629  -0.994  -0.672  0.00  0.00    +0.005 C 
ATOM     20  C   UNL     1       3.440   0.136  -0.569  0.00  0.00    +0.038 C 
ATOM     21  C   UNL     1       3.151  -2.256  -0.389  0.00  0.00    +0.001 C 
ATOM     22  C   UNL     1       4.774   0.004  -0.183  0.00  0.00    +0.182 C 
ATOM     23  C   UNL     1       5.297  -1.258   0.099  0.00  0.00    +0.173 C 
ATOM     24  C   UNL     1       4.486  -2.389  -0.004  0.00  0.00    +0.040 C 
BRANCH  23  25
ATOM     25  O   UNL     1       6.598  -1.401   0.477  0.00  0.00    -0.468 OA
ATOM     26  C   UNL     1       7.053  -2.725   0.748  0.00  0.00    +0.253 C 
ENDBRANCH  23  25
BRANCH  22  27
ATOM     27  O   UNL     1       5.557   1.114  -0.088  0.00  0.00    -0.400 OA
BRANCH  27  28
ATOM     28  P   UNL     1       5.069   2.627  -0.390  0.00  0.00    +0.528 P 
ATOM     29  O   UNL     1       4.567   2.873  -1.784  0.00  0.00    -0.216 OA
BRANCH  28  30
ATOM     30  O   UNL     1       6.363   3.508   0.019  0.00  0.00    -0.293 OA
ATOM     31  H   UNL     1       6.625   3.294   0.929  0.00  0.00    +0.223 HD
ENDBRANCH  28  30
BRANCH  28  32
ATOM     32  O   UNL     1       4.021   2.950   0.799  0.00  0.00    -0.293 OA
ATOM     33  H   UNL     1       4.435   2.760   1.655  0.00  0.00    +0.223 HD
ENDBRANCH  28  32
ENDBRANCH  27  28
ENDBRANCH  22  27
ENDBRANCH  18  19
ENDBRANCH   1  18
TORSDOF 12
