REMARK  Name = 9800765
REMARK  5 active torsions:
REMARK  status: ('A' for Active; 'I' for Inactive)
REMARK    1  A    between atoms: C_3  and  C_17
REMARK    2  A    between atoms: C_5  and  N_8
REMARK    3  A    between atoms: N_8  and  C_14
REMARK    4  A    between atoms: C_17  and  C_20
REMARK    5  A    between atoms: C_23  and  C_26
REMARK                            x       y       z     vdW  Elec       q    Type
REMARK                         _______ _______ _______ _____ _____    ______ ____
ROOT
ATOM      1  O   UNL     1      -2.476   2.451  -1.255  0.00  0.00    -0.337 OA
ATOM      2  N   UNL     1      -1.276   3.151  -1.234  0.00  0.00    -0.079 NA
ATOM      3  C   UNL     1      -0.646   2.724  -0.136  0.00  0.00    +0.106 C 
ATOM      4  C   UNL     1      -1.393   1.764   0.568  0.00  0.00    +0.076 C 
ATOM      5  C   UNL     1      -2.526   1.634  -0.179  0.00  0.00    +0.252 C 
ENDROOT
BRANCH   3   6
ATOM      6  C   UNL     1       0.680   3.263   0.206  0.00  0.00    +0.066 C 
ATOM      7  C   UNL     1       0.712   4.040   1.545  0.00  0.00    +0.011 C 
BRANCH   6   9
ATOM      8  F   UNL     1       3.115  -0.420   2.239  0.00  0.00    -0.204 F 
ATOM      9  C   UNL     1       1.683   2.109   0.109  0.00  0.00    -0.015 C 
ATOM     10  C   UNL     1       1.940   1.366   1.236  0.00  0.00    +0.026 C 
ATOM     11  C   UNL     1       2.287   1.863  -1.102  0.00  0.00    -0.004 C 
ATOM     12  C   UNL     1       3.483   0.039  -0.065  0.00  0.00    +0.027 C 
ATOM     13  C   UNL     1       2.853   0.315   1.148  0.00  0.00    +0.140 C 
ATOM     14  C   UNL     1       3.200   0.813  -1.190  0.00  0.00    +0.002 C 
BRANCH  12  15
ATOM     15  C   UNL     1       4.430  -1.051  -0.162  0.00  0.00    +0.002 C 
ATOM     16  C   UNL     1       5.784  -0.821   0.085  0.00  0.00    +0.000 C 
ATOM     17  C   UNL     1       3.990  -2.330  -0.501  0.00  0.00    +0.000 C 
ATOM     18  C   UNL     1       6.697  -1.871  -0.007  0.00  0.00    +0.000 C 
ATOM     19  C   UNL     1       4.904  -3.380  -0.593  0.00  0.00    +0.000 C 
ATOM     20  C   UNL     1       6.258  -3.151  -0.347  0.00  0.00    +0.000 C 
ENDBRANCH  12  15
ENDBRANCH   6   9
ENDBRANCH   3   6
BRANCH   5  21
ATOM     21  N   UNL     1      -3.610   0.835   0.030  0.00  0.00    -0.147 NA
BRANCH  21  29
ATOM     22  O   UNL     1      -6.680  -2.818   0.700  0.00  0.00    -0.350 OA
ATOM     23  N   UNL     1      -4.633  -1.203  -0.323  0.00  0.00    -0.277 N 
ATOM     24  N   UNL     1      -2.588  -0.942  -1.252  0.00  0.00    -0.373 N 
ATOM     25  C   UNL     1      -4.470  -2.654  -0.285  0.00  0.00    +0.125 C 
ATOM     26  C   UNL     1      -6.017  -0.738  -0.357  0.00  0.00    +0.125 C 
ATOM     27  C   UNL     1      -5.318  -3.227   0.844  0.00  0.00    +0.164 C 
ATOM     28  C   UNL     1      -6.797  -1.395   0.775  0.00  0.00    +0.164 C 
ATOM     29  C   UNL     1      -3.587  -0.364  -0.496  0.00  0.00    +0.182 C 
ATOM     30  H   UNL     1      -2.695  -1.861  -1.590  0.00  0.00    +0.158 HD
ATOM     31  H   UNL     1      -1.767  -0.437  -1.453  0.00  0.00    +0.158 HD
ENDBRANCH  21  29
ENDBRANCH   5  21
TORSDOF 5
