REMARK  Name = 57413968
REMARK  6 active torsions:
REMARK  status: ('A' for Active; 'I' for Inactive)
REMARK    1  A    between atoms: C_1  and  N_2
REMARK    2  A    between atoms: C_1  and  C_11
REMARK    3  A    between atoms: C_5  and  N_10
REMARK    4  A    between atoms: C_11  and  N_12
REMARK    5  A    between atoms: N_12  and  S_14
REMARK    6  A    between atoms: S_14  and  N_17
REMARK                            x       y       z     vdW  Elec       q    Type
REMARK                         _______ _______ _______ _____ _____    ______ ____
ROOT
ATOM      1  C   UNL     1      -0.324  -0.195  -1.794  0.00  0.00    +0.117 C 
ENDROOT
BRANCH   1   2
ATOM      2  N   UNL     1      -1.113  -0.561  -0.560  0.00  0.00    -0.255 N 
ATOM      3  N   UNL     1      -2.006  -1.815   1.040  0.00  0.00    -0.230 NA
ATOM      4  C   UNL     1      -1.260  -1.817  -0.042  0.00  0.00    +0.114 C 
ATOM      5  C   UNL     1      -1.810   0.298   0.243  0.00  0.00    +0.218 C 
ATOM      6  C   UNL     1      -2.352  -0.499   1.224  0.00  0.00    +0.140 C 
ATOM      7  C   UNL     1      -0.635  -3.004  -0.662  0.00  0.00    +0.069 C 
BRANCH   5  10
ATOM      8  O   UNL     1      -2.556   2.403   0.816  0.00  0.00    -0.125 OA
ATOM      9  O   UNL     1      -1.292   2.191  -0.966  0.00  0.00    -0.125 OA
ATOM     10  N   UNL     1      -1.889   1.677   0.024  0.00  0.00    +0.074 N 
ENDBRANCH   5  10
ENDBRANCH   1   2
BRANCH   1  11
ATOM     11  C   UNL     1       1.018   0.456  -1.474  0.00  0.00    +0.114 C 
BRANCH  11  12
ATOM     12  N   UNL     1       1.866  -0.469  -0.698  0.00  0.00    -0.168 NA
ATOM     13  H   UNL     1       1.242  -1.077  -0.167  0.00  0.00    +0.150 HD
BRANCH  12  14
ATOM     14  S   UNL     1       2.992   0.198   0.412  0.00  0.00    +0.093 S 
ATOM     15  O   UNL     1       3.907  -0.854   0.812  0.00  0.00    -0.142 OA
ATOM     16  O   UNL     1       3.497   1.452  -0.114  0.00  0.00    -0.142 OA
BRANCH  14  17
ATOM     17  N   UNL     1       1.958   0.539   1.739  0.00  0.00    -0.193 NA
ATOM     18  H   UNL     1       2.501   0.952   2.497  0.00  0.00    +0.145 HD
ATOM     19  H   UNL     1       1.524  -0.326   2.063  0.00  0.00    +0.145 HD
ENDBRANCH  14  17
ENDBRANCH  12  14
ENDBRANCH  11  12
ENDBRANCH   1  11
TORSDOF 6
