REMARK  Name = 29626
REMARK  6 active torsions:
REMARK  status: ('A' for Active; 'I' for Inactive)
REMARK    1  A    between atoms: O_1  and  C_3
REMARK    2  A    between atoms: O_1  and  C_8
REMARK    3  A    between atoms: C_3  and  C_4
REMARK    4  A    between atoms: C_4  and  C_7
REMARK    5  A    between atoms: C_8  and  C_9
REMARK    6  A    between atoms: C_9  and  C_10
REMARK                            x       y       z     vdW  Elec       q    Type
REMARK                         _______ _______ _______ _____ _____    ______ ____
ROOT
ATOM      1  O   UNL     1      -0.263  -0.118  -0.011  0.00  0.00    -0.445 OA
ENDROOT
BRANCH   1   3
ATOM      2  O   UNL     1      -0.969   2.074   0.025  0.00  0.00    -0.244 OA
ATOM      3  C   UNL     1      -1.202   0.874   0.009  0.00  0.00    +0.351 C 
BRANCH   3   4
ATOM      4  C   UNL     1      -2.568   0.279   0.011  0.00  0.00    +0.144 C 
ATOM      5  C   UNL     1      -3.614   1.117   0.033  0.00  0.00    +0.018 C 
BRANCH   4   7
ATOM      6  N   UNL     1      -2.952  -2.277  -0.024  0.00  0.00    -0.191 NA
ATOM      7  C   UNL     1      -2.780  -1.129  -0.009  0.00  0.00    +0.107 C 
ENDBRANCH   4   7
ENDBRANCH   3   4
ENDBRANCH   1   3
BRANCH   1   8
ATOM      8  C   UNL     1       1.094   0.308  -0.014  0.00  0.00    +0.209 C 
BRANCH   8   9
ATOM      9  C   UNL     1       1.992  -0.923  -0.038  0.00  0.00    +0.047 C 
BRANCH   9  10
ATOM     10  C   UNL     1       3.493  -0.594  -0.022  0.00  0.00    +0.004 C 
ATOM     11  C   UNL     1       3.847   0.280  -1.228  0.00  0.00    +0.000 C 
ATOM     12  C   UNL     1       3.923   0.107   1.268  0.00  0.00    +0.000 C 
ENDBRANCH   9  10
ENDBRANCH   8   9
ENDBRANCH   1   8
TORSDOF 6
