REMARK  Name = 44177328
REMARK  2 active torsions:
REMARK  status: ('A' for Active; 'I' for Inactive)
REMARK    1  A    between atoms: N_1  and  C_15
REMARK    2  A    between atoms: C_6  and  C_23
REMARK                            x       y       z     vdW  Elec       q    Type
REMARK                         _______ _______ _______ _____ _____    ______ ____
ROOT
ATOM      1  N   UNL     1      -0.892   1.994   0.427  0.00  0.00    -0.286 N 
ATOM      2  N   UNL     1       1.044   0.646   0.230  0.00  0.00    -0.386 NA
ATOM      3  N   UNL     1       2.458   2.858  -0.757  0.00  0.00    -0.246 NA
ATOM      4  N   UNL     1       0.502   4.184  -0.547  0.00  0.00    -0.340 N 
ATOM      5  C   UNL     1       0.464   1.853   0.077  0.00  0.00    +0.214 C 
ATOM      6  C   UNL     1       2.343   0.564  -0.119  0.00  0.00    +0.135 C 
ATOM      7  C   UNL     1       1.158   2.940  -0.407  0.00  0.00    +0.166 C 
ATOM      8  C   UNL     1       3.037   1.651  -0.604  0.00  0.00    +0.185 C 
ATOM      9  H   UNL     1      -1.128   2.897   0.740  0.00  0.00    +0.155 HD
ATOM     10  H   UNL     1       0.993   4.964  -0.893  0.00  0.00    +0.144 HD
ATOM     11  H   UNL     1      -0.447   4.270  -0.299  0.00  0.00    +0.144 HD
ENDROOT
BRANCH   1  15
ATOM     12  N   UNL     1      -5.042  -1.657   0.195  0.00  0.00    -0.312 N 
ATOM     13  C   UNL     1      -3.095  -0.840  -0.526  0.00  0.00    +0.016 C 
ATOM     14  C   UNL     1      -4.115  -0.662   0.412  0.00  0.00    +0.048 C 
ATOM     15  C   UNL     1      -1.980   1.093   0.417  0.00  0.00    +0.050 C 
ATOM     16  C   UNL     1      -2.007   0.056  -0.522  0.00  0.00    +0.016 C 
ATOM     17  C   UNL     1      -4.100   0.369   1.357  0.00  0.00    +0.016 C 
ATOM     18  C   UNL     1      -3.011   1.246   1.341  0.00  0.00    +0.016 C 
ATOM     19  C   UNL     1      -3.443  -1.974  -1.312  0.00  0.00    +0.017 C 
ATOM     20  C   UNL     1      -4.645  -2.454  -0.845  0.00  0.00    +0.062 C 
ATOM     21  H   UNL     1      -5.871  -1.776   0.712  0.00  0.00    +0.152 HD
ENDBRANCH   1  15
BRANCH   6  23
ATOM     22  N   UNL     1       4.154  -3.236   0.353  0.00  0.00    -0.242 NA
ATOM     23  C   UNL     1       2.959  -0.728   0.042  0.00  0.00    +0.031 C 
ATOM     24  C   UNL     1       4.056  -0.879   0.883  0.00  0.00    +0.023 C 
ATOM     25  C   UNL     1       2.458  -1.830  -0.643  0.00  0.00    +0.023 C 
ATOM     26  C   UNL     1       4.612  -2.142   1.003  0.00  0.00    +0.099 C 
ATOM     27  C   UNL     1       3.086  -3.051  -0.455  0.00  0.00    +0.099 C 
ENDBRANCH   6  23
TORSDOF 2
