REMARK  Name = 11528958
REMARK  4 active torsions:
REMARK  status: ('A' for Active; 'I' for Inactive)
REMARK    1  A    between atoms: N_3  and  C_14
REMARK    2  A    between atoms: C_14  and  C_15
REMARK    3  A    between atoms: C_15  and  O_16
REMARK    4  A    between atoms: O_16  and  C_17
REMARK                            x       y       z     vdW  Elec       q    Type
REMARK                         _______ _______ _______ _____ _____    ______ ____
ROOT
ATOM      1  S   UNL     1       0.953   3.487   0.090  0.00  0.00    -0.013 S 
ATOM      2  O   UNL     1       3.742  -0.408   1.306  0.00  0.00    -0.266 OA
ATOM      3  N   UNL     1       0.344   0.892  -0.669  0.00  0.00    -0.305 N 
ATOM      4  N   UNL     1       1.905  -2.263  -0.124  0.00  0.00    -0.307 N 
ATOM      5  N   UNL     1       2.317   1.294   0.644  0.00  0.00    -0.301 N 
ATOM      6  C   UNL     1       0.701  -0.466  -0.635  0.00  0.00    +0.081 A 
ATOM      7  C   UNL     1       1.829  -0.905   0.020  0.00  0.00    +0.121 A 
ATOM      8  C   UNL     1       1.182   1.821  -0.003  0.00  0.00    +0.162 A 
ATOM      9  C   UNL     1       0.069  -1.603  -1.198  0.00  0.00    +0.035 C 
ATOM     10  C   UNL     1       2.731  -0.041   0.716  0.00  0.00    +0.274 A 
ATOM     11  C   UNL     1       0.836  -2.700  -0.866  0.00  0.00    +0.064 C 
ATOM     12  H   UNL     1       2.614  -2.837   0.246  0.00  0.00    +0.152 HD
ATOM     13  H   UNL     1       2.892   1.947   1.104  0.00  0.00    +0.171 HD
ENDROOT
BRANCH   3  14
ATOM     14  C   UNL     1      -0.877   1.273  -1.391  0.00  0.00    +0.140 C 
BRANCH  14  15
ATOM     15  C   UNL     1      -2.081   1.243  -0.463  0.00  0.00    +0.166 C 
BRANCH  15  16
ATOM     16  O   UNL     1      -2.241  -0.079   0.035  0.00  0.00    -0.354 OA
BRANCH  16  17
ATOM     17  C   UNL     1      -3.354  -0.174   0.912  0.00  0.00    +0.115 C 
ATOM     18  C   UNL     1      -4.618   0.217   0.162  0.00  0.00    +0.032 C 
ATOM     19  C   UNL     1      -3.438  -1.589   1.464  0.00  0.00    +0.032 C 
ENDBRANCH  16  17
ENDBRANCH  15  16
ENDBRANCH  14  15
ENDBRANCH   3  14
TORSDOF 4
