45100669
  -OEChem-10051722543D

 64 67  0     1  0  0  0  0  0999 V2000
   -8.7784    0.3652    0.5460 O   0  0  0  0  0  0  0  0  0  0  0  0
   -2.5448    0.3467    0.3294 N   0  0  0  0  0  0  0  0  0  0  0  0
    0.2155    0.4046   -0.1852 N   0  0  0  0  0  0  0  0  0  0  0  0
    2.0401   -0.3264   -1.4893 N   0  0  0  0  0  0  0  0  0  0  0  0
   -4.7504    1.2111    0.3234 N   0  0  0  0  0  0  0  0  0  0  0  0
    3.3649   -0.2985   -1.7957 N   0  0  0  0  0  0  0  0  0  0  0  0
   -5.6964   -1.3799   -0.1851 N   0  0  0  0  0  0  0  0  0  0  0  0
   -1.6907   -0.6263    1.0297 C   0  0  1  0  0  0  0  0  0  0  0  0
   -0.4041   -0.8639    0.2151 C   0  0  0  0  0  0  0  0  0  0  0  0
   -1.9153    1.6158   -0.0479 C   0  0  0  0  0  0  0  0  0  0  0  0
   -0.6657    1.3497   -0.8826 C   0  0  0  0  0  0  0  0  0  0  0  0
   -1.3769   -0.1613    2.4548 C   0  0  0  0  0  0  0  0  0  0  0  0
    1.5810    0.4484   -0.4836 C   0  0  0  0  0  0  0  0  0  0  0  0
   -3.9175    0.1585    0.2017 C   0  0  0  0  0  0  0  0  0  0  0  0
    2.3985    1.2773    0.2582 C   0  0  0  0  0  0  0  0  0  0  0  0
    3.7464    1.3054   -0.0536 C   0  0  0  0  0  0  0  0  0  0  0  0
   -4.3822   -1.1141   -0.0481 C   0  0  0  0  0  0  0  0  0  0  0  0
    4.1875    0.5030   -1.0865 C   0  0  0  0  0  0  0  0  0  0  0  0
    1.8560    2.1211    1.3642 C   0  0  0  0  0  0  0  0  0  0  0  0
   -6.5293   -0.3273   -0.0632 C   0  0  0  0  0  0  0  0  0  0  0  0
   -7.9887   -0.5837   -0.2086 C   0  0  0  0  0  0  0  0  0  0  0  0
   -6.0647    0.9452    0.1865 C   0  0  0  0  0  0  0  0  0  0  0  0
    5.6261    0.4796   -1.4805 C   0  0  0  0  0  0  0  0  0  0  0  0
    4.6931    2.1758    0.7028 C   0  0  0  0  0  0  0  0  0  0  0  0
   -8.3957   -1.9784    0.3274 C   0  0  0  0  0  0  0  0  0  0  0  0
   -8.4654   -0.4440   -1.6754 C   0  0  0  0  0  0  0  0  0  0  0  0
    6.5026   -0.3433   -0.5581 C   0  0  0  0  0  0  0  0  0  0  0  0
    7.6105    0.2409    0.0558 C   0  0  0  0  0  0  0  0  0  0  0  0
    6.2016   -1.6847   -0.3228 C   0  0  0  0  0  0  0  0  0  0  0  0
    8.4175   -0.5163    0.9049 C   0  0  0  0  0  0  0  0  0  0  0  0
    7.0084   -2.4421    0.5264 C   0  0  0  0  0  0  0  0  0  0  0  0
    8.1165   -1.8579    1.1402 C   0  0  0  0  0  0  0  0  0  0  0  0
   -2.1743   -1.6030    1.1354 H   0  0  0  0  0  0  0  0  0  0  0  0
   -0.6443   -1.4386   -0.6889 H   0  0  0  0  0  0  0  0  0  0  0  0
    0.2989   -1.4655    0.8050 H   0  0  0  0  0  0  0  0  0  0  0  0
   -2.5937    2.2376   -0.6447 H   0  0  0  0  0  0  0  0  0  0  0  0
   -1.6685    2.1906    0.8518 H   0  0  0  0  0  0  0  0  0  0  0  0
   -0.1549    2.3029   -1.0661 H   0  0  0  0  0  0  0  0  0  0  0  0
   -0.9417    0.9312   -1.8587 H   0  0  0  0  0  0  0  0  0  0  0  0
   -2.3028   -0.0508    3.0303 H   0  0  0  0  0  0  0  0  0  0  0  0
   -0.7479   -0.8941    2.9714 H   0  0  0  0  0  0  0  0  0  0  0  0
   -0.8629    0.8011    2.4848 H   0  0  0  0  0  0  0  0  0  0  0  0
   -3.7431   -1.9764   -0.1929 H   0  0  0  0  0  0  0  0  0  0  0  0
    1.9064    3.1805    1.0904 H   0  0  0  0  0  0  0  0  0  0  0  0
    0.8157    1.9123    1.6135 H   0  0  0  0  0  0  0  0  0  0  0  0
    2.4221    1.9564    2.2878 H   0  0  0  0  0  0  0  0  0  0  0  0
   -6.7157    1.8064    0.2782 H   0  0  0  0  0  0  0  0  0  0  0  0
    5.7141    0.0341   -2.4820 H   0  0  0  0  0  0  0  0  0  0  0  0
    6.0173    1.4950   -1.6107 H   0  0  0  0  0  0  0  0  0  0  0  0
    4.1981    3.0139    1.2018 H   0  0  0  0  0  0  0  0  0  0  0  0
    5.4321    2.6512    0.0521 H   0  0  0  0  0  0  0  0  0  0  0  0
    5.2104    1.5922    1.4710 H   0  0  0  0  0  0  0  0  0  0  0  0
   -7.9249   -2.7895   -0.2386 H   0  0  0  0  0  0  0  0  0  0  0  0
   -8.1144   -2.0844    1.3820 H   0  0  0  0  0  0  0  0  0  0  0  0
   -9.4822   -2.1164    0.2793 H   0  0  0  0  0  0  0  0  0  0  0  0
   -8.2826    0.5711   -2.0472 H   0  0  0  0  0  0  0  0  0  0  0  0
   -7.9432   -1.1473   -2.3330 H   0  0  0  0  0  0  0  0  0  0  0  0
   -9.5436   -0.6207   -1.7607 H   0  0  0  0  0  0  0  0  0  0  0  0
   -9.7183    0.1577    0.4066 H   0  0  0  0  0  0  0  0  0  0  0  0
    7.8573    1.2847   -0.1186 H   0  0  0  0  0  0  0  0  0  0  0  0
    5.3485   -2.1601   -0.7989 H   0  0  0  0  0  0  0  0  0  0  0  0
    9.2802   -0.0615    1.3828 H   0  0  0  0  0  0  0  0  0  0  0  0
    6.7753   -3.4872    0.7081 H   0  0  0  0  0  0  0  0  0  0  0  0
    8.7450   -2.4477    1.8010 H   0  0  0  0  0  0  0  0  0  0  0  0
  1 21  1  0  0  0  0
  1 59  1  0  0  0  0
  2  8  1  0  0  0  0
  2 10  1  0  0  0  0
  2 14  1  0  0  0  0
  3  9  1  0  0  0  0
  3 11  1  0  0  0  0
  3 13  1  0  0  0  0
  4  6  1  0  0  0  0
  4 13  2  0  0  0  0
  5 14  2  0  0  0  0
  5 22  1  0  0  0  0
  6 18  2  0  0  0  0
  7 17  2  0  0  0  0
  7 20  1  0  0  0  0
  8  9  1  0  0  0  0
  8 12  1  0  0  0  0
  8 33  1  0  0  0  0
  9 34  1  0  0  0  0
  9 35  1  0  0  0  0
 10 11  1  0  0  0  0
 10 36  1  0  0  0  0
 10 37  1  0  0  0  0
 11 38  1  0  0  0  0
 11 39  1  0  0  0  0
 12 40  1  0  0  0  0
 12 41  1  0  0  0  0
 12 42  1  0  0  0  0
 13 15  1  0  0  0  0
 14 17  1  0  0  0  0
 15 16  2  0  0  0  0
 15 19  1  0  0  0  0
 16 18  1  0  0  0  0
 16 24  1  0  0  0  0
 17 43  1  0  0  0  0
 18 23  1  0  0  0  0
 19 44  1  0  0  0  0
 19 45  1  0  0  0  0
 19 46  1  0  0  0  0
 20 21  1  0  0  0  0
 20 22  2  0  0  0  0
 21 25  1  0  0  0  0
 21 26  1  0  0  0  0
 22 47  1  0  0  0  0
 23 27  1  0  0  0  0
 23 48  1  0  0  0  0
 23 49  1  0  0  0  0
 24 50  1  0  0  0  0
 24 51  1  0  0  0  0
 24 52  1  0  0  0  0
 25 53  1  0  0  0  0
 25 54  1  0  0  0  0
 25 55  1  0  0  0  0
 26 56  1  0  0  0  0
 26 57  1  0  0  0  0
 26 58  1  0  0  0  0
 27 28  2  0  0  0  0
 27 29  1  0  0  0  0
 28 30  1  0  0  0  0
 28 60  1  0  0  0  0
 29 31  2  0  0  0  0
 29 61  1  0  0  0  0
 30 32  2  0  0  0  0
 30 62  1  0  0  0  0
 31 32  1  0  0  0  0
 31 63  1  0  0  0  0
 32 64  1  0  0  0  0
M  END
> <DATABASE_ID>
DB12857

> <DATABASE_NAME>
drugbank

> <ORIGINAL_SOURCE>
PUBCHEM

> <ORIGINAL_SOURCE_URL>
https://pubchem.ncbi.nlm.nih.gov/rest/pug/compound/inchikey/POERAARDVFVDLO-QGZVFWFLSA-N/SDF?record_type=3d

> <SMILES>
C[C@@H]1CN(CCN1C1=CN=C(C=N1)C(C)(C)O)C1=NN=C(CC2=CC=CC=C2)C(C)=C1C

> <INCHI_IDENTIFIER>
InChI=1S/C25H32N6O/c1-17-16-30(11-12-31(17)23-15-26-22(14-27-23)25(4,5)32)24-19(3)18(2)21(28-29-24)13-20-9-7-6-8-10-20/h6-10,14-15,17,32H,11-13,16H2,1-5H3/t17-/m1/s1

> <INCHI_KEY>
POERAARDVFVDLO-QGZVFWFLSA-N

> <FORMULA>
C25H32N6O

> <MOLECULAR_WEIGHT>
432.572

> <EXACT_MASS>
432.263759674

> <JCHEM_ACCEPTOR_COUNT>
7

> <JCHEM_ATOM_COUNT>
64

> <JCHEM_AVERAGE_POLARIZABILITY>
49.54810171177047

> <JCHEM_BIOAVAILABILITY>
1

> <JCHEM_DONOR_COUNT>
1

> <JCHEM_FORMAL_CHARGE>
0

> <JCHEM_GHOSE_FILTER>
0

> <JCHEM_IUPAC>
2-{5-[(2R)-4-(6-benzyl-4,5-dimethylpyridazin-3-yl)-2-methylpiperazin-1-yl]pyrazin-2-yl}propan-2-ol

> <ALOGPS_LOGP>
3.54

> <JCHEM_LOGP>
4.100437333333332

> <ALOGPS_LOGS>
-4.12

> <JCHEM_MDDR_LIKE_RULE>
0

> <JCHEM_NUMBER_OF_RINGS>
4

> <JCHEM_PHYSIOLOGICAL_CHARGE>
0

> <JCHEM_PKA_STRONGEST_ACIDIC>
13.835252671263689

> <JCHEM_PKA_STRONGEST_BASIC>
5.020467794233361

> <JCHEM_POLAR_SURFACE_AREA>
78.27000000000001

> <JCHEM_REFRACTIVITY>
130.37030000000001

> <JCHEM_ROTATABLE_BOND_COUNT>
5

> <JCHEM_RULE_OF_FIVE>
1

> <ALOGPS_SOLUBILITY>
3.31e-02 g/l

> <JCHEM_TRADITIONAL_IUPAC>
2-{5-[(2R)-4-(6-benzyl-4,5-dimethylpyridazin-3-yl)-2-methylpiperazin-1-yl]pyrazin-2-yl}propan-2-ol

> <JCHEM_VEBER_RULE>
0

> <DRUGBANK_ID>
DB12857

> <DRUG_GROUPS>
investigational

> <GENERIC_NAME>
NVP-LEQ-506

$$$$
