REMARK  Name = 10993211
REMARK  7 active torsions:
REMARK  status: ('A' for Active; 'I' for Inactive)
REMARK    1  A    between atoms: C_4  and  C_14
REMARK    2  A    between atoms: C_7  and  C_11
REMARK    3  A    between atoms: C_8  and  S_18
REMARK    4  A    between atoms: C_11  and  O_12
REMARK    5  A    between atoms: C_14  and  O_16
REMARK    6  A    between atoms: S_18  and  C_21
REMARK    7  A    between atoms: C_22  and  C_25
REMARK                            x       y       z     vdW  Elec       q    Type
REMARK                         _______ _______ _______ _____ _____    ______ ____
ROOT
ATOM      1  O   UNL     1      -1.661  -1.957  -1.466  0.00  0.00    -0.274 OA
ATOM      2  N   UNL     1      -2.427   0.150  -0.735  0.00  0.00    -0.254 N 
ATOM      3  C   UNL     1      -2.906   0.285   0.656  0.00  0.00    +0.095 C 
ATOM      4  C   UNL     1      -2.708  -1.260   0.758  0.00  0.00    +0.123 C 
ATOM      5  C   UNL     1      -2.025   1.407   1.246  0.00  0.00    +0.049 C 
ATOM      6  C   UNL     1      -2.185  -1.188  -0.692  0.00  0.00    +0.233 C 
ATOM      7  C   UNL     1      -1.525   1.129  -1.035  0.00  0.00    +0.132 C 
ATOM      8  C   UNL     1      -1.268   1.905   0.027  0.00  0.00    +0.031 C 
ATOM      9  C   UNL     1      -1.137   0.965   2.397  0.00  0.00    +0.007 C 
ENDROOT
BRANCH   7  11
ATOM     10  O   UNL     1       0.185   1.610  -2.615  0.00  0.00    -0.244 OA
ATOM     11  C   UNL     1      -0.942   1.209  -2.370  0.00  0.00    +0.352 C 
BRANCH  11  12
ATOM     12  O   UNL     1      -1.835   0.774  -3.287  0.00  0.00    -0.476 OA
ATOM     13  H   UNL     1      -2.682   0.482  -3.013  0.00  0.00    +0.295 HD
ENDBRANCH  11  12
ENDBRANCH   7  11
BRANCH   4  14
ATOM     14  C   UNL     1      -3.858  -2.215   0.960  0.00  0.00    +0.121 C 
ATOM     15  C   UNL     1      -4.343  -2.201   2.406  0.00  0.00    +0.032 C 
BRANCH  14  16
ATOM     16  O   UNL     1      -4.941  -1.847   0.105  0.00  0.00    -0.384 OA
ATOM     17  H   UNL     1      -4.640  -1.853  -0.818  0.00  0.00    +0.210 HD
ENDBRANCH  14  16
ENDBRANCH   4  14
BRANCH   8  18
ATOM     18  S   UNL     1      -0.230   3.274   0.070  0.00  0.00    -0.052 S 
BRANCH  18  21
ATOM     19  S   UNL     1       2.487   3.181   1.422  0.00  0.00    -0.068 S 
ATOM     20  N   UNL     1       1.454   1.192   0.134  0.00  0.00    -0.393 NA
ATOM     21  C   UNL     1       1.260   2.428   0.507  0.00  0.00    +0.187 C 
ATOM     22  C   UNL     1       2.687   0.788   0.609  0.00  0.00    +0.115 C 
ATOM     23  C   UNL     1       3.394   1.728   1.329  0.00  0.00    +0.123 C 
BRANCH  22  25
ATOM     24  N   UNL     1       3.007  -2.801  -0.430  0.00  0.00    +0.390 N 
ATOM     25  C   UNL     1       3.145  -0.546   0.333  0.00  0.00    -0.024 C 
ATOM     26  C   UNL     1       4.320  -2.559   0.203  0.00  0.00    -0.039 C 
ATOM     27  C   UNL     1       2.298  -1.505  -0.445  0.00  0.00    -0.052 C 
ATOM     28  C   UNL     1       4.286  -1.146   0.686  0.00  0.00    -0.052 C 
ATOM     29  C   UNL     1       5.466  -2.801  -0.773  0.00  0.00    -0.019 C 
ATOM     30  H   UNL     1       2.477  -3.485   0.109  0.00  0.00    -0.083 HD
ATOM     31  H   UNL     1       3.118  -3.169  -1.375  0.00  0.00    -0.083 HD
ENDBRANCH  22  25
ENDBRANCH  18  21
ENDBRANCH   8  18
TORSDOF 7
