REMARK  Name = 23630026
REMARK  7 active torsions:
REMARK  status: ('A' for Active; 'I' for Inactive)
REMARK    1  A    between atoms: C_3  and  C_11
REMARK    2  A    between atoms: C_6  and  N_28
REMARK    3  A    between atoms: C_9  and  C_23
REMARK    4  A    between atoms: C_12  and  O_17
REMARK    5  A    between atoms: C_14  and  O_19
REMARK    6  A    between atoms: N_22  and  C_25
REMARK    7  A    between atoms: C_25  and  C_26
REMARK                            x       y       z     vdW  Elec       q    Type
REMARK                         _______ _______ _______ _____ _____    ______ ____
ROOT
ATOM      1  N   UNL     1       0.163   0.267  -0.380  0.00  0.00    -0.152 NA
ATOM      2  N   UNL     1       1.476   0.560  -0.634  0.00  0.00    -0.142 NA
ATOM      3  C   UNL     1      -1.516  -1.173   0.499  0.00  0.00    +0.089 C 
ATOM      4  C   UNL     1      -0.180  -0.875   0.241  0.00  0.00    +0.086 A 
ATOM      5  C   UNL     1       0.801  -1.796   0.645  0.00  0.00    +0.013 A 
ATOM      6  C   UNL     1       2.137  -1.494   0.384  0.00  0.00    +0.063 A 
ATOM      7  C   UNL     1      -1.887  -2.355   1.143  0.00  0.00    -0.020 C 
ATOM      8  C   UNL     1       0.429  -2.986   1.293  0.00  0.00    +0.055 C 
ATOM      9  C   UNL     1       2.429  -0.308  -0.256  0.00  0.00    +0.168 A 
ATOM     10  C   UNL     1      -0.913  -3.264   1.541  0.00  0.00    -0.025 C 
ENDROOT
BRANCH   3  11
ATOM     11  C   UNL     1      -2.568  -0.254   0.102  0.00  0.00    +0.024 C 
ATOM     12  C   UNL     1      -3.166  -0.355  -1.153  0.00  0.00    +0.136 C 
ATOM     13  C   UNL     1      -2.975   0.735   0.995  0.00  0.00    +0.036 C 
ATOM     14  C   UNL     1      -3.984   1.627   0.632  0.00  0.00    +0.139 C 
ATOM     15  C   UNL     1      -4.175   0.538  -1.516  0.00  0.00    +0.040 C 
ATOM     16  C   UNL     1      -4.584   1.528  -0.623  0.00  0.00    +0.040 C 
BRANCH  12  17
ATOM     17  O   UNL     1      -2.784  -1.313  -2.045  0.00  0.00    -0.472 OA
ATOM     18  C   UNL     1      -1.733  -0.976  -2.947  0.00  0.00    +0.252 C 
ENDBRANCH  12  17
BRANCH  14  19
ATOM     19  O   UNL     1      -4.384   2.594   1.503  0.00  0.00    -0.471 OA
ATOM     20  C   UNL     1      -5.421   3.471   1.067  0.00  0.00    +0.252 C 
ENDBRANCH  14  19
ENDBRANCH   3  11
BRANCH   9  23
ATOM     21  O   UNL     1       4.660  -0.756  -0.818  0.00  0.00    -0.268 OA
ATOM     22  N   UNL     1       4.052   1.471  -0.602  0.00  0.00    -0.300 N 
ATOM     23  C   UNL     1       3.790   0.097  -0.570  0.00  0.00    +0.267 C 
ATOM     24  H   UNL     1       3.316   2.090  -0.395  0.00  0.00    +0.150 HD
BRANCH  22  25
ATOM     25  C   UNL     1       5.346   2.030  -0.921  0.00  0.00    +0.090 C 
BRANCH  25  26
ATOM     26  C   UNL     1       6.218   2.218   0.315  0.00  0.00    +0.021 C 
ATOM     27  C   UNL     1       5.583   3.136   1.349  0.00  0.00    +0.002 C 
ENDBRANCH  25  26
ENDBRANCH  22  25
ENDBRANCH   9  23
BRANCH   6  28
ATOM     28  N   UNL     1       3.184  -2.365   0.758  0.00  0.00    -0.356 N 
ATOM     29  H   UNL     1       2.978  -3.213   1.215  0.00  0.00    +0.142 HD
ATOM     30  H   UNL     1       4.118  -2.126   0.562  0.00  0.00    +0.142 HD
ENDBRANCH   6  28
TORSDOF 7
