REMARK  Name = 5143
REMARK  0 active torsions:
REMARK  status: ('A' for Active; 'I' for Inactive)
REMARK                            x       y       z     vdW  Elec       q    Type
REMARK                         _______ _______ _______ _____ _____    ______ ____
ROOT
ATOM      1  S   UNL     1      -1.616  -0.815   0.000  0.00  0.00    +0.076 S 
ATOM      2  O   UNL     1      -2.014  -1.370   1.275  0.00  0.00    -0.150 OA
ATOM      3  O   UNL     1      -2.012  -1.373  -1.274  0.00  0.00    -0.150 OA
ATOM      4  O   UNL     1      -0.548   2.868   0.002  0.00  0.00    -0.269 OA
ATOM      5  N   UNL     1      -1.834   0.885  -0.002  0.00  0.00    -0.181 N 
ATOM      6  C   UNL     1       0.117  -0.632   0.001  0.00  0.00    +0.130 C 
ATOM      7  C   UNL     1       0.502   0.709  -0.001  0.00  0.00    +0.074 C 
ATOM      8  C   UNL     1      -0.631   1.654  -0.001  0.00  0.00    +0.266 C 
ATOM      9  C   UNL     1       1.027  -1.669   0.001  0.00  0.00    +0.020 C 
ATOM     10  C   UNL     1       1.843   1.053  -0.001  0.00  0.00    +0.006 C 
ATOM     11  C   UNL     1       2.380  -1.329   0.001  0.00  0.00    +0.001 C 
ATOM     12  C   UNL     1       2.785   0.019   0.000  0.00  0.00    +0.000 C 
ATOM     13  H   UNL     1      -2.726   1.301  -0.005  0.00  0.00    +0.177 HD
ENDROOT
TORSDOF 0
