REMARK  Name = 56842109
REMARK  7 active torsions:
REMARK  status: ('A' for Active; 'I' for Inactive)
REMARK    1  A    between atoms: C_1  and  C_24
REMARK    2  A    between atoms: C_3  and  C_9
REMARK    3  A    between atoms: C_5  and  O_22
REMARK    4  A    between atoms: N_8  and  C_11
REMARK    5  A    between atoms: C_11  and  C_12
REMARK    6  A    between atoms: C_15  and  C_21
REMARK    7  A    between atoms: C_24  and  C_29
REMARK                            x       y       z     vdW  Elec       q    Type
REMARK                         _______ _______ _______ _____ _____    ______ ____
ROOT
ATOM      1  C   UNL     1      -2.930  -0.616  -0.570  0.00  0.00    -0.018 C 
ATOM      2  C   UNL     1      -1.568  -0.895  -0.686  0.00  0.00    +0.003 C 
ATOM      3  C   UNL     1      -1.060  -2.102  -0.205  0.00  0.00    +0.087 C 
ATOM      4  C   UNL     1      -3.783  -1.544   0.026  0.00  0.00    -0.001 C 
ATOM      5  C   UNL     1      -1.913  -3.030   0.391  0.00  0.00    +0.143 C 
ATOM      6  C   UNL     1      -3.275  -2.751   0.507  0.00  0.00    +0.037 C 
ENDROOT
BRANCH   3   9
ATOM      7  O   UNL     1       0.945  -3.103   0.484  0.00  0.00    -0.270 OA
ATOM      8  N   UNL     1       1.021  -1.799  -1.432  0.00  0.00    -0.297 N 
ATOM      9  C   UNL     1       0.365  -2.374  -0.338  0.00  0.00    +0.249 C 
ATOM     10  H   UNL     1       0.498  -1.231  -2.043  0.00  0.00    +0.150 HD
BRANCH   8  11
ATOM     11  C   UNL     1       2.425  -1.994  -1.712  0.00  0.00    +0.117 C 
BRANCH  11  12
ATOM     12  C   UNL     1       3.280  -0.954  -1.049  0.00  0.00    -0.003 C 
ATOM     13  C   UNL     1       3.335   0.339  -1.570  0.00  0.00    -0.003 C 
ATOM     14  C   UNL     1       4.020  -1.279   0.088  0.00  0.00    -0.003 C 
ATOM     15  C   UNL     1       4.868   0.981   0.182  0.00  0.00    +0.071 C 
ATOM     16  C   UNL     1       4.129   1.307  -0.955  0.00  0.00    +0.004 C 
ATOM     17  C   UNL     1       4.814  -0.312   0.703  0.00  0.00    +0.004 C 
BRANCH  15  21
ATOM     18  F   UNL     1       5.654   3.225   0.211  0.00  0.00    -0.166 F 
ATOM     19  F   UNL     1       5.366   2.263   2.140  0.00  0.00    -0.166 F 
ATOM     20  F   UNL     1       7.041   1.692   0.886  0.00  0.00    -0.166 F 
ATOM     21  C   UNL     1       5.715   2.016   0.842  0.00  0.00    +0.419 C 
ENDBRANCH  15  21
ENDBRANCH  11  12
ENDBRANCH   8  11
ENDBRANCH   3   9
BRANCH   5  22
ATOM     22  O   UNL     1      -1.436  -4.216   0.864  0.00  0.00    -0.471 OA
ATOM     23  C   UNL     1      -2.382  -5.103   1.458  0.00  0.00    +0.252 C 
ENDBRANCH   5  22
BRANCH   1  24
ATOM     24  C   UNL     1      -3.479   0.689  -1.091  0.00  0.00    +0.080 C 
BRANCH  24  29
ATOM     25  O   UNL     1      -4.594   1.633   0.832  0.00  0.00    -0.428 OA
ATOM     26  O   UNL     1      -2.914   3.672  -1.451  0.00  0.00    -0.271 OA
ATOM     27  O   UNL     1      -6.389   2.922   1.418  0.00  0.00    -0.226 OA
ATOM     28  N   UNL     1      -4.789   3.648  -0.082  0.00  0.00    -0.218 N 
ATOM     29  C   UNL     1      -3.458   1.776  -0.037  0.00  0.00    +0.250 C 
ATOM     30  C   UNL     1      -3.648   3.143  -0.631  0.00  0.00    +0.271 C 
ATOM     31  C   UNL     1      -5.359   2.765   0.778  0.00  0.00    +0.408 C 
ATOM     32  H   UNL     1      -5.154   4.540  -0.283  0.00  0.00    +0.161 HD
ENDBRANCH  24  29
ENDBRANCH   1  24
TORSDOF 7
