REMARK  Name = 9863827
REMARK  4 active torsions:
REMARK  status: ('A' for Active; 'I' for Inactive)
REMARK    1  A    between atoms: N_2  and  C_23
REMARK    2  A    between atoms: C_7  and  C_27
REMARK    3  A    between atoms: C_9  and  C_15
REMARK    4  A    between atoms: C_27  and  O_28
REMARK                            x       y       z     vdW  Elec       q    Type
REMARK                         _______ _______ _______ _____ _____    ______ ____
ROOT
ATOM      1  O   UNL     1      -3.557  -2.667  -0.335  0.00  0.00    -0.286 OA
ATOM      2  N   UNL     1      -2.241   1.141   0.289  0.00  0.00    -0.287 N 
ATOM      3  C   UNL     1      -1.272   0.112   0.119  0.00  0.00    +0.051 C 
ATOM      4  C   UNL     1      -3.585   0.828   0.239  0.00  0.00    +0.075 C 
ATOM      5  C   UNL     1      -1.700  -1.216  -0.100  0.00  0.00    +0.053 C 
ATOM      6  C   UNL     1       0.110   0.358   0.158  0.00  0.00    -0.008 C 
ATOM      7  C   UNL     1      -4.096  -0.393   0.038  0.00  0.00    +0.129 C 
ATOM      8  C   UNL     1      -3.153  -1.525  -0.149  0.00  0.00    +0.204 C 
ATOM      9  C   UNL     1       1.030  -0.680  -0.014  0.00  0.00    -0.001 C 
ATOM     10  C   UNL     1      -0.776  -2.255  -0.272  0.00  0.00    +0.004 C 
ATOM     11  C   UNL     1       0.701   1.718   0.382  0.00  0.00    +0.032 C 
ATOM     12  C   UNL     1       0.588  -1.982  -0.229  0.00  0.00    -0.000 C 
ENDROOT
BRANCH   9  15
ATOM     13  N   UNL     1       4.492  -0.313   1.318  0.00  0.00    -0.230 NA
ATOM     14  N   UNL     1       6.542   0.211   0.246  0.00  0.00    -0.317 N 
ATOM     15  C   UNL     1       2.462  -0.443   0.023  0.00  0.00    +0.019 C 
ATOM     16  C   UNL     1       3.161  -0.134  -1.133  0.00  0.00    +0.000 C 
ATOM     17  C   UNL     1       3.160  -0.522   1.213  0.00  0.00    +0.100 C 
ATOM     18  C   UNL     1       4.532   0.087  -1.066  0.00  0.00    +0.010 C 
ATOM     19  C   UNL     1       5.145  -0.013   0.173  0.00  0.00    +0.124 C 
ATOM     20  C   UNL     1       5.286   0.420  -2.308  0.00  0.00    +0.034 C 
ATOM     21  C   UNL     1       7.374  -0.423   1.216  0.00  0.00    +0.110 C 
ATOM     22  H   UNL     1       6.956   0.830  -0.398  0.00  0.00    +0.148 HD
ENDBRANCH   9  15
BRANCH   2  23
ATOM     23  C   UNL     1      -1.918   2.568   0.524  0.00  0.00    +0.077 C 
ATOM     24  C   UNL     1      -1.625   3.482  -0.618  0.00  0.00    +0.022 C 
ATOM     25  C   UNL     1      -2.893   3.639   0.168  0.00  0.00    +0.022 C 
ENDBRANCH   2  23
BRANCH   7  27
ATOM     26  O   UNL     1      -6.330   0.319  -0.351  0.00  0.00    -0.245 OA
ATOM     27  C   UNL     1      -5.552  -0.544   0.014  0.00  0.00    +0.342 C 
BRANCH  27  28
ATOM     28  O   UNL     1      -5.887  -1.774   0.457  0.00  0.00    -0.477 OA
ATOM     29  H   UNL     1      -5.219  -2.376   0.719  0.00  0.00    +0.295 HD
ENDBRANCH  27  28
ENDBRANCH   7  27
TORSDOF 4
