REMARK  Name = 11708365
REMARK  3 active torsions:
REMARK  status: ('A' for Active; 'I' for Inactive)
REMARK    1  A    between atoms: C_1  and  N_6
REMARK    2  A    between atoms: C_1  and  C_7
REMARK    3  A    between atoms: C_7  and  S_8
REMARK                            x       y       z     vdW  Elec       q    Type
REMARK                         _______ _______ _______ _____ _____    ______ ____
ROOT
ATOM      1  C   UNL     1      -0.788   0.029   0.566  0.00  0.00    +0.098 C 
ATOM      2  C   UNL     1      -0.641  -1.233   1.426  0.00  0.00    +0.021 C 
ATOM      3  C   UNL     1      -0.666   1.282   1.443  0.00  0.00    +0.021 C 
ENDROOT
BRANCH   1   6
ATOM      4 CL   UNL     1      -2.426   1.415  -1.035  0.00  0.00    -0.004 Cl
ATOM      5 CL   UNL     1      -2.429  -1.475  -0.922  0.00  0.00    -0.004 Cl
ATOM      6  N   UNL     1      -2.139   0.007  -0.021  0.00  0.00    -0.122 NA
ENDBRANCH   1   6
BRANCH   1   7
ATOM      7  C   UNL     1       0.204   0.046  -0.608  0.00  0.00    +0.175 C 
BRANCH   7   8
ATOM      8  S   UNL     1       1.909   0.003  -0.153  0.00  0.00    +0.024 S 
ATOM      9  O   UNL     1       2.525  -0.166  -1.654  0.00  0.00    -0.069 OA
ATOM     10  O   UNL     1       2.165  -1.214   0.596  0.00  0.00    -0.069 OA
ATOM     11  O   UNL     1       2.288   1.305   0.363  0.00  0.00    -0.069 OA
ENDBRANCH   7   8
ENDBRANCH   1   7
TORSDOF 3
