REMARK  Name = 3035714
REMARK  6 active torsions:
REMARK  status: ('A' for Active; 'I' for Inactive)
REMARK    1  A    between atoms: C_2  and  N_7
REMARK    2  A    between atoms: N_7  and  S_9
REMARK    3  A    between atoms: S_9  and  C_12
REMARK    4  A    between atoms: C_17  and  O_18
REMARK    5  A    between atoms: N_20  and  C_22
REMARK    6  A    between atoms: C_27  and  O_28
REMARK                            x       y       z     vdW  Elec       q    Type
REMARK                         _______ _______ _______ _____ _____    ______ ____
ROOT
ATOM      1  N   UNL     1       0.456   2.506   1.350  0.00  0.00    -0.228 NA
ATOM      2  C   UNL     1       2.089   1.563  -0.162  0.00  0.00    +0.096 C 
ATOM      3  C   UNL     1       0.789   1.925   0.171  0.00  0.00    +0.147 C 
ATOM      4  C   UNL     1       3.098   1.811   0.762  0.00  0.00    +0.020 C 
ATOM      5  C   UNL     1       2.787   2.405   1.980  0.00  0.00    +0.022 C 
ATOM      6  C   UNL     1       1.463   2.731   2.223  0.00  0.00    +0.100 C 
ATOM      7  N   UNL     1      -0.239   1.679  -0.761  0.00  0.00    -0.297 N 
ATOM      8  H   UNL     1       0.061   1.711  -1.698  0.00  0.00    +0.154 HD
ENDROOT
BRANCH   7   9
ATOM      9  C   UNL     1      -1.613   1.397  -0.615  0.00  0.00    +0.050 C 
ATOM     10  C   UNL     1      -2.515   1.793  -1.601  0.00  0.00    +0.018 C 
ATOM     11  C   UNL     1      -2.069   0.721   0.517  0.00  0.00    +0.018 C 
ATOM     12  C   UNL     1      -3.874   1.515  -1.456  0.00  0.00    +0.038 C 
ATOM     13  C   UNL     1      -3.428   0.442   0.663  0.00  0.00    +0.038 C 
ATOM     14  C   UNL     1      -4.330   0.839  -0.324  0.00  0.00    +0.134 C 
BRANCH  14  15
ATOM     15  O   UNL     1      -5.656   0.565  -0.182  0.00  0.00    -0.506 OA
ATOM     16  H   UNL     1      -6.263   0.831  -0.845  0.00  0.00    +0.292 HD
ENDBRANCH  14  15
ENDBRANCH   7   9
BRANCH   2  17
ATOM     17  N   UNL     1       2.409   0.953  -1.414  0.00  0.00    -0.212 N 
ATOM     18  H   UNL     1       2.313   1.456  -2.256  0.00  0.00    +0.174 HD
BRANCH  17  19
ATOM     19  S   UNL     1       2.963  -0.677  -1.424  0.00  0.00    +0.074 S 
ATOM     20  O   UNL     1       2.902  -1.188  -2.781  0.00  0.00    -0.150 OA
ATOM     21  O   UNL     1       4.196  -0.787  -0.668  0.00  0.00    -0.150 OA
BRANCH  19  22
ATOM     22  C   UNL     1       1.692  -1.500  -0.509  0.00  0.00    +0.125 C 
ATOM     23  C   UNL     1       0.600  -2.014  -1.185  0.00  0.00    +0.023 C 
ATOM     24  C   UNL     1       1.816  -1.613   0.865  0.00  0.00    +0.023 C 
ATOM     25  C   UNL     1      -0.402  -2.663  -0.464  0.00  0.00    +0.038 C 
ATOM     26  C   UNL     1       0.813  -2.262   1.586  0.00  0.00    +0.038 C 
ATOM     27  C   UNL     1      -0.296  -2.787   0.921  0.00  0.00    +0.139 C 
BRANCH  27  28
ATOM     28  O   UNL     1      -1.274  -3.421   1.625  0.00  0.00    -0.471 OA
ATOM     29  C   UNL     1      -2.379  -3.934   0.883  0.00  0.00    +0.252 C 
ENDBRANCH  27  28
ENDBRANCH  19  22
ENDBRANCH  17  19
ENDBRANCH   2  17
TORSDOF 6
