REMARK  Name = 25025505
REMARK  6 active torsions:
REMARK  status: ('A' for Active; 'I' for Inactive)
REMARK    1  A    between atoms: C_3  and  C_9
REMARK    2  A    between atoms: C_4  and  C_20
REMARK    3  A    between atoms: C_17  and  C_18
REMARK    4  A    between atoms: C_20  and  O_21
REMARK    5  A    between atoms: O_21  and  C_22
REMARK    6  A    between atoms: C_25  and  N_28
REMARK                            x       y       z     vdW  Elec       q    Type
REMARK                         _______ _______ _______ _____ _____    ______ ____
ROOT
ATOM      1  S   UNL     1       0.615  -4.277   0.523  0.00  0.00    -0.079 S 
ATOM      2  N   UNL     1      -0.004  -1.879  -0.217  0.00  0.00    -0.404 NA
ATOM      3  C   UNL     1       1.001  -2.652   0.128  0.00  0.00    +0.134 C 
ATOM      4  C   UNL     1      -1.171  -2.616  -0.169  0.00  0.00    +0.142 C 
ATOM      5  C   UNL     1      -1.036  -3.935   0.211  0.00  0.00    +0.122 C 
ENDROOT
BRANCH   3   9
ATOM      6  N   UNL     1       4.624  -0.306  -0.038  0.00  0.00    -0.253 N 
ATOM      7  N   UNL     1       5.827   1.468   0.891  0.00  0.00    -0.203 NA
ATOM      8  N   UNL     1       6.539   0.423  -1.160  0.00  0.00    -0.181 NA
ATOM      9  C   UNL     1       2.448  -2.200   0.195  0.00  0.00    +0.062 C 
ATOM     10  C   UNL     1       2.974  -1.741  -1.173  0.00  0.00    +0.030 C 
ATOM     11  C   UNL     1       2.657  -1.082   1.227  0.00  0.00    +0.030 C 
ATOM     12  C   UNL     1       4.439  -1.310  -1.092  0.00  0.00    +0.102 C 
ATOM     13  C   UNL     1       4.125  -0.661   1.298  0.00  0.00    +0.102 C 
ATOM     14  C   UNL     1       5.715   0.569  -0.105  0.00  0.00    +0.090 C 
ATOM     15  C   UNL     1       6.888   2.296   0.794  0.00  0.00    +0.161 C 
ATOM     16  C   UNL     1       7.578   1.283  -1.194  0.00  0.00    +0.104 C 
ATOM     17  C   UNL     1       7.805   2.250  -0.236  0.00  0.00    +0.001 C 
BRANCH  17  18
ATOM     18  C   UNL     1       8.959   3.178  -0.307  0.00  0.00    +0.026 C 
ATOM     19  C   UNL     1      10.199   2.632   0.403  0.00  0.00    +0.005 C 
ENDBRANCH  17  18
ENDBRANCH   3   9
BRANCH   4  20
ATOM     20  C   UNL     1      -2.439  -1.946  -0.520  0.00  0.00    +0.260 C 
BRANCH  20  21
ATOM     21  O   UNL     1      -2.850  -1.091   0.546  0.00  0.00    -0.468 OA
BRANCH  21  22
ATOM     22  C   UNL     1      -4.043  -0.442   0.385  0.00  0.00    +0.139 C 
ATOM     23  C   UNL     1      -4.514   0.412   1.383  0.00  0.00    +0.038 C 
ATOM     24  C   UNL     1      -4.790  -0.633  -0.777  0.00  0.00    +0.038 C 
ATOM     25  C   UNL     1      -6.477   0.881   0.057  0.00  0.00    +0.078 C 
ATOM     26  C   UNL     1      -5.731   1.073   1.219  0.00  0.00    +0.020 C 
ATOM     27  C   UNL     1      -6.007   0.028  -0.942  0.00  0.00    +0.020 C 
BRANCH  25  28
ATOM     28  N   UNL     1      -7.684   1.537  -0.106  0.00  0.00    -0.149 N 
ATOM     29  N   UNL     1      -8.439   1.388  -1.203  0.00  0.00    -0.048 NA
ATOM     30  N   UNL     1      -9.419   2.796   0.221  0.00  0.00    -0.107 NA
ATOM     31  N   UNL     1      -9.499   2.160  -0.998  0.00  0.00    -0.024 NA
ATOM     32  C   UNL     1      -8.289   2.396   0.756  0.00  0.00    +0.215 C 
ENDBRANCH  25  28
ENDBRANCH  21  22
ENDBRANCH  20  21
ENDBRANCH   4  20
TORSDOF 6
