REMARK  Name = 9947999
REMARK  2 active torsions:
REMARK  status: ('A' for Active; 'I' for Inactive)
REMARK    1  A    between atoms: C_1  and  C_13
REMARK    2  A    between atoms: C_4  and  N_19
REMARK                            x       y       z     vdW  Elec       q    Type
REMARK                         _______ _______ _______ _____ _____    ______ ____
ROOT
ATOM      1  C   UNL     1      -0.366   0.801  -0.767  0.00  0.00    +0.044 C 
ATOM      2  C   UNL     1      -0.718   2.110  -0.038  0.00  0.00    +0.007 C 
ATOM      3  C   UNL     1      -2.213   2.372  -0.111  0.00  0.00    -0.017 C 
ATOM      4  C   UNL     1      -2.978   1.277   0.643  0.00  0.00    -0.043 C 
ATOM      5  C   UNL     1      -1.311  -0.348  -0.422  0.00  0.00    -0.024 C 
ATOM      6  C   UNL     1      -2.542  -0.123   0.235  0.00  0.00    -0.046 C 
ATOM      7  C   UNL     1      -0.982  -1.659  -0.824  0.00  0.00    -0.004 C 
ATOM      8  C   UNL     1      -3.344  -1.233   0.568  0.00  0.00    -0.007 C 
ATOM      9  C   UNL     1      -1.807  -2.738  -0.515  0.00  0.00    -0.000 C 
ATOM     10  C   UNL     1      -2.981  -2.526   0.193  0.00  0.00    -0.000 C 
ENDROOT
BRANCH   1  13
ATOM     11 CL   UNL     1       3.438  -0.382   2.565  0.00  0.00    -0.081 Cl
ATOM     12 CL   UNL     1       5.487  -0.402   0.060  0.00  0.00    -0.081 Cl
ATOM     13  C   UNL     1       1.111   0.495  -0.541  0.00  0.00    -0.018 C 
ATOM     14  C   UNL     1       1.569   0.226   0.743  0.00  0.00    +0.008 C 
ATOM     15  C   UNL     1       1.984   0.490  -1.623  0.00  0.00    -0.003 C 
ATOM     16  C   UNL     1       2.920  -0.054   0.949  0.00  0.00    +0.068 C 
ATOM     17  C   UNL     1       3.335   0.210  -1.416  0.00  0.00    +0.012 C 
ATOM     18  C   UNL     1       3.803  -0.062  -0.131  0.00  0.00    +0.068 C 
ENDBRANCH   1  13
BRANCH   4  19
ATOM     19  N   UNL     1      -4.405   1.545   0.433  0.00  0.00    +0.384 N 
ATOM     20  H   UNL     1      -4.619   2.498   0.728  0.00  0.00    -0.089 HD
ATOM     21  H   UNL     1      -4.959   0.887   0.981  0.00  0.00    -0.089 HD
ATOM     22  H   UNL     1      -4.630   1.437  -0.556  0.00  0.00    -0.089 HD
ENDBRANCH   4  19
TORSDOF 2
