REMARK  Name = 121301826
REMARK  4 active torsions:
REMARK  status: ('A' for Active; 'I' for Inactive)
REMARK    1  A    between atoms: N_3  and  O_22
REMARK    2  A    between atoms: C_5  and  C_12
REMARK    3  A    between atoms: N_11  and  C_15
REMARK    4  A    between atoms: O_22  and  S_23
REMARK                            x       y       z     vdW  Elec       q    Type
REMARK                         _______ _______ _______ _____ _____    ______ ____
ROOT
ATOM      1  O   UNL     1       1.520   0.781  -2.171  0.00  0.00    -0.250 OA
ATOM      2  N   UNL     1       0.147   0.056  -0.323  0.00  0.00    -0.254 N 
ATOM      3  N   UNL     1       2.385   0.107  -0.075  0.00  0.00    -0.126 N 
ATOM      4  C   UNL     1       1.819  -0.633   1.042  0.00  0.00    +0.127 C 
ATOM      5  C   UNL     1      -0.377  -1.205  -0.833  0.00  0.00    +0.153 C 
ATOM      6  C   UNL     1       0.468   0.057   1.104  0.00  0.00    +0.118 C 
ATOM      7  C   UNL     1       1.549  -2.120   0.691  0.00  0.00    +0.026 C 
ATOM      8  C   UNL     1       0.649  -2.334  -0.563  0.00  0.00    +0.031 C 
ATOM      9  C   UNL     1       1.388   0.443  -1.005  0.00  0.00    +0.332 C 
ENDROOT
BRANCH   5  12
ATOM     10  O   UNL     1      -1.930  -2.512   0.421  0.00  0.00    -0.273 OA
ATOM     11  N   UNL     1      -2.629  -0.478  -0.469  0.00  0.00    -0.305 N 
ATOM     12  C   UNL     1      -1.712  -1.484  -0.215  0.00  0.00    +0.241 C 
ATOM     13  H   UNL     1      -2.335   0.302  -0.994  0.00  0.00    +0.149 HD
BRANCH  11  15
ATOM     14  N   UNL     1      -4.965   2.179   0.461  0.00  0.00    +0.384 N 
ATOM     15  C   UNL     1      -3.996  -0.517  -0.003  0.00  0.00    +0.067 C 
ATOM     16  C   UNL     1      -4.110   0.076   1.405  0.00  0.00    -0.004 C 
ATOM     17  C   UNL     1      -4.939   0.188  -0.985  0.00  0.00    -0.004 C 
ATOM     18  C   UNL     1      -4.806   1.705  -0.946  0.00  0.00    -0.080 C 
ATOM     19  C   UNL     1      -3.975   1.593   1.413  0.00  0.00    -0.080 C 
ATOM     20  H   UNL     1      -5.901   1.931   0.779  0.00  0.00    -0.085 HD
ATOM     21  H   UNL     1      -4.807   3.186   0.453  0.00  0.00    -0.085 HD
ENDBRANCH  11  15
ENDBRANCH   5  12
BRANCH   3  22
ATOM     22  O   UNL     1       3.699  -0.139  -0.448  0.00  0.00    -0.094 OA
BRANCH  22  23
ATOM     23  S   UNL     1       4.777   0.892   0.261  0.00  0.00    +0.258 S 
ATOM     24  O   UNL     1       4.104   2.189   0.229  0.00  0.00    -0.114 OA
ATOM     25  O   UNL     1       5.963   0.815  -0.592  0.00  0.00    -0.114 OA
ATOM     26  O   UNL     1       4.970   0.340   1.601  0.00  0.00    -0.020 OA
ENDBRANCH  22  23
ENDBRANCH   3  22
TORSDOF 4
