REMARK  Name = 50137
REMARK  2 active torsions:
REMARK  status: ('A' for Active; 'I' for Inactive)
REMARK    1  A    between atoms: C_14  and  O_19
REMARK    2  A    between atoms: O_19  and  C_21
REMARK                            x       y       z     vdW  Elec       q    Type
REMARK                         _______ _______ _______ _____ _____    ______ ____
ROOT
ATOM      1  O   UNL     1       0.418  -2.618  -0.123  0.00  0.00    -0.479 OA
ATOM      2  C   UNL     1      -1.598  -1.153   0.061  0.00  0.00    -0.012 C 
ATOM      3  C   UNL     1      -3.011   1.198  -0.866  0.00  0.00    +0.005 C 
ATOM      4  C   UNL     1      -0.932  -2.493   0.377  0.00  0.00    +0.148 C 
ATOM      5  C   UNL     1      -0.872  -0.070  -0.282  0.00  0.00    -0.021 C 
ATOM      6  C   UNL     1      -1.496   1.264  -0.619  0.00  0.00    +0.026 C 
ATOM      7  C   UNL     1      -3.108  -1.081   0.183  0.00  0.00    +0.025 C 
ATOM      8  C   UNL     1      -3.672   0.340   0.211  0.00  0.00    +0.005 C 
ATOM      9  C   UNL     1       0.595  -0.204  -0.303  0.00  0.00    +0.064 C 
ATOM     10  C   UNL     1      -3.618   2.598  -0.906  0.00  0.00    +0.000 C 
ATOM     11  C   UNL     1       1.163  -1.479  -0.225  0.00  0.00    +0.141 C 
ATOM     12  C   UNL     1      -0.870  -2.722   1.896  0.00  0.00    +0.048 C 
ATOM     13  C   UNL     1      -1.678  -3.666  -0.281  0.00  0.00    +0.048 C 
ATOM     14  C   UNL     1       1.459   0.896  -0.419  0.00  0.00    +0.151 C 
ATOM     15  C   UNL     1       2.549  -1.658  -0.291  0.00  0.00    +0.033 C 
ATOM     16  C   UNL     1       3.390  -0.556  -0.409  0.00  0.00    -0.016 C 
ATOM     17  C   UNL     1       2.845   0.722  -0.469  0.00  0.00    +0.034 C 
ATOM     18  C   UNL     1       4.867  -0.745  -0.468  0.00  0.00    +0.031 C 
ENDROOT
BRANCH  14  19
ATOM     19  O   UNL     1       1.043   2.196  -0.450  0.00  0.00    -0.424 OA
BRANCH  19  21
ATOM     20  O   UNL     1       1.148   2.239   1.888  0.00  0.00    -0.250 OA
ATOM     21  C   UNL     1       0.920   2.785   0.817  0.00  0.00    +0.322 C 
ATOM     22  C   UNL     1       0.459   4.206   0.677  0.00  0.00    +0.122 C 
ENDBRANCH  19  21
ENDBRANCH  14  19
TORSDOF 2
