REMARK  Name = 6449876
REMARK  10 active torsions:
REMARK  status: ('A' for Active; 'I' for Inactive)
REMARK    1  A    between atoms: C_1  and  C_19
REMARK    2  A    between atoms: C_2  and  N_8
REMARK    3  A    between atoms: N_7  and  C_13
REMARK    4  A    between atoms: N_9  and  C_18
REMARK    5  A    between atoms: C_19  and  C_22
REMARK    6  A    between atoms: C_20  and  C_27
REMARK    7  A    between atoms: C_27  and  C_28
REMARK    8  A    between atoms: C_28  and  C_29
REMARK    9  A    between atoms: C_29  and  C_31
REMARK   10  A    between atoms: C_31  and  O_32
REMARK                            x       y       z     vdW  Elec       q    Type
REMARK                         _______ _______ _______ _____ _____    ______ ____
ROOT
ATOM      1  C   UNL     1       1.381   0.972   1.220  0.00  0.00    +0.001 C 
ATOM      2  C   UNL     1      -0.944   1.617   1.349  0.00  0.00    +0.059 C 
ATOM      3  C   UNL     1       0.066   0.849   0.770  0.00  0.00    +0.017 C 
ATOM      4  C   UNL     1       1.685   1.862   2.251  0.00  0.00    +0.000 C 
ATOM      5  C   UNL     1      -0.640   2.507   2.379  0.00  0.00    +0.017 C 
ATOM      6  C   UNL     1       0.674   2.630   2.830  0.00  0.00    +0.001 C 
ENDROOT
BRANCH   2   8
ATOM      7  N   UNL     1      -2.087   0.134  -1.073  0.00  0.00    -0.243 NA
ATOM      8  N   UNL     1      -2.273   1.493   0.895  0.00  0.00    -0.324 N 
ATOM      9  N   UNL     1      -4.195   0.965  -0.411  0.00  0.00    -0.263 N 
ATOM     10  C   UNL     1      -2.773   0.815  -0.208  0.00  0.00    +0.211 C 
ATOM     11  H   UNL     1      -2.948   1.957   1.442  0.00  0.00    +0.169 HD
ATOM     12  H   UNL     1      -4.648   0.563  -1.187  0.00  0.00    +0.181 HD
BRANCH   7  13
ATOM     13  C   UNL     1      -2.804  -0.441  -2.203  0.00  0.00    +0.088 C 
ATOM     14  C   UNL     1      -3.456   0.697  -2.989  0.00  0.00    +0.024 C 
ATOM     15  C   UNL     1      -1.790  -1.183  -3.073  0.00  0.00    +0.024 C 
ATOM     16  C   UNL     1      -3.860  -1.406  -1.665  0.00  0.00    +0.024 C 
ENDBRANCH   7  13
BRANCH   9  18
ATOM     17  N   UNL     1      -5.467   2.290   1.289  0.00  0.00    -0.171 NA
ATOM     18  C   UNL     1      -4.873   1.676   0.504  0.00  0.00    +0.184 C 
ENDBRANCH   9  18
ENDBRANCH   2   8
BRANCH   1  19
ATOM     19  C   UNL     1       2.456   0.154   0.605  0.00  0.00    -0.003 C 
ATOM     20  C   UNL     1       2.730  -1.047   1.161  0.00  0.00    -0.026 C 
BRANCH  19  22
ATOM     21  N   UNL     1       5.378   1.196  -1.520  0.00  0.00    -0.242 NA
ATOM     22  C   UNL     1       3.233   0.621  -0.563  0.00  0.00    +0.019 C 
ATOM     23  C   UNL     1       2.607   0.923  -1.767  0.00  0.00    +0.003 C 
ATOM     24  C   UNL     1       4.609   0.773  -0.492  0.00  0.00    +0.099 C 
ATOM     25  C   UNL     1       3.364   1.361  -2.848  0.00  0.00    +0.021 C 
ATOM     26  C   UNL     1       4.734   1.480  -2.674  0.00  0.00    +0.099 C 
ENDBRANCH  19  22
BRANCH  20  27
ATOM     27  C   UNL     1       2.068  -1.682   2.357  0.00  0.00    +0.027 C 
BRANCH  27  28
ATOM     28  C   UNL     1       1.417  -3.015   1.975  0.00  0.00    +0.016 C 
BRANCH  28  29
ATOM     29  C   UNL     1       0.349  -2.851   0.893  0.00  0.00    +0.110 C 
BRANCH  29  31
ATOM     30  O   UNL     1       0.003  -5.263   0.927  0.00  0.00    -0.250 OA
ATOM     31  C   UNL     1      -0.298  -4.160   0.494  0.00  0.00    +0.314 C 
BRANCH  31  32
ATOM     32  O   UNL     1      -1.293  -3.965  -0.411  0.00  0.00    -0.480 OA
ATOM     33  H   UNL     1      -1.488  -3.100  -0.714  0.00  0.00    +0.295 HD
ENDBRANCH  31  32
ENDBRANCH  29  31
ENDBRANCH  28  29
ENDBRANCH  27  28
ENDBRANCH  20  27
ENDBRANCH   1  19
TORSDOF 10
