REMARK  Name = 4850
REMARK  2 active torsions:
REMARK  status: ('A' for Active; 'I' for Inactive)
REMARK    1  A    between atoms: N_1  and  C_14
REMARK    2  A    between atoms: C_14  and  C_17
REMARK                            x       y       z     vdW  Elec       q    Type
REMARK                         _______ _______ _______ _____ _____    ______ ____
ROOT
ATOM      1  N   UNL     1      -0.072  -1.270   0.405  0.00  0.00    +0.392 N 
ATOM      2  N   UNL     1       2.587  -0.306   0.009  0.00  0.00    -0.257 N 
ATOM      3  N   UNL     1       4.019   1.505  -0.485  0.00  0.00    -0.203 NA
ATOM      4  N   UNL     1       4.915  -0.598   0.276  0.00  0.00    -0.181 NA
ATOM      5  C   UNL     1       0.224  -0.334  -0.686  0.00  0.00    -0.054 C 
ATOM      6  C   UNL     1       1.079  -2.153   0.632  0.00  0.00    -0.054 C 
ATOM      7  C   UNL     1       1.440   0.533  -0.352  0.00  0.00    +0.079 C 
ATOM      8  C   UNL     1       2.323  -1.346   1.011  0.00  0.00    +0.079 C 
ATOM      9  C   UNL     1       3.882   0.217  -0.070  0.00  0.00    +0.090 C 
ATOM     10  C   UNL     1       5.281   1.978  -0.548  0.00  0.00    +0.165 C 
ATOM     11  C   UNL     1       6.149  -0.061   0.189  0.00  0.00    +0.108 C 
ATOM     12  C   UNL     1       6.396   1.234  -0.221  0.00  0.00    +0.022 C 
ATOM     13  H   UNL     1      -0.252  -0.737   1.256  0.00  0.00    -0.079 HD
ENDROOT
BRANCH   1  14
ATOM     14  C   UNL     1      -1.268  -2.054   0.098  0.00  0.00    -0.050 C 
BRANCH  14  17
ATOM     15  O   UNL     1      -4.252   1.675   1.348  0.00  0.00    -0.435 OA
ATOM     16  O   UNL     1      -5.731   1.267  -0.510  0.00  0.00    -0.435 OA
ATOM     17  C   UNL     1      -2.478  -1.180  -0.096  0.00  0.00    -0.040 C 
ATOM     18  C   UNL     1      -2.723  -0.148   0.803  0.00  0.00    +0.034 C 
ATOM     19  C   UNL     1      -3.330  -1.426  -1.179  0.00  0.00    -0.003 C 
ATOM     20  C   UNL     1      -3.844   0.626   0.583  0.00  0.00    +0.176 C 
ATOM     21  C   UNL     1      -4.689   0.393  -0.478  0.00  0.00    +0.176 C 
ATOM     22  C   UNL     1      -4.459  -0.627  -1.378  0.00  0.00    +0.040 C 
ATOM     23  C   UNL     1      -5.448   2.076   0.649  0.00  0.00    +0.429 C 
ENDBRANCH  14  17
ENDBRANCH   1  14
TORSDOF 2
