REMARK  Name = 71857
REMARK  9 active torsions:
REMARK  status: ('A' for Active; 'I' for Inactive)
REMARK    1  A    between atoms: N_1  and  C_4
REMARK    2  A    between atoms: N_1  and  C_19
REMARK    3  A    between atoms: C_4  and  C_5
REMARK    4  A    between atoms: C_5  and  N_8
REMARK    5  A    between atoms: C_19  and  C_20
REMARK    6  A    between atoms: C_20  and  C_21
REMARK    7  A    between atoms: C_20  and  O_31
REMARK    8  A    between atoms: C_24  and  O_27
REMARK    9  A    between atoms: C_26  and  O_29
REMARK                            x       y       z     vdW  Elec       q    Type
REMARK                         _______ _______ _______ _____ _____    ______ ____
ROOT
ATOM      1  N   UNL     1      -1.228   2.360  -0.353  0.00  0.00    +0.387 N 
ATOM      2  H   UNL     1      -0.791   1.541   0.070  0.00  0.00    -0.084 HD
ATOM      3  H   UNL     1      -1.144   2.324  -1.369  0.00  0.00    -0.084 HD
ENDROOT
BRANCH   1   4
ATOM      4  C   UNL     1      -0.556   3.561   0.128  0.00  0.00    -0.064 C 
BRANCH   4   5
ATOM      5  C   UNL     1       0.925   3.517  -0.238  0.00  0.00    +0.051 C 
BRANCH   5   8
ATOM      6  O   UNL     1       0.680   1.238  -2.242  0.00  0.00    -0.272 OA
ATOM      7  O   UNL     1       2.707  -2.742  -0.802  0.00  0.00    -0.252 OA
ATOM      8  N   UNL     1       1.596   2.389   0.363  0.00  0.00    -0.242 NA
ATOM      9  N   UNL     1       2.797  -0.893   0.607  0.00  0.00    -0.228 N 
ATOM     10  N   UNL     1       1.688  -0.767  -1.542  0.00  0.00    -0.211 N 
ATOM     11  N   UNL     1       2.734   1.214   1.878  0.00  0.00    -0.240 NA
ATOM     12  C   UNL     1       1.749   1.137  -0.160  0.00  0.00    +0.192 C 
ATOM     13  C   UNL     1       2.448   0.439   0.786  0.00  0.00    +0.136 C 
ATOM     14  C   UNL     1       1.309   0.595  -1.405  0.00  0.00    +0.254 C 
ATOM     15  C   UNL     1       2.205   2.386   1.591  0.00  0.00    +0.203 C 
ATOM     16  C   UNL     1       2.423  -1.558  -0.587  0.00  0.00    +0.318 C 
ATOM     17  C   UNL     1       3.542  -1.602   1.640  0.00  0.00    +0.123 C 
ATOM     18  C   UNL     1       1.293  -1.434  -2.779  0.00  0.00    +0.124 C 
ENDBRANCH   5   8
ENDBRANCH   4   5
ENDBRANCH   1   4
BRANCH   1  19
ATOM     19  C   UNL     1      -2.641   2.380  -0.004  0.00  0.00    -0.047 C 
BRANCH  19  20
ATOM     20  C   UNL     1      -3.353   1.130  -0.536  0.00  0.00    +0.112 C 
BRANCH  20  21
ATOM     21  C   UNL     1      -2.754  -0.135   0.038  0.00  0.00    +0.005 C 
ATOM     22  C   UNL     1      -2.250  -1.095  -0.822  0.00  0.00    +0.038 C 
ATOM     23  C   UNL     1      -2.724  -0.306   1.411  0.00  0.00    +0.001 C 
ATOM     24  C   UNL     1      -1.698  -2.262  -0.293  0.00  0.00    +0.167 C 
ATOM     25  C   UNL     1      -2.172  -1.472   1.941  0.00  0.00    +0.040 C 
ATOM     26  C   UNL     1      -1.660  -2.450   1.089  0.00  0.00    +0.167 C 
BRANCH  24  27
ATOM     27  O   UNL     1      -1.200  -3.209  -1.135  0.00  0.00    -0.503 OA
ATOM     28  H   UNL     1      -1.230  -3.075  -2.062  0.00  0.00    +0.292 HD
ENDBRANCH  24  27
BRANCH  26  29
ATOM     29  O   UNL     1      -1.122  -3.585   1.617  0.00  0.00    -0.503 OA
ATOM     30  H   UNL     1      -0.776  -4.247   1.052  0.00  0.00    +0.292 HD
ENDBRANCH  26  29
ENDBRANCH  20  21
BRANCH  20  31
ATOM     31  O   UNL     1      -4.737   1.164  -0.192  0.00  0.00    -0.382 OA
ATOM     32  H   UNL     1      -5.140   1.970  -0.552  0.00  0.00    +0.211 HD
ENDBRANCH  20  31
ENDBRANCH  19  20
ENDBRANCH   1  19
TORSDOF 9
