REMARK  Name = 16736529
REMARK  3 active torsions:
REMARK  status: ('A' for Active; 'I' for Inactive)
REMARK    1  A    between atoms: N_2  and  C_14
REMARK    2  A    between atoms: C_14  and  C_16
REMARK    3  A    between atoms: C_18  and  O_23
REMARK                            x       y       z     vdW  Elec       q    Type
REMARK                         _______ _______ _______ _____ _____    ______ ____
ROOT
ATOM      1 CL   UNL     1       5.217   0.805  -1.415  0.00  0.00    -0.045 Cl
ATOM      2  N   UNL     1       1.033   0.942   1.037  0.00  0.00    -0.255 N 
ATOM      3  N   UNL     1       2.731   2.078   0.146  0.00  0.00    -0.241 NA
ATOM      4  N   UNL     1       1.693  -1.321   0.452  0.00  0.00    -0.311 NA
ATOM      5  N   UNL     1       3.801  -1.340  -0.778  0.00  0.00    -0.315 NA
ATOM      6  N   UNL     1       2.655  -3.323  -0.285  0.00  0.00    -0.283 N 
ATOM      7  C   UNL     1       1.857   0.010   0.474  0.00  0.00    +0.220 C 
ATOM      8  C   UNL     1       2.904   0.735  -0.072  0.00  0.00    +0.164 C 
ATOM      9  C   UNL     1       1.600   2.168   0.814  0.00  0.00    +0.222 C 
ATOM     10  C   UNL     1       3.902   0.010  -0.718  0.00  0.00    +0.223 C 
ATOM     11  C   UNL     1       2.719  -1.913  -0.198  0.00  0.00    +0.198 C 
ATOM     12  H   UNL     1       1.897  -3.807   0.114  0.00  0.00    +0.156 HD
ATOM     13  H   UNL     1       3.370  -3.821  -0.745  0.00  0.00    +0.156 HD
ENDROOT
BRANCH   2  14
ATOM     14  C   UNL     1      -0.205   0.692   1.735  0.00  0.00    +0.141 C 
BRANCH  14  16
ATOM     15  N   UNL     1      -1.402   1.714  -0.103  0.00  0.00    -0.247 NA
ATOM     16  C   UNL     1      -1.379   0.701   0.792  0.00  0.00    +0.078 C 
ATOM     17  C   UNL     1      -2.349  -0.285   0.874  0.00  0.00    +0.027 C 
ATOM     18  C   UNL     1      -3.411  -0.228  -0.021  0.00  0.00    +0.133 C 
ATOM     19  C   UNL     1      -3.470   0.799  -0.957  0.00  0.00    +0.031 C 
ATOM     20  C   UNL     1      -2.264  -1.375   1.888  0.00  0.00    +0.036 C 
ATOM     21  C   UNL     1      -2.450   1.736  -0.957  0.00  0.00    +0.097 C 
ATOM     22  C   UNL     1      -4.586   0.904  -1.937  0.00  0.00    +0.036 C 
BRANCH  18  23
ATOM     23  O   UNL     1      -4.393  -1.173   0.017  0.00  0.00    -0.472 OA
ATOM     24  C   UNL     1      -4.204  -2.335  -0.787  0.00  0.00    +0.252 C 
ENDBRANCH  18  23
ENDBRANCH  14  16
ENDBRANCH   2  14
TORSDOF 3
