REMARK  Name = 4418
REMARK  8 active torsions:
REMARK  status: ('A' for Active; 'I' for Inactive)
REMARK    1  A    between atoms: C_1  and  N_2
REMARK    2  A    between atoms: C_1  and  C_17
REMARK    3  A    between atoms: N_3  and  C_9
REMARK    4  A    between atoms: C_10  and  O_15
REMARK    5  A    between atoms: C_17  and  O_18
REMARK    6  A    between atoms: C_17  and  C_20
REMARK    7  A    between atoms: C_20  and  O_21
REMARK    8  A    between atoms: O_21  and  C_22
REMARK                            x       y       z     vdW  Elec       q    Type
REMARK                         _______ _______ _______ _____ _____    ______ ____
ROOT
ATOM      1  C   UNL     1      -0.921   2.490  -1.085  0.00  0.00    -0.043 C 
ENDROOT
BRANCH   1   2
ATOM      2  N   UNL     1       0.017   1.586  -0.420  0.00  0.00    +0.391 N 
ATOM      3  N   UNL     1       2.580   0.510   0.236  0.00  0.00    -0.309 N 
ATOM      4  C   UNL     1       0.771   0.808  -1.411  0.00  0.00    -0.055 C 
ATOM      5  C   UNL     1       0.943   2.340   0.432  0.00  0.00    -0.055 C 
ATOM      6  C   UNL     1       1.715  -0.183  -0.727  0.00  0.00    +0.068 C 
ATOM      7  C   UNL     1       1.894   1.401   1.178  0.00  0.00    +0.068 C 
ATOM      8  H   UNL     1      -0.520   0.944   0.164  0.00  0.00    -0.079 HD
BRANCH   3   9
ATOM      9  C   UNL     1       3.775  -0.113   0.615  0.00  0.00    +0.082 C 
ATOM     10  C   UNL     1       4.771  -0.439  -0.329  0.00  0.00    +0.152 C 
ATOM     11  C   UNL     1       4.016  -0.434   1.966  0.00  0.00    +0.018 C 
ATOM     12  C   UNL     1       5.957  -1.059   0.063  0.00  0.00    +0.038 C 
ATOM     13  C   UNL     1       5.202  -1.055   2.357  0.00  0.00    +0.001 C 
ATOM     14  C   UNL     1       6.173  -1.367   1.406  0.00  0.00    +0.003 C 
BRANCH  10  15
ATOM     15  O   UNL     1       4.579  -0.146  -1.646  0.00  0.00    -0.470 OA
ATOM     16  C   UNL     1       5.625  -0.502  -2.547  0.00  0.00    +0.253 C 
ENDBRANCH  10  15
ENDBRANCH   3   9
ENDBRANCH   1   2
BRANCH   1  17
ATOM     17  C   UNL     1      -1.801   3.243  -0.084  0.00  0.00    +0.133 C 
BRANCH  17  18
ATOM     18  O   UNL     1      -2.707   4.070  -0.820  0.00  0.00    -0.383 OA
ATOM     19  H   UNL     1      -2.205   4.662  -1.402  0.00  0.00    +0.210 HD
ENDBRANCH  17  18
BRANCH  17  20
ATOM     20  C   UNL     1      -2.611   2.320   0.823  0.00  0.00    +0.232 C 
BRANCH  20  21
ATOM     21  O   UNL     1      -3.485   1.535   0.018  0.00  0.00    -0.473 OA
BRANCH  21  22
ATOM     22  C   UNL     1      -3.791   0.284   0.481  0.00  0.00    +0.139 C 
ATOM     23  C   UNL     1      -3.481  -0.864  -0.263  0.00  0.00    +0.034 C 
ATOM     24  C   UNL     1      -3.817  -2.136   0.258  0.00  0.00    +0.003 C 
ATOM     25  C   UNL     1      -4.422   0.185   1.720  0.00  0.00    +0.037 C 
ATOM     26  C   UNL     1      -2.845  -0.780  -1.513  0.00  0.00    +0.003 C 
ATOM     27  C   UNL     1      -4.453  -2.220   1.508  0.00  0.00    +0.000 C 
ATOM     28  C   UNL     1      -4.753  -1.066   2.233  0.00  0.00    +0.003 C 
ATOM     29  C   UNL     1      -3.508  -3.287  -0.485  0.00  0.00    +0.000 C 
ATOM     30  C   UNL     1      -2.545  -1.934  -2.238  0.00  0.00    +0.000 C 
ATOM     31  C   UNL     1      -2.876  -3.185  -1.725  0.00  0.00    +0.000 C 
ENDBRANCH  21  22
ENDBRANCH  20  21
ENDBRANCH  17  20
ENDBRANCH   1  17
TORSDOF 8
