REMARK  Name = 18376177
REMARK  11 active torsions:
REMARK  status: ('A' for Active; 'I' for Inactive)
REMARK    1  A    between atoms: N_1  and  S_2
REMARK    2  A    between atoms: N_1  and  C_11
REMARK    3  A    between atoms: N_1  and  C_23
REMARK    4  A    between atoms: S_2  and  C_6
REMARK    5  A    between atoms: C_11  and  C_12
REMARK    6  A    between atoms: C_15  and  N_18
REMARK    7  A    between atoms: C_23  and  C_24
REMARK    8  A    between atoms: C_27  and  O_30
REMARK    9  A    between atoms: O_30  and  C_31
REMARK   10  A    between atoms: C_31  and  C_33
REMARK   11  A    between atoms: C_33  and  O_34
REMARK                            x       y       z     vdW  Elec       q    Type
REMARK                         _______ _______ _______ _____ _____    ______ ____
ROOT
ATOM      1  N   UNL     1      -2.239  -0.292   0.402  0.00  0.00    -0.147 NA
ENDROOT
BRANCH   1   2
ATOM      2  S   UNL     1      -3.441   0.094   1.576  0.00  0.00    +0.065 S 
ATOM      3  O   UNL     1      -3.070   1.317   2.264  0.00  0.00    -0.153 OA
ATOM      4  O   UNL     1      -3.759  -1.092   2.350  0.00  0.00    -0.153 OA
BRANCH   2   6
ATOM      5  N   UNL     1      -6.409   2.106  -0.278  0.00  0.00    -0.241 NA
ATOM      6  C   UNL     1      -4.855   0.462   0.575  0.00  0.00    +0.141 C 
ATOM      7  C   UNL     1      -5.516  -0.539  -0.127  0.00  0.00    +0.023 C 
ATOM      8  C   UNL     1      -5.337   1.757   0.467  0.00  0.00    +0.119 C 
ATOM      9  C   UNL     1      -6.623  -0.220  -0.905  0.00  0.00    +0.022 C 
ATOM     10  C   UNL     1      -7.026   1.106  -0.947  0.00  0.00    +0.099 C 
ENDBRANCH   2   6
ENDBRANCH   1   2
BRANCH   1  11
ATOM     11  C   UNL     1      -1.877   0.752  -0.590  0.00  0.00    +0.122 C 
BRANCH  11  12
ATOM     12  C   UNL     1      -0.414   1.093  -0.550  0.00  0.00    -0.004 C 
ATOM     13  C   UNL     1       0.306   1.214  -1.738  0.00  0.00    -0.002 C 
ATOM     14  C   UNL     1       0.224   1.288   0.675  0.00  0.00    -0.002 C 
ATOM     15  C   UNL     1       2.303   1.723  -0.476  0.00  0.00    +0.074 C 
ATOM     16  C   UNL     1       1.665   1.529  -1.701  0.00  0.00    +0.016 C 
ATOM     17  C   UNL     1       1.582   1.603   0.712  0.00  0.00    +0.016 C 
BRANCH  15  18
ATOM     18  N   UNL     1       3.649   2.037  -0.440  0.00  0.00    -0.189 N 
ATOM     19  N   UNL     1       4.273   2.224   0.736  0.00  0.00    -0.172 NA
ATOM     20  C   UNL     1       4.462   2.183  -1.525  0.00  0.00    +0.091 C 
ATOM     21  C   UNL     1       5.704   2.488  -1.025  0.00  0.00    +0.040 C 
ATOM     22  C   UNL     1       5.529   2.500   0.371  0.00  0.00    +0.120 C 
ENDBRANCH  15  18
ENDBRANCH  11  12
ENDBRANCH   1  11
BRANCH   1  23
ATOM     23  C   UNL     1      -2.274  -1.647  -0.206  0.00  0.00    +0.123 C 
BRANCH  23  24
ATOM     24  C   UNL     1      -0.902  -2.148  -0.559  0.00  0.00    -0.001 C 
ATOM     25  C   UNL     1       0.148  -2.006   0.348  0.00  0.00    +0.034 C 
ATOM     26  C   UNL     1      -0.678  -2.756  -1.795  0.00  0.00    -0.003 C 
ATOM     27  C   UNL     1       1.421  -2.471   0.020  0.00  0.00    +0.139 C 
ATOM     28  C   UNL     1       0.595  -3.221  -2.123  0.00  0.00    +0.003 C 
ATOM     29  C   UNL     1       1.645  -3.079  -1.215  0.00  0.00    +0.037 C 
BRANCH  27  30
ATOM     30  O   UNL     1       2.446  -2.330   0.904  0.00  0.00    -0.464 OA
BRANCH  30  31
ATOM     31  C   UNL     1       3.758  -2.185   0.361  0.00  0.00    +0.314 C 
BRANCH  31  33
ATOM     32  O   UNL     1       4.238  -0.871   2.347  0.00  0.00    -0.246 OA
ATOM     33  C   UNL     1       4.607  -1.367   1.293  0.00  0.00    +0.359 C 
BRANCH  33  34
ATOM     34  O   UNL     1       5.865  -1.250   0.799  0.00  0.00    -0.478 OA
ATOM     35  H   UNL     1       6.088  -1.653  -0.017  0.00  0.00    +0.295 HD
ENDBRANCH  33  34
ENDBRANCH  31  33
ENDBRANCH  30  31
ENDBRANCH  27  30
ENDBRANCH  23  24
ENDBRANCH   1  23
TORSDOF 11
