REMARK  Name = 24756910
REMARK  12 active torsions:
REMARK  status: ('A' for Active; 'I' for Inactive)
REMARK    1  A    between atoms: N_1  and  C_13
REMARK    2  A    between atoms: C_4  and  O_23
REMARK    3  A    between atoms: C_7  and  O_21
REMARK    4  A    between atoms: C_16  and  C_19
REMARK    5  A    between atoms: O_23  and  C_24
REMARK    6  A    between atoms: C_24  and  C_25
REMARK    7  A    between atoms: C_25  and  C_26
REMARK    8  A    between atoms: C_26  and  C_27
REMARK    9  A    between atoms: C_27  and  C_28
REMARK   10  A    between atoms: C_28  and  C_29
REMARK   11  A    between atoms: C_29  and  C_32
REMARK   12  A    between atoms: N_31  and  O_34
REMARK                            x       y       z     vdW  Elec       q    Type
REMARK                         _______ _______ _______ _____ _____    ______ ____
ROOT
ATOM      1  N   UNL     1      -3.149   0.525  -0.710  0.00  0.00    -0.298 N 
ATOM      2  N   UNL     1      -1.173  -3.091  -0.320  0.00  0.00    -0.248 NA
ATOM      3  N   UNL     1      -3.072  -1.801  -1.054  0.00  0.00    -0.230 NA
ATOM      4  C   UNL     1       0.657   0.352   1.156  0.00  0.00    +0.169 C 
ATOM      5  C   UNL     1      -1.212  -0.722   0.050  0.00  0.00    +0.048 C 
ATOM      6  C   UNL     1      -0.592   0.437   0.548  0.00  0.00    +0.044 C 
ATOM      7  C   UNL     1       1.284  -0.885   1.265  0.00  0.00    +0.156 C 
ATOM      8  C   UNL     1      -0.589  -1.976   0.153  0.00  0.00    +0.066 C 
ATOM      9  C   UNL     1       0.660  -2.033   0.766  0.00  0.00    +0.112 C 
ATOM     10  C   UNL     1      -2.459  -0.705  -0.569  0.00  0.00    +0.131 C 
ATOM     11  C   UNL     1      -2.383  -2.943  -0.897  0.00  0.00    +0.252 C 
ATOM     12  H   UNL     1      -2.555   1.306  -0.796  0.00  0.00    +0.154 HD
ENDROOT
BRANCH   1  13
ATOM     13  C   UNL     1      -4.515   0.846  -0.752  0.00  0.00    +0.050 C 
ATOM     14  C   UNL     1      -5.437   0.061  -0.060  0.00  0.00    +0.023 C 
ATOM     15  C   UNL     1      -4.949   1.950  -1.485  0.00  0.00    +0.015 C 
ATOM     16  C   UNL     1      -6.795   0.380  -0.102  0.00  0.00    +0.044 C 
ATOM     17  C   UNL     1      -6.306   2.269  -1.527  0.00  0.00    +0.002 C 
ATOM     18  C   UNL     1      -7.229   1.484  -0.835  0.00  0.00    +0.008 C 
BRANCH  16  19
ATOM     19  C   UNL     1      -7.740  -0.424   0.607  0.00  0.00    -0.051 C 
ATOM     20  C   UNL     1      -8.535  -1.099   1.202  0.00  0.00    -0.009 C 
ENDBRANCH  16  19
ENDBRANCH   1  13
BRANCH   7  21
ATOM     21  O   UNL     1       2.507  -0.992   1.855  0.00  0.00    -0.472 OA
ATOM     22  C   UNL     1       3.080  -2.296   1.927  0.00  0.00    +0.252 C 
ENDBRANCH   7  21
BRANCH   4  23
ATOM     23  O   UNL     1       1.257   1.486   1.639  0.00  0.00    -0.473 OA
BRANCH  23  24
ATOM     24  C   UNL     1       1.524   2.519   0.700  0.00  0.00    +0.206 C 
BRANCH  24  25
ATOM     25  C   UNL     1       2.727   3.333   1.157  0.00  0.00    +0.047 C 
BRANCH  25  26
ATOM     26  C   UNL     1       3.980   2.468   1.279  0.00  0.00    +0.004 C 
BRANCH  26  27
ATOM     27  C   UNL     1       4.369   1.861  -0.070  0.00  0.00    +0.001 C 
BRANCH  27  28
ATOM     28  C   UNL     1       5.642   1.022   0.044  0.00  0.00    +0.010 C 
BRANCH  28  29
ATOM     29  C   UNL     1       6.011   0.389  -1.295  0.00  0.00    +0.087 C 
BRANCH  29  32
ATOM     30  O   UNL     1       7.179  -1.662  -0.862  0.00  0.00    -0.273 OA
ATOM     31  N   UNL     1       8.410   0.225  -1.388  0.00  0.00    -0.197 N 
ATOM     32  C   UNL     1       7.249  -0.472  -1.162  0.00  0.00    +0.244 C 
ATOM     33  H   UNL     1       8.407   1.180  -1.626  0.00  0.00    +0.182 HD
BRANCH  31  34
ATOM     34  O   UNL     1       9.598  -0.506  -1.260  0.00  0.00    -0.295 OA
ATOM     35  H   UNL     1      10.355   0.073  -1.439  0.00  0.00    +0.241 HD
ENDBRANCH  31  34
ENDBRANCH  29  32
ENDBRANCH  28  29
ENDBRANCH  27  28
ENDBRANCH  26  27
ENDBRANCH  25  26
ENDBRANCH  24  25
ENDBRANCH  23  24
ENDBRANCH   4  23
TORSDOF 12
