REMARK  Name = 23087
REMARK  6 active torsions:
REMARK  status: ('A' for Active; 'I' for Inactive)
REMARK    1  A    between atoms: C_2  and  C_3
REMARK    2  A    between atoms: C_2  and  O_7
REMARK    3  A    between atoms: C_3  and  C_6
REMARK    4  A    between atoms: O_7  and  C_8
REMARK    5  A    between atoms: C_8  and  C_9
REMARK    6  A    between atoms: C_9  and  C_10
REMARK                            x       y       z     vdW  Elec       q    Type
REMARK                         _______ _______ _______ _____ _____    ______ ____
ROOT
ATOM      1  O   UNL     1      -1.016   2.127   0.003  0.00  0.00    -0.244 OA
ATOM      2  C   UNL     1      -1.052   0.905   0.000  0.00  0.00    +0.351 C 
ENDROOT
BRANCH   2   3
ATOM      3  C   UNL     1      -2.303   0.097   0.004  0.00  0.00    +0.144 C 
ATOM      4  C   UNL     1      -3.471   0.754   0.014  0.00  0.00    +0.018 C 
BRANCH   3   6
ATOM      5  N   UNL     1      -2.267  -2.488  -0.003  0.00  0.00    -0.191 NA
ATOM      6  C   UNL     1      -2.284  -1.327  -0.001  0.00  0.00    +0.107 C 
ENDBRANCH   3   6
ENDBRANCH   2   3
BRANCH   2   7
ATOM      7  O   UNL     1       0.037   0.079  -0.008  0.00  0.00    -0.445 OA
BRANCH   7   8
ATOM      8  C   UNL     1       1.306   0.719  -0.011  0.00  0.00    +0.209 C 
BRANCH   8   9
ATOM      9  C   UNL     1       2.393  -0.346  -0.019  0.00  0.00    +0.047 C 
BRANCH   9  10
ATOM     10  C   UNL     1       3.788   0.273  -0.007  0.00  0.00    +0.004 C 
ATOM     11  C   UNL     1       4.870  -0.793   0.029  0.00  0.00    +0.000 C 
ENDBRANCH   9  10
ENDBRANCH   8   9
ENDBRANCH   7   8
ENDBRANCH   2   7
TORSDOF 6
