REMARK  Name = 5280492
REMARK  17 active torsions:
REMARK  status: ('A' for Active; 'I' for Inactive)
REMARK    1  A    between atoms: C_1  and  C_4
REMARK    2  A    between atoms: C_2  and  C_16
REMARK    3  A    between atoms: C_3  and  C_5
REMARK    4  A    between atoms: C_5  and  O_6
REMARK    5  A    between atoms: C_5  and  C_8
REMARK    6  A    between atoms: C_8  and  C_9
REMARK    7  A    between atoms: C_9  and  C_10
REMARK    8  A    between atoms: C_10  and  C_12
REMARK    9  A    between atoms: C_12  and  O_13
REMARK   10  A    between atoms: C_15  and  C_17
REMARK   11  A    between atoms: C_17  and  O_18
REMARK   12  A    between atoms: C_17  and  C_20
REMARK   13  A    between atoms: C_20  and  C_22
REMARK   14  A    between atoms: C_21  and  C_23
REMARK   15  A    between atoms: C_23  and  C_24
REMARK   16  A    between atoms: C_24  and  C_25
REMARK   17  A    between atoms: C_25  and  C_26
REMARK                            x       y       z     vdW  Elec       q    Type
REMARK                         _______ _______ _______ _____ _____    ______ ____
ROOT
ATOM      1  C   UNL     1       2.089   2.149   0.373  0.00  0.00    -0.000 C 
ATOM      2  C   UNL     1       0.906   2.608   0.810  0.00  0.00    -0.000 C 
ENDROOT
BRANCH   1   4
ATOM      3  C   UNL     1       4.490   1.788   0.715  0.00  0.00    +0.003 C 
ATOM      4  C   UNL     1       3.306   2.246   1.150  0.00  0.00    -0.002 C 
BRANCH   3   5
ATOM      5  C   UNL     1       4.783   1.115  -0.600  0.00  0.00    +0.132 C 
BRANCH   5   6
ATOM      6  O   UNL     1       6.087   1.549  -0.998  0.00  0.00    -0.380 OA
ATOM      7  H   UNL     1       6.320   1.139  -1.845  0.00  0.00    +0.211 HD
ENDBRANCH   5   6
BRANCH   5   8
ATOM      8  C   UNL     1       4.759  -0.421  -0.663  0.00  0.00    +0.034 C 
BRANCH   8   9
ATOM      9  C   UNL     1       3.395  -1.018  -0.297  0.00  0.00    +0.014 C 
BRANCH   9  10
ATOM     10  C   UNL     1       3.387  -2.546  -0.379  0.00  0.00    +0.109 C 
BRANCH  10  12
ATOM     11  O   UNL     1       1.088  -2.544   0.426  0.00  0.00    -0.250 OA
ATOM     12  C   UNL     1       2.082  -3.162   0.071  0.00  0.00    +0.314 C 
BRANCH  12  13
ATOM     13  O   UNL     1       2.144  -4.520   0.060  0.00  0.00    -0.480 OA
ATOM     14  H   UNL     1       2.927  -4.951  -0.220  0.00  0.00    +0.295 HD
ENDBRANCH  12  13
ENDBRANCH  10  12
ENDBRANCH   9  10
ENDBRANCH   8   9
ENDBRANCH   5   8
ENDBRANCH   3   5
ENDBRANCH   1   4
BRANCH   2  16
ATOM     15  C   UNL     1      -1.499   2.947   0.471  0.00  0.00    +0.003 C 
ATOM     16  C   UNL     1      -0.313   2.492   0.042  0.00  0.00    -0.002 C 
BRANCH  15  17
ATOM     17  C   UNL     1      -2.773   2.798  -0.312  0.00  0.00    +0.137 C 
BRANCH  17  18
ATOM     18  O   UNL     1      -3.232   4.110  -0.638  0.00  0.00    -0.380 OA
ATOM     19  H   UNL     1      -4.057   4.047  -1.146  0.00  0.00    +0.211 HD
ENDBRANCH  17  18
BRANCH  17  20
ATOM     20  C   UNL     1      -3.869   2.074   0.485  0.00  0.00    +0.059 C 
BRANCH  20  22
ATOM     21  C   UNL     1      -5.070   0.365  -0.904  0.00  0.00    -0.031 C 
ATOM     22  C   UNL     1      -4.999   1.598  -0.382  0.00  0.00    -0.028 C 
BRANCH  21  23
ATOM     23  C   UNL     1      -4.026  -0.692  -0.686  0.00  0.00    +0.026 C 
BRANCH  23  24
ATOM     24  C   UNL     1      -4.355  -1.644   0.470  0.00  0.00    +0.005 C 
BRANCH  24  25
ATOM     25  C   UNL     1      -3.283  -2.681   0.827  0.00  0.00    +0.000 C 
BRANCH  25  26
ATOM     26  C   UNL     1      -3.015  -3.749  -0.236  0.00  0.00    +0.000 C 
ATOM     27  C   UNL     1      -2.079  -4.862   0.198  0.00  0.00    +0.000 C 
ENDBRANCH  25  26
ENDBRANCH  24  25
ENDBRANCH  23  24
ENDBRANCH  21  23
ENDBRANCH  20  22
ENDBRANCH  17  20
ENDBRANCH  15  17
ENDBRANCH   2  16
TORSDOF 17
