4942
  -OEChem-10051722433D

 56 58  0     0  0  0  0  0  0999 V2000
   -1.2558    0.2202    0.5202 O   0  0  0  0  0  0  0  0  0  0  0  0
    1.2014    0.6998    1.4494 O   0  0  0  0  0  0  0  0  0  0  0  0
   -0.3213    1.2018   -1.3378 O   0  0  0  0  0  0  0  0  0  0  0  0
   -5.2765   -0.0254   -0.6170 N   0  0  0  0  0  0  0  0  0  0  0  0
   -2.5384    0.6835    0.1177 C   0  0  0  0  0  0  0  0  0  0  0  0
   -2.8919    0.1154   -1.2539 C   0  0  0  0  0  0  0  0  0  0  0  0
   -3.5712    0.2471    1.1519 C   0  0  0  0  0  0  0  0  0  0  0  0
   -4.3326    0.4497   -1.6388 C   0  0  0  0  0  0  0  0  0  0  0  0
   -4.9913    0.5769    0.6932 C   0  0  0  0  0  0  0  0  0  0  0  0
    1.1028   -0.0419    0.2164 C   0  0  0  0  0  0  0  0  0  0  0  0
   -6.6535    0.2580   -1.0214 C   0  0  0  0  0  0  0  0  0  0  0  0
   -0.2086    0.5502   -0.3062 C   0  0  0  0  0  0  0  0  0  0  0  0
    2.3142    0.2469   -0.6734 C   0  0  0  0  0  0  0  0  0  0  0  0
    0.9949   -1.5373    0.5228 C   0  0  0  0  0  0  0  0  0  0  0  0
    1.2482    2.0896    1.1954 C   0  0  0  0  0  0  0  0  0  0  0  0
    2.1496    0.2191   -2.0390 C   0  0  0  0  0  0  0  0  0  0  0  0
    1.6341   -2.0289    1.6376 C   0  0  0  0  0  0  0  0  0  0  0  0
    3.5210    0.5235   -0.0734 C   0  0  0  0  0  0  0  0  0  0  0  0
    0.2623   -2.3329   -0.3278 C   0  0  0  0  0  0  0  0  0  0  0  0
    1.3517    2.8284    2.5209 C   0  0  0  0  0  0  0  0  0  0  0  0
    3.2535    0.4824   -2.8500 C   0  0  0  0  0  0  0  0  0  0  0  0
    1.5356   -3.3919    1.9173 C   0  0  0  0  0  0  0  0  0  0  0  0
    4.6249    0.7869   -0.8845 C   0  0  0  0  0  0  0  0  0  0  0  0
    0.1638   -3.6958   -0.0480 C   0  0  0  0  0  0  0  0  0  0  0  0
    4.4910    0.7664   -2.2728 C   0  0  0  0  0  0  0  0  0  0  0  0
    0.8005   -4.2253    1.0745 C   0  0  0  0  0  0  0  0  0  0  0  0
    1.3917    4.3336    2.3269 C   0  0  0  0  0  0  0  0  0  0  0  0
   -2.5217    1.7810    0.0790 H   0  0  0  0  0  0  0  0  0  0  0  0
   -2.7525   -0.9743   -1.2472 H   0  0  0  0  0  0  0  0  0  0  0  0
   -2.2571    0.4855   -2.0609 H   0  0  0  0  0  0  0  0  0  0  0  0
   -3.3620    0.7338    2.1122 H   0  0  0  0  0  0  0  0  0  0  0  0
   -3.4768   -0.8310    1.3394 H   0  0  0  0  0  0  0  0  0  0  0  0
   -4.4323    1.5326   -1.7910 H   0  0  0  0  0  0  0  0  0  0  0  0
   -4.5521   -0.0359   -2.5976 H   0  0  0  0  0  0  0  0  0  0  0  0
   -5.1238    1.6663    0.6600 H   0  0  0  0  0  0  0  0  0  0  0  0
   -5.6913    0.1861    1.4416 H   0  0  0  0  0  0  0  0  0  0  0  0
   -7.3604   -0.1403   -0.2851 H   0  0  0  0  0  0  0  0  0  0  0  0
   -6.8836   -0.2327   -1.9736 H   0  0  0  0  0  0  0  0  0  0  0  0
   -6.8398    1.3323   -1.1328 H   0  0  0  0  0  0  0  0  0  0  0  0
    0.3317    2.4698    0.7328 H   0  0  0  0  0  0  0  0  0  0  0  0
    2.0882    2.4062    0.5731 H   0  0  0  0  0  0  0  0  0  0  0  0
    1.2220   -0.0596   -2.5258 H   0  0  0  0  0  0  0  0  0  0  0  0
    2.2187   -1.4002    2.3015 H   0  0  0  0  0  0  0  0  0  0  0  0
    3.6578    0.5209    1.0035 H   0  0  0  0  0  0  0  0  0  0  0  0
   -0.2284   -1.9444   -1.2142 H   0  0  0  0  0  0  0  0  0  0  0  0
    2.2513    2.4993    3.0548 H   0  0  0  0  0  0  0  0  0  0  0  0
    0.5038    2.5583    3.1619 H   0  0  0  0  0  0  0  0  0  0  0  0
    3.1534    0.4515   -3.9311 H   0  0  0  0  0  0  0  0  0  0  0  0
    2.0332   -3.8048    2.7899 H   0  0  0  0  0  0  0  0  0  0  0  0
    5.5902    1.0016   -0.4353 H   0  0  0  0  0  0  0  0  0  0  0  0
   -0.4058   -4.3455   -0.7061 H   0  0  0  0  0  0  0  0  0  0  0  0
    5.3517    0.9667   -2.9042 H   0  0  0  0  0  0  0  0  0  0  0  0
    0.7249   -5.2867    1.2914 H   0  0  0  0  0  0  0  0  0  0  0  0
    0.4837    4.6910    1.8308 H   0  0  0  0  0  0  0  0  0  0  0  0
    1.4692    4.8380    3.2952 H   0  0  0  0  0  0  0  0  0  0  0  0
    2.2541    4.6293    1.7210 H   0  0  0  0  0  0  0  0  0  0  0  0
  1  5  1  0  0  0  0
  1 12  1  0  0  0  0
  2 10  1  0  0  0  0
  2 15  1  0  0  0  0
  3 12  2  0  0  0  0
  4  8  1  0  0  0  0
  4  9  1  0  0  0  0
  4 11  1  0  0  0  0
  5  6  1  0  0  0  0
  5  7  1  0  0  0  0
  5 28  1  0  0  0  0
  6  8  1  0  0  0  0
  6 29  1  0  0  0  0
  6 30  1  0  0  0  0
  7  9  1  0  0  0  0
  7 31  1  0  0  0  0
  7 32  1  0  0  0  0
  8 33  1  0  0  0  0
  8 34  1  0  0  0  0
  9 35  1  0  0  0  0
  9 36  1  0  0  0  0
 10 12  1  0  0  0  0
 10 13  1  0  0  0  0
 10 14  1  0  0  0  0
 11 37  1  0  0  0  0
 11 38  1  0  0  0  0
 11 39  1  0  0  0  0
 13 16  2  0  0  0  0
 13 18  1  0  0  0  0
 14 17  2  0  0  0  0
 14 19  1  0  0  0  0
 15 20  1  0  0  0  0
 15 40  1  0  0  0  0
 15 41  1  0  0  0  0
 16 21  1  0  0  0  0
 16 42  1  0  0  0  0
 17 22  1  0  0  0  0
 17 43  1  0  0  0  0
 18 23  2  0  0  0  0
 18 44  1  0  0  0  0
 19 24  2  0  0  0  0
 19 45  1  0  0  0  0
 20 27  1  0  0  0  0
 20 46  1  0  0  0  0
 20 47  1  0  0  0  0
 21 25  2  0  0  0  0
 21 48  1  0  0  0  0
 22 26  2  0  0  0  0
 22 49  1  0  0  0  0
 23 25  1  0  0  0  0
 23 50  1  0  0  0  0
 24 26  1  0  0  0  0
 24 51  1  0  0  0  0
 25 52  1  0  0  0  0
 26 53  1  0  0  0  0
 27 54  1  0  0  0  0
 27 55  1  0  0  0  0
 27 56  1  0  0  0  0
M  END
> <DATABASE_ID>
DB12278

> <DATABASE_NAME>
drugbank

> <ORIGINAL_SOURCE>
PUBCHEM

> <ORIGINAL_SOURCE_URL>
https://pubchem.ncbi.nlm.nih.gov/rest/pug/compound/inchikey/QPCVHQBVMYCJOM-UHFFFAOYSA-N/SDF?record_type=3d

> <SMILES>
CCCOC(C(=O)OC1CCN(C)CC1)(C1=CC=CC=C1)C1=CC=CC=C1

> <INCHI_IDENTIFIER>
InChI=1S/C23H29NO3/c1-3-18-26-23(19-10-6-4-7-11-19,20-12-8-5-9-13-20)22(25)27-21-14-16-24(2)17-15-21/h4-13,21H,3,14-18H2,1-2H3

> <INCHI_KEY>
QPCVHQBVMYCJOM-UHFFFAOYSA-N

> <FORMULA>
C23H29NO3

> <MOLECULAR_WEIGHT>
367.4813

> <EXACT_MASS>
367.214743799

> <JCHEM_ACCEPTOR_COUNT>
3

> <JCHEM_AVERAGE_POLARIZABILITY>
41.87568619320862

> <JCHEM_BIOAVAILABILITY>
1

> <JCHEM_DONOR_COUNT>
0

> <JCHEM_FORMAL_CHARGE>
0

> <JCHEM_GHOSE_FILTER>
1

> <JCHEM_IUPAC>
1-methylpiperidin-4-yl 2,2-diphenyl-2-propoxyacetate

> <ALOGPS_LOGP>
4.16

> <JCHEM_LOGP>
4.252704124333333

> <ALOGPS_LOGS>
-4.76

> <JCHEM_MDDR_LIKE_RULE>
1

> <JCHEM_NUMBER_OF_RINGS>
3

> <JCHEM_PHYSIOLOGICAL_CHARGE>
1

> <JCHEM_PKA_STRONGEST_BASIC>
8.716974622220402

> <JCHEM_POLAR_SURFACE_AREA>
38.77

> <JCHEM_REFRACTIVITY>
107.72609999999999

> <JCHEM_ROTATABLE_BOND_COUNT>
8

> <JCHEM_RULE_OF_FIVE>
1

> <ALOGPS_SOLUBILITY>
6.35e-03 g/l

> <JCHEM_TRADITIONAL_IUPAC>
detrunorm

> <JCHEM_VEBER_RULE>
1

> <DRUGBANK_ID>
DB12278

> <DRUG_GROUPS>
approved; investigational

> <GENERIC_NAME>
Propiverine

> <SYNONYMS>
Propiverina; Propiverine

> <PRODUCTS>
Mictoryl; Mictoryl Pediatric

> <SALTS>
Propiverine hydrochloride

$$$$
