REMARK  Name = 3045
REMARK  4 active torsions:
REMARK  status: ('A' for Active; 'I' for Inactive)
REMARK    1  A    between atoms: C_1  and  C_9
REMARK    2  A    between atoms: C_4  and  O_13
REMARK    3  A    between atoms: C_5  and  O_15
REMARK    4  A    between atoms: N_8  and  O_11
REMARK                            x       y       z     vdW  Elec       q    Type
REMARK                         _______ _______ _______ _____ _____    ______ ____
ROOT
ATOM      1  C   UNL     1       0.519   0.019  -0.071  0.00  0.00    +0.059 C 
ATOM      2  C   UNL     1      -0.406   1.052   0.073  0.00  0.00    +0.044 C 
ATOM      3  C   UNL     1       0.080  -1.300  -0.187  0.00  0.00    +0.008 C 
ATOM      4  C   UNL     1      -1.772   0.767   0.101  0.00  0.00    +0.168 C 
ATOM      5  C   UNL     1      -2.211  -0.552  -0.015  0.00  0.00    +0.167 C 
ATOM      6  C   UNL     1      -1.285  -1.585  -0.159  0.00  0.00    +0.040 C 
ENDROOT
BRANCH   1   9
ATOM      7  O   UNL     1       2.354   1.419  -0.504  0.00  0.00    -0.268 OA
ATOM      8  N   UNL     1       2.807  -0.683   0.326  0.00  0.00    -0.193 N 
ATOM      9  C   UNL     1       1.943   0.316  -0.100  0.00  0.00    +0.268 C 
ATOM     10  H   UNL     1       2.473  -1.553   0.644  0.00  0.00    +0.183 HD
BRANCH   8  11
ATOM     11  O   UNL     1       4.178  -0.394   0.282  0.00  0.00    -0.295 OA
ATOM     12  H   UNL     1       4.681  -1.160   0.601  0.00  0.00    +0.241 HD
ENDBRANCH   8  11
ENDBRANCH   1   9
BRANCH   4  13
ATOM     13  O   UNL     1      -2.666   1.784   0.243  0.00  0.00    -0.503 OA
ATOM     14  H   UNL     1      -2.362   2.668   0.320  0.00  0.00    +0.292 HD
ENDBRANCH   4  13
BRANCH   5  15
ATOM     15  O   UNL     1      -3.541  -0.844   0.011  0.00  0.00    -0.503 OA
ATOM     16  H   UNL     1      -4.170  -0.156   0.108  0.00  0.00    +0.292 HD
ENDBRANCH   5  15
TORSDOF 4
