REMARK  Name = 9794485
REMARK  5 active torsions:
REMARK  status: ('A' for Active; 'I' for Inactive)
REMARK    1  A    between atoms: C_1  and  C_8
REMARK    2  A    between atoms: C_1  and  C_13
REMARK    3  A    between atoms: C_8  and  C_10
REMARK    4  A    between atoms: C_10  and  O_11
REMARK    5  A    between atoms: C_13  and  N_14
REMARK                            x       y       z     vdW  Elec       q    Type
REMARK                         _______ _______ _______ _____ _____    ______ ____
ROOT
ATOM      1  C   UNL     1      -0.182  -0.392   0.104  0.00  0.00    -0.009 C 
ATOM      2  C   UNL     1       1.975   0.683   0.536  0.00  0.00    -0.000 C 
ATOM      3  C   UNL     1       2.124  -0.207  -0.702  0.00  0.00    -0.000 C 
ATOM      4  C   UNL     1       0.464   0.930   0.582  0.00  0.00    -0.002 C 
ATOM      5  C   UNL     1       0.972  -1.203  -0.533  0.00  0.00    -0.002 C 
ATOM      6  C   UNL     1       2.774   1.975   0.469  0.00  0.00    -0.000 C 
ATOM      7  C   UNL     1       3.476  -0.894  -0.812  0.00  0.00    -0.000 C 
ENDROOT
BRANCH   1   8
ATOM      8  C   UNL     1      -1.283  -0.107  -0.926  0.00  0.00    +0.107 C 
BRANCH   8  10
ATOM      9  O   UNL     1      -2.266   1.586   0.523  0.00  0.00    -0.250 OA
ATOM     10  C   UNL     1      -2.366   0.749  -0.362  0.00  0.00    +0.314 C 
BRANCH  10  11
ATOM     11  O   UNL     1      -3.530   0.456  -0.997  0.00  0.00    -0.480 OA
ATOM     12  H   UNL     1      -3.546  -0.196  -1.669  0.00  0.00    +0.295 HD
ENDBRANCH  10  11
ENDBRANCH   8  10
ENDBRANCH   1   8
BRANCH   1  13
ATOM     13  C   UNL     1      -0.787  -1.162   1.285  0.00  0.00    -0.085 C 
BRANCH  13  14
ATOM     14  N   UNL     1      -1.371  -2.413   0.834  0.00  0.00    +0.380 N 
ATOM     15  H   UNL     1      -1.768  -2.910   1.632  0.00  0.00    -0.089 HD
ATOM     16  H   UNL     1      -0.650  -2.989   0.400  0.00  0.00    -0.089 HD
ATOM     17  H   UNL     1      -2.107  -2.220   0.155  0.00  0.00    -0.089 HD
ENDBRANCH  13  14
ENDBRANCH   1  13
TORSDOF 5
