REMARK  Name = 54556623
REMARK  5 active torsions:
REMARK  status: ('A' for Active; 'I' for Inactive)
REMARK    1  A    between atoms: N_3  and  C_26
REMARK    2  A    between atoms: C_11  and  C_30
REMARK    3  A    between atoms: N_15  and  C_20
REMARK    4  A    between atoms: N_15  and  O_24
REMARK    5  A    between atoms: C_30  and  O_31
REMARK                            x       y       z     vdW  Elec       q    Type
REMARK                         _______ _______ _______ _____ _____    ______ ____
ROOT
ATOM      1  F   UNL     1      -1.137  -2.727   0.194  0.00  0.00    -0.200 F 
ATOM      2  O   UNL     1       3.923  -2.578   0.165  0.00  0.00    -0.290 OA
ATOM      3  N   UNL     1       2.671   1.275  -0.173  0.00  0.00    -0.266 N 
ATOM      4  N   UNL     1       0.357   0.572  -0.106  0.00  0.00    -0.373 NA
ATOM      5  C   UNL     1      -0.543  -0.434  -0.012  0.00  0.00    +0.216 C 
ATOM      6  C   UNL     1       1.678   0.256  -0.082  0.00  0.00    +0.177 C 
ATOM      7  C   UNL     1       2.096  -1.080   0.033  0.00  0.00    +0.153 C 
ATOM      8  C   UNL     1      -0.205  -1.769   0.106  0.00  0.00    +0.181 C 
ATOM      9  C   UNL     1       4.010   0.945  -0.183  0.00  0.00    +0.076 C 
ATOM     10  C   UNL     1       1.143  -2.096   0.128  0.00  0.00    +0.023 C 
ATOM     11  C   UNL     1       4.504  -0.295  -0.080  0.00  0.00    +0.126 C 
ATOM     12  C   UNL     1       3.542  -1.420   0.051  0.00  0.00    +0.192 C 
ATOM     13  N   UNL     1      -5.639   2.397  -0.238  0.00  0.00    +0.384 N 
ATOM     14  N   UNL     1      -1.892  -0.118  -0.035  0.00  0.00    -0.258 N 
ATOM     15  C   UNL     1      -3.916   1.182  -0.145  0.00  0.00    +0.019 C 
ATOM     16  C   UNL     1      -4.636   2.160   0.819  0.00  0.00    -0.076 C 
ATOM     17  C   UNL     1      -4.653   1.978  -1.253  0.00  0.00    -0.076 C 
ATOM     18  C   UNL     1      -2.384   1.263  -0.164  0.00  0.00    +0.100 C 
ATOM     19  C   UNL     1      -4.203  -0.340  -0.007  0.00  0.00    +0.097 C 
ATOM     20  C   UNL     1      -2.937  -1.136   0.060  0.00  0.00    +0.084 C 
ATOM     21  H   UNL     1      -5.937   3.369  -0.321  0.00  0.00    -0.084 HD
ATOM     22  H   UNL     1      -6.557   1.954  -0.192  0.00  0.00    -0.084 HD
ENDROOT
BRANCH   3  23
ATOM     23  C   UNL     1       2.265   2.686  -0.328  0.00  0.00    +0.079 C 
ATOM     24  C   UNL     1       2.755   3.747   0.614  0.00  0.00    +0.022 C 
ATOM     25  C   UNL     1       1.313   3.333   0.633  0.00  0.00    +0.022 C 
ENDBRANCH   3  23
BRANCH  11  27
ATOM     26  O   UNL     1       6.759   0.350   0.304  0.00  0.00    -0.245 OA
ATOM     27  C   UNL     1       5.956  -0.472  -0.102  0.00  0.00    +0.342 C 
BRANCH  27  28
ATOM     28  O   UNL     1       6.259  -1.674  -0.636  0.00  0.00    -0.477 OA
ATOM     29  H   UNL     1       5.574  -2.245  -0.923  0.00  0.00    +0.295 HD
ENDBRANCH  27  28
ENDBRANCH  11  27
BRANCH  19  30
ATOM     30  N   UNL     1      -5.372  -0.881   0.045  0.00  0.00    -0.134 NA
BRANCH  30  31
ATOM     31  O   UNL     1      -5.213  -2.268   0.168  0.00  0.00    -0.234 OA
ATOM     32  C   UNL     1      -6.504  -2.857   0.225  0.00  0.00    +0.211 C 
ENDBRANCH  30  31
ENDBRANCH  19  30
TORSDOF 5
