REMARK  Name = 5284380
REMARK  9 active torsions:
REMARK  status: ('A' for Active; 'I' for Inactive)
REMARK    1  A    between atoms: C_1  and  O_2
REMARK    2  A    between atoms: C_1  and  C_4
REMARK    3  A    between atoms: C_1  and  C_12
REMARK    4  A    between atoms: C_4  and  O_5
REMARK    5  A    between atoms: C_4  and  C_7
REMARK    6  A    between atoms: C_7  and  C_9
REMARK    7  A    between atoms: C_7  and  O_10
REMARK    8  A    between atoms: C_12  and  C_14
REMARK    9  A    between atoms: C_12  and  O_15
REMARK                            x       y       z     vdW  Elec       q    Type
REMARK                         _______ _______ _______ _____ _____    ______ ____
ROOT
ATOM      1  C   UNL     1      -0.605  -0.456   0.112  0.00  0.00    +0.167 C 
ENDROOT
BRANCH   1   2
ATOM      2  O   UNL     1      -0.627  -1.518  -0.848  0.00  0.00    -0.379 OA
ATOM      3  H   UNL     1       0.232  -1.969  -0.852  0.00  0.00    +0.211 HD
ENDBRANCH   1   2
BRANCH   1   4
ATOM      4  C   UNL     1       0.616   0.438  -0.191  0.00  0.00    +0.167 C 
BRANCH   4   5
ATOM      5  O   UNL     1       0.615   1.558   0.704  0.00  0.00    -0.379 OA
ATOM      6  H   UNL     1      -0.244   2.005   0.661  0.00  0.00    +0.211 HD
ENDBRANCH   4   5
BRANCH   4   7
ATOM      7  C   UNL     1       1.990  -0.250  -0.101  0.00  0.00    +0.151 C 
BRANCH   7   9
ATOM      8 BR   UNL     1       4.843  -0.292  -0.279  0.00  0.00    -0.078 Br
ATOM      9  C   UNL     1       3.157   0.700  -0.332  0.00  0.00    +0.099 C 
ENDBRANCH   7   9
BRANCH   7  10
ATOM     10  O   UNL     1       2.093  -0.782   1.227  0.00  0.00    -0.381 OA
ATOM     11  H   UNL     1       1.355  -1.390   1.390  0.00  0.00    +0.210 HD
ENDBRANCH   7  10
ENDBRANCH   4   7
ENDBRANCH   1   4
BRANCH   1  12
ATOM     12  C   UNL     1      -1.975   0.250   0.107  0.00  0.00    +0.151 C 
BRANCH  12  14
ATOM     13 BR   UNL     1      -4.819   0.208   0.411  0.00  0.00    -0.078 Br
ATOM     14  C   UNL     1      -3.111  -0.741   0.344  0.00  0.00    +0.099 C 
ENDBRANCH  12  14
BRANCH  12  15
ATOM     15  O   UNL     1      -2.177   0.884  -1.155  0.00  0.00    -0.381 OA
ATOM     16  H   UNL     1      -1.460   1.517  -1.318  0.00  0.00    +0.210 HD
ENDBRANCH  12  15
ENDBRANCH   1  12
TORSDOF 9
