REMARK  Name = 72165228
REMARK  6 active torsions:
REMARK  status: ('A' for Active; 'I' for Inactive)
REMARK    1  A    between atoms: C_3  and  C_9
REMARK    2  A    between atoms: C_5  and  C_22
REMARK    3  A    between atoms: C_14  and  O_18
REMARK    4  A    between atoms: N_21  and  C_24
REMARK    5  A    between atoms: C_29  and  O_30
REMARK    6  A    between atoms: O_30  and  C_34
REMARK                            x       y       z     vdW  Elec       q    Type
REMARK                         _______ _______ _______ _____ _____    ______ ____
ROOT
ATOM      1  N   UNL     1       2.957  -2.234  -0.313  0.00  0.00    -0.229 NA
ATOM      2  C   UNL     1       3.431  -0.971  -0.214  0.00  0.00    +0.133 C 
ATOM      3  C   UNL     1       2.640   0.136   0.048  0.00  0.00    +0.047 C 
ATOM      4  C   UNL     1       1.275  -0.065   0.221  0.00  0.00    +0.010 C 
ATOM      5  C   UNL     1       0.750  -1.349   0.127  0.00  0.00    +0.073 C 
ATOM      6  C   UNL     1       1.625  -2.390  -0.140  0.00  0.00    +0.105 C 
ATOM      7  N   UNL     1       4.786  -0.788  -0.389  0.00  0.00    -0.291 N 
ATOM      8  C   UNL     1       7.099  -0.681   0.051  0.00  0.00    +0.132 C 
ATOM      9  C   UNL     1       6.856  -0.313  -1.405  0.00  0.00    +0.052 C 
ATOM     10  C   UNL     1       5.813  -1.400   0.457  0.00  0.00    +0.121 C 
ATOM     11  C   UNL     1       5.371   0.050  -1.432  0.00  0.00    +0.095 C 
ENDROOT
BRANCH   3  14
ATOM     12  N   UNL     1       4.121   1.827   1.065  0.00  0.00    -0.236 N 
ATOM     13  N   UNL     1       4.492   3.117   0.993  0.00  0.00    -0.180 NA
ATOM     14  C   UNL     1       3.178   1.473   0.145  0.00  0.00    +0.069 C 
ATOM     15  C   UNL     1       2.914   2.610  -0.579  0.00  0.00    +0.038 C 
ATOM     16  C   UNL     1       3.751   3.590  -0.013  0.00  0.00    +0.119 C 
ATOM     17  H   UNL     1       4.495   1.196   1.721  0.00  0.00    +0.174 HD
ENDBRANCH   3  14
BRANCH   5  20
ATOM     18  O   UNL     1      -1.050  -2.710   0.692  0.00  0.00    -0.270 OA
ATOM     19  N   UNL     1      -1.521  -0.523  -0.015  0.00  0.00    -0.280 N 
ATOM     20  C   UNL     1      -0.671  -1.593   0.302  0.00  0.00    +0.251 C 
ATOM     21  H   UNL     1      -1.076   0.303  -0.311  0.00  0.00    +0.155 HD
BRANCH  19  22
ATOM     22  C   UNL     1      -2.936  -0.475   0.034  0.00  0.00    +0.051 C 
ATOM     23  C   UNL     1      -3.658  -1.597   0.441  0.00  0.00    +0.018 C 
ATOM     24  C   UNL     1      -3.607   0.694  -0.325  0.00  0.00    +0.018 C 
ATOM     25  C   UNL     1      -5.051  -1.550   0.489  0.00  0.00    +0.038 C 
ATOM     26  C   UNL     1      -5.000   0.742  -0.277  0.00  0.00    +0.038 C 
ATOM     27  C   UNL     1      -5.723  -0.381   0.130  0.00  0.00    +0.145 C 
BRANCH  27  28
ATOM     28  O   UNL     1      -7.082  -0.335   0.178  0.00  0.00    -0.418 OA
BRANCH  28  32
ATOM     29 CL   UNL     1      -9.492   0.663  -0.055  0.00  0.00    +0.000 Cl
ATOM     30  F   UNL     1      -7.343   1.886   0.615  0.00  0.00    -0.149 F 
ATOM     31  F   UNL     1      -7.426   1.197  -1.473  0.00  0.00    -0.149 F 
ATOM     32  C   UNL     1      -7.743   0.875  -0.195  0.00  0.00    +0.489 C 
ENDBRANCH  28  32
ENDBRANCH  27  28
ENDBRANCH  19  22
ENDBRANCH   5  20
BRANCH   8  33
ATOM     33  O   UNL     1       7.247   0.496   0.837  0.00  0.00    -0.383 OA
ATOM     34  H   UNL     1       8.062   0.955   0.582  0.00  0.00    +0.210 HD
ENDBRANCH   8  33
TORSDOF 6
