REMARK  Name = 451480
REMARK  3 active torsions:
REMARK  status: ('A' for Active; 'I' for Inactive)
REMARK    1  A    between atoms: N_4  and  C_13
REMARK    2  A    between atoms: C_16  and  C_17
REMARK    3  A    between atoms: C_17  and  O_18
REMARK                            x       y       z     vdW  Elec       q    Type
REMARK                         _______ _______ _______ _____ _____    ______ ____
ROOT
ATOM      1 CL   UNL     1       2.541  -2.768  -0.336  0.00  0.00    -0.076 Cl
ATOM      2  O   UNL     1       1.160   2.817   0.371  0.00  0.00    -0.252 OA
ATOM      3  O   UNL     1       4.383  -0.419  -0.198  0.00  0.00    -0.269 OA
ATOM      4  N   UNL     1       0.454   0.599   0.175  0.00  0.00    -0.218 N 
ATOM      5  N   UNL     1       2.756   1.192   0.088  0.00  0.00    -0.235 N 
ATOM      6  C   UNL     1       1.430   1.623   0.223  0.00  0.00    +0.315 C 
ATOM      7  C   UNL     1       0.844  -0.727   0.003  0.00  0.00    +0.087 C 
ATOM      8  C   UNL     1       2.114  -1.119  -0.125  0.00  0.00    +0.126 C 
ATOM      9  C   UNL     1       3.200  -0.112  -0.085  0.00  0.00    +0.265 C 
ATOM     10  H   UNL     1       3.450   1.891   0.119  0.00  0.00    +0.159 HD
ENDROOT
BRANCH   4  13
ATOM     11  F   UNL     1      -3.665   1.665  -0.086  0.00  0.00    -0.234 F 
ATOM     12  O   UNL     1      -1.603  -0.196   0.960  0.00  0.00    -0.334 OA
ATOM     13  C   UNL     1      -0.943   0.893   0.300  0.00  0.00    +0.202 C 
ATOM     14  C   UNL     1      -1.629   1.079  -1.042  0.00  0.00    +0.089 C 
ATOM     15  C   UNL     1      -3.035   0.640  -0.727  0.00  0.00    +0.195 C 
ATOM     16  C   UNL     1      -2.833  -0.488   0.268  0.00  0.00    +0.179 C 
BRANCH  16  17
ATOM     17  C   UNL     1      -2.684  -1.849  -0.397  0.00  0.00    +0.170 C 
BRANCH  17  18
ATOM     18  O   UNL     1      -2.491  -2.828   0.610  0.00  0.00    -0.379 OA
ATOM     19  H   UNL     1      -2.394  -3.701   0.198  0.00  0.00    +0.211 HD
ENDBRANCH  17  18
ENDBRANCH  16  17
ENDBRANCH   4  13
TORSDOF 3
