REMARK  Name = 46912230
REMARK  2 active torsions:
REMARK  status: ('A' for Active; 'I' for Inactive)
REMARK    1  A    between atoms: N_2  and  C_26
REMARK    2  A    between atoms: C_15  and  C_20
REMARK                            x       y       z     vdW  Elec       q    Type
REMARK                         _______ _______ _______ _____ _____    ______ ____
ROOT
ATOM      1  O   UNL     1      -4.099  -3.876  -0.109  0.00  0.00    -0.350 OA
ATOM      2  N   UNL     1      -0.951   2.762  -0.063  0.00  0.00    -0.240 N 
ATOM      3  N   UNL     1      -2.213  -1.801   0.091  0.00  0.00    -0.229 N 
ATOM      4  N   UNL     1      -1.800   0.488   0.015  0.00  0.00    -0.310 NA
ATOM      5  N   UNL     1       1.240   2.352  -0.061  0.00  0.00    -0.384 NA
ATOM      6  N   UNL     1       0.020  -1.137   0.059  0.00  0.00    -0.326 NA
ATOM      7  C   UNL     1      -0.821   1.403  -0.020  0.00  0.00    +0.235 C 
ATOM      8  C   UNL     1      -1.842  -3.086  -0.516  0.00  0.00    +0.135 C 
ATOM      9  C   UNL     1      -3.649  -1.500   0.087  0.00  0.00    +0.135 C 
ATOM     10  C   UNL     1       0.545   1.170  -0.019  0.00  0.00    +0.208 C 
ATOM     11  C   UNL     1      -1.281  -0.759   0.053  0.00  0.00    +0.204 C 
ATOM     12  C   UNL     1       0.314   3.287  -0.087  0.00  0.00    +0.166 C 
ATOM     13  C   UNL     1      -2.717  -4.197   0.052  0.00  0.00    +0.164 C 
ATOM     14  C   UNL     1      -4.428  -2.695   0.623  0.00  0.00    +0.164 C 
ATOM     15  C   UNL     1       0.956  -0.159   0.022  0.00  0.00    +0.178 C 
ATOM     16  C   UNL     1       0.557   4.744  -0.136  0.00  0.00    +0.084 C 
ENDROOT
BRANCH  15  20
ATOM     17  N   UNL     1       4.516  -0.455   1.057  0.00  0.00    -0.203 NA
ATOM     18  N   UNL     1       4.193  -1.685  -0.990  0.00  0.00    -0.181 NA
ATOM     19  N   UNL     1       6.299  -1.592   0.040  0.00  0.00    -0.303 N 
ATOM     20  C   UNL     1       2.342  -0.531   0.027  0.00  0.00    +0.056 C 
ATOM     21  C   UNL     1       3.208  -0.125   1.021  0.00  0.00    +0.168 C 
ATOM     22  C   UNL     1       2.895  -1.317  -0.963  0.00  0.00    +0.111 C 
ATOM     23  C   UNL     1       4.935  -1.226   0.035  0.00  0.00    +0.084 C 
ATOM     24  H   UNL     1       6.889  -1.284   0.765  0.00  0.00    +0.154 HD
ATOM     25  H   UNL     1       6.660  -2.155  -0.683  0.00  0.00    +0.154 HD
ENDBRANCH  15  20
BRANCH   2  26
ATOM     26  C   UNL     1      -2.193   3.499  -0.082  0.00  0.00    +0.082 C 
ATOM     27  C   UNL     1      -3.020   3.178  -1.329  0.00  0.00    +0.022 C 
ATOM     28  C   UNL     1      -3.009   3.259   1.191  0.00  0.00    +0.022 C 
ENDBRANCH   2  26
TORSDOF 2
