16102897
  -OEChem-10051722483D

 52 54  0     1  0  0  0  0  0999 V2000
    5.3881    2.7928   -0.1684 Cl  0  0  0  0  0  0  0  0  0  0  0  0
   -3.0056    2.9965    1.8876 F   0  0  0  0  0  0  0  0  0  0  0  0
   -3.1214    4.2073    0.0773 F   0  0  0  0  0  0  0  0  0  0  0  0
   -1.2746    3.1624    0.5742 F   0  0  0  0  0  0  0  0  0  0  0  0
   -0.0891   -2.8081   -2.1357 F   0  0  0  0  0  0  0  0  0  0  0  0
   -3.0929   -1.1630   -1.6595 O   0  0  0  0  0  0  0  0  0  0  0  0
   -2.8580    1.7048   -1.3794 O   0  0  0  0  0  0  0  0  0  0  0  0
    2.3796    1.5705   -1.5511 O   0  0  0  0  0  0  0  0  0  0  0  0
    1.9996    2.0922    0.6585 O   0  0  0  0  0  0  0  0  0  0  0  0
   -3.8120    0.9645    0.6082 N   0  0  0  0  0  0  0  0  0  0  0  0
   -2.7521   -2.0003    0.4853 N   0  0  0  0  0  0  0  0  0  0  0  0
   -4.3609   -0.2547    0.1014 C   0  0  0  0  0  0  0  0  0  0  0  0
   -5.5447   -0.8703    0.7879 C   0  0  0  0  0  0  0  0  0  0  0  0
   -5.7066   -0.2358   -0.5624 C   0  0  0  0  0  0  0  0  0  0  0  0
   -3.3356   -1.1841   -0.4585 C   0  0  0  0  0  0  0  0  0  0  0  0
   -3.0986    1.8516   -0.1842 C   0  0  0  0  0  0  0  0  0  0  0  0
   -1.7310   -2.9808    0.1573 C   0  0  1  0  0  0  0  0  0  0  0  0
   -0.3571   -2.4013    0.1876 C   0  0  0  0  0  0  0  0  0  0  0  0
   -2.6272    3.0496    0.5851 C   0  0  0  0  0  0  0  0  0  0  0  0
   -1.9000   -4.1992    1.0770 C   0  0  0  0  0  0  0  0  0  0  0  0
    0.4050   -2.3442   -0.9793 C   0  0  0  0  0  0  0  0  0  0  0  0
    0.1654   -1.9153    1.3862 C   0  0  0  0  0  0  0  0  0  0  0  0
    1.6895   -1.8013   -0.9475 C   0  0  0  0  0  0  0  0  0  0  0  0
    1.4500   -1.3726    1.4180 C   0  0  0  0  0  0  0  0  0  0  0  0
    2.2120   -1.3157    0.2511 C   0  0  0  0  0  0  0  0  0  0  0  0
    3.5444   -0.7526    0.2844 C   0  0  0  0  0  0  0  0  0  0  0  0
    3.7660    0.6063    0.0610 C   0  0  0  0  0  0  0  0  0  0  0  0
    4.6202   -1.6007    0.5472 C   0  0  0  0  0  0  0  0  0  0  0  0
    5.0635    1.1170    0.1004 C   0  0  0  0  0  0  0  0  0  0  0  0
    5.9177   -1.0901    0.5864 C   0  0  0  0  0  0  0  0  0  0  0  0
    6.1393    0.2689    0.3629 C   0  0  0  0  0  0  0  0  0  0  0  0
    2.6355    1.4931   -0.2124 C   0  0  0  0  0  0  0  0  0  0  0  0
    1.2918    2.4128   -1.9469 C   0  0  0  0  0  0  0  0  0  0  0  0
   -5.6249   -1.9497    0.8426 H   0  0  0  0  0  0  0  0  0  0  0  0
   -5.9767   -0.3557    1.6384 H   0  0  0  0  0  0  0  0  0  0  0  0
   -5.8875   -0.8926   -1.4050 H   0  0  0  0  0  0  0  0  0  0  0  0
   -6.2459    0.7029   -0.6137 H   0  0  0  0  0  0  0  0  0  0  0  0
   -3.9482    1.1732    1.5938 H   0  0  0  0  0  0  0  0  0  0  0  0
   -2.9994   -1.8766    1.4633 H   0  0  0  0  0  0  0  0  0  0  0  0
   -1.9527   -3.3309   -0.8590 H   0  0  0  0  0  0  0  0  0  0  0  0
   -1.7873   -3.9355    2.1345 H   0  0  0  0  0  0  0  0  0  0  0  0
   -1.1605   -4.9724    0.8414 H   0  0  0  0  0  0  0  0  0  0  0  0
   -2.8982   -4.6355    0.9569 H   0  0  0  0  0  0  0  0  0  0  0  0
   -0.4148   -1.9444    2.3045 H   0  0  0  0  0  0  0  0  0  0  0  0
    2.2695   -1.7636   -1.8665 H   0  0  0  0  0  0  0  0  0  0  0  0
    1.8414   -0.9964    2.3603 H   0  0  0  0  0  0  0  0  0  0  0  0
    4.4674   -2.6629    0.7240 H   0  0  0  0  0  0  0  0  0  0  0  0
    6.7553   -1.7505    0.7910 H   0  0  0  0  0  0  0  0  0  0  0  0
    7.1566    0.6506    0.3974 H   0  0  0  0  0  0  0  0  0  0  0  0
    0.3538    2.0351   -1.5291 H   0  0  0  0  0  0  0  0  0  0  0  0
    1.4726    3.4422   -1.6235 H   0  0  0  0  0  0  0  0  0  0  0  0
    1.2250    2.3926   -3.0377 H   0  0  0  0  0  0  0  0  0  0  0  0
  1 29  1  0  0  0  0
  2 19  1  0  0  0  0
  3 19  1  0  0  0  0
  4 19  1  0  0  0  0
  5 21  1  0  0  0  0
  6 15  2  0  0  0  0
  7 16  2  0  0  0  0
  8 32  1  0  0  0  0
  8 33  1  0  0  0  0
  9 32  2  0  0  0  0
 10 12  1  0  0  0  0
 10 16  1  0  0  0  0
 10 38  1  0  0  0  0
 11 15  1  0  0  0  0
 11 17  1  0  0  0  0
 11 39  1  0  0  0  0
 12 13  1  0  0  0  0
 12 14  1  0  0  0  0
 12 15  1  0  0  0  0
 13 14  1  0  0  0  0
 13 34  1  0  0  0  0
 13 35  1  0  0  0  0
 14 36  1  0  0  0  0
 14 37  1  0  0  0  0
 16 19  1  0  0  0  0
 17 18  1  0  0  0  0
 17 20  1  0  0  0  0
 17 40  1  0  0  0  0
 18 21  2  0  0  0  0
 18 22  1  0  0  0  0
 20 41  1  0  0  0  0
 20 42  1  0  0  0  0
 20 43  1  0  0  0  0
 21 23  1  0  0  0  0
 22 24  2  0  0  0  0
 22 44  1  0  0  0  0
 23 25  2  0  0  0  0
 23 45  1  0  0  0  0
 24 25  1  0  0  0  0
 24 46  1  0  0  0  0
 25 26  1  0  0  0  0
 26 27  2  0  0  0  0
 26 28  1  0  0  0  0
 27 29  1  0  0  0  0
 27 32  1  0  0  0  0
 28 30  2  0  0  0  0
 28 47  1  0  0  0  0
 29 31  2  0  0  0  0
 30 31  1  0  0  0  0
 30 48  1  0  0  0  0
 31 49  1  0  0  0  0
 33 50  1  0  0  0  0
 33 51  1  0  0  0  0
 33 52  1  0  0  0  0
M  END
> <DATABASE_ID>
DB12563

> <DATABASE_NAME>
drugbank

> <ORIGINAL_SOURCE>
PUBCHEM

> <ORIGINAL_SOURCE_URL>
https://pubchem.ncbi.nlm.nih.gov/rest/pug/compound/inchikey/WZZIQHIQMWJNLU-LLVKDONJSA-N/SDF?record_type=3d

> <SMILES>
COC(=O)C1=C(Cl)C=CC=C1C1=CC=C([C@@H](C)NC(=O)C2(CC2)NC(=O)C(F)(F)F)C(F)=C1

> <INCHI_IDENTIFIER>
InChI=1S/C22H19ClF4N2O4/c1-11(28-19(31)21(8-9-21)29-20(32)22(25,26)27)13-7-6-12(10-16(13)24)14-4-3-5-15(23)17(14)18(30)33-2/h3-7,10-11H,8-9H2,1-2H3,(H,28,31)(H,29,32)/t11-/m1/s1

> <INCHI_KEY>
WZZIQHIQMWJNLU-LLVKDONJSA-N

> <FORMULA>
C22H19ClF4N2O4

> <MOLECULAR_WEIGHT>
486.85

> <EXACT_MASS>
486.0969475

> <JCHEM_ACCEPTOR_COUNT>
3

> <JCHEM_ATOM_COUNT>
52

> <JCHEM_AVERAGE_POLARIZABILITY>
43.43376014916092

> <JCHEM_BIOAVAILABILITY>
1

> <JCHEM_DONOR_COUNT>
2

> <JCHEM_FORMAL_CHARGE>
0

> <JCHEM_GHOSE_FILTER>
0

> <JCHEM_IUPAC>
methyl 3-chloro-3'-fluoro-4'-[(1R)-1-{[1-(2,2,2-trifluoroacetamido)cyclopropyl]formamido}ethyl]-[1,1'-biphenyl]-2-carboxylate

> <ALOGPS_LOGP>
4.04

> <JCHEM_LOGP>
4.452641902666667

> <ALOGPS_LOGS>
-6.47

> <JCHEM_MDDR_LIKE_RULE>
1

> <JCHEM_NUMBER_OF_RINGS>
3

> <JCHEM_PHYSIOLOGICAL_CHARGE>
-1

> <JCHEM_PKA>
11.947036660137481

> <JCHEM_PKA_STRONGEST_ACIDIC>
6.442925147601539

> <JCHEM_PKA_STRONGEST_BASIC>
-4.26431492712533

> <JCHEM_POLAR_SURFACE_AREA>
84.5

> <JCHEM_REFRACTIVITY>
111.6414

> <JCHEM_ROTATABLE_BOND_COUNT>
8

> <JCHEM_RULE_OF_FIVE>
1

> <ALOGPS_SOLUBILITY>
1.65e-04 g/l

> <JCHEM_TRADITIONAL_IUPAC>
methyl 3-chloro-3'-fluoro-4'-[(1R)-1-{[1-(2,2,2-trifluoroacetamido)cyclopropyl]formamido}ethyl]-[1,1'-biphenyl]-2-carboxylate

> <JCHEM_VEBER_RULE>
0

> <DRUGBANK_ID>
DB12563

> <DRUG_GROUPS>
investigational

> <GENERIC_NAME>
MK-0686

$$$$
