REMARK  Name = 5493470
REMARK  5 active torsions:
REMARK  status: ('A' for Active; 'I' for Inactive)
REMARK    1  A    between atoms: C_3  and  C_16
REMARK    2  A    between atoms: C_8  and  O_14
REMARK    3  A    between atoms: C_10  and  O_12
REMARK    4  A    between atoms: C_16  and  C_19
REMARK    5  A    between atoms: C_19  and  O_20
REMARK                            x       y       z     vdW  Elec       q    Type
REMARK                         _______ _______ _______ _____ _____    ______ ____
ROOT
ATOM      1  O   UNL     1       1.562  -0.940   0.300  0.00  0.00    -0.425 OA
ATOM      2  O   UNL     1       0.275  -2.784   0.141  0.00  0.00    -0.244 OA
ATOM      3  C   UNL     1       1.688   0.468   0.347  0.00  0.00    +0.136 C 
ATOM      4  C   UNL     1      -0.694   0.705   0.142  0.00  0.00    +0.015 C 
ATOM      5  C   UNL     1      -0.839  -0.685   0.094  0.00  0.00    +0.110 C 
ATOM      6  C   UNL     1       0.632   1.286   0.274  0.00  0.00    +0.034 C 
ATOM      7  C   UNL     1      -1.829   1.520   0.062  0.00  0.00    +0.037 C 
ATOM      8  C   UNL     1      -2.110  -1.256  -0.033  0.00  0.00    +0.143 C 
ATOM      9  C   UNL     1       0.351  -1.563   0.177  0.00  0.00    +0.348 C 
ATOM     10  C   UNL     1      -3.096   0.949  -0.065  0.00  0.00    +0.142 C 
ATOM     11  C   UNL     1      -3.236  -0.437  -0.112  0.00  0.00    +0.074 C 
ENDROOT
BRANCH  10  12
ATOM     12  O   UNL     1      -4.196   1.747  -0.142  0.00  0.00    -0.471 OA
ATOM     13  C   UNL     1      -5.461   1.098  -0.270  0.00  0.00    +0.252 C 
ENDBRANCH  10  12
BRANCH   8  14
ATOM     14  O   UNL     1      -2.311  -2.603  -0.086  0.00  0.00    -0.505 OA
ATOM     15  H   UNL     1      -1.580  -3.188  -0.036  0.00  0.00    +0.292 HD
ENDBRANCH   8  14
BRANCH   3  16
ATOM     16  C   UNL     1       3.097   0.947   0.483  0.00  0.00    +0.156 C 
ATOM     17  C   UNL     1       3.733   0.427   1.767  0.00  0.00    +0.020 C 
BRANCH  16  19
ATOM     18  O   UNL     1       3.394  -0.196  -1.645  0.00  0.00    -0.250 OA
ATOM     19  C   UNL     1       3.867   0.472  -0.735  0.00  0.00    +0.321 C 
BRANCH  19  20
ATOM     20  O   UNL     1       5.173   0.845  -0.698  0.00  0.00    -0.480 OA
ATOM     21  H   UNL     1       5.494   1.357   0.019  0.00  0.00    +0.295 HD
ENDBRANCH  19  20
ENDBRANCH  16  19
ENDBRANCH   3  16
TORSDOF 5
