REMARK  Name = 11256720
REMARK  3 active torsions:
REMARK  status: ('A' for Active; 'I' for Inactive)
REMARK    1  A    between atoms: C_2  and  N_11
REMARK    2  A    between atoms: C_6  and  S_19
REMARK    3  A    between atoms: S_19  and  C_22
REMARK                            x       y       z     vdW  Elec       q    Type
REMARK                         _______ _______ _______ _____ _____    ______ ____
ROOT
ATOM      1  N   UNL     1      -0.963  -0.476  -0.670  0.00  0.00    -0.245 NA
ATOM      2  C   UNL     1      -2.696   0.777   0.359  0.00  0.00    +0.120 C 
ATOM      3  C   UNL     1      -1.379   0.660  -0.080  0.00  0.00    +0.074 C 
ATOM      4  C   UNL     1      -0.515   1.758   0.115  0.00  0.00    -0.001 C 
ATOM      5  C   UNL     1      -3.162   1.941   0.975  0.00  0.00    -0.009 C 
ATOM      6  C   UNL     1       1.242   0.472  -0.935  0.00  0.00    +0.129 C 
ATOM      7  C   UNL     1       0.810   1.641  -0.326  0.00  0.00    +0.018 C 
ATOM      8  C   UNL     1      -0.984   2.929   0.735  0.00  0.00    +0.053 C 
ATOM      9  C   UNL     1      -2.305   3.018   1.164  0.00  0.00    -0.024 C 
ATOM     10  C   UNL     1       0.324  -0.548  -1.081  0.00  0.00    +0.117 C 
ENDROOT
BRANCH   2  11
ATOM     11  N   UNL     1      -3.591  -0.285   0.188  0.00  0.00    -0.270 NA
ATOM     12  N   UNL     1      -5.551  -2.355   0.037  0.00  0.00    +0.386 N 
ATOM     13  C   UNL     1      -3.691  -1.284   1.260  0.00  0.00    +0.049 C 
ATOM     14  C   UNL     1      -4.803  -0.092  -0.616  0.00  0.00    +0.049 C 
ATOM     15  C   UNL     1      -4.281  -2.588   0.724  0.00  0.00    -0.064 C 
ATOM     16  C   UNL     1      -5.355  -1.438  -1.085  0.00  0.00    -0.064 C 
ATOM     17  H   UNL     1      -6.219  -1.949   0.692  0.00  0.00    -0.084 HD
ATOM     18  H   UNL     1      -5.907  -3.243  -0.316  0.00  0.00    -0.084 HD
ENDBRANCH   2  11
BRANCH   6  19
ATOM     19  S   UNL     1       2.880   0.298  -1.494  0.00  0.00    +0.029 S 
ATOM     20  O   UNL     1       3.447   1.619  -1.745  0.00  0.00    -0.164 OA
ATOM     21  O   UNL     1       2.851  -0.687  -2.568  0.00  0.00    -0.164 OA
BRANCH  19  22
ATOM     22  C   UNL     1       3.862  -0.374  -0.177  0.00  0.00    +0.110 C 
ATOM     23  C   UNL     1       3.983  -1.745  -0.066  0.00  0.00    +0.019 C 
ATOM     24  C   UNL     1       4.481   0.491   0.704  0.00  0.00    +0.019 C 
ATOM     25  C   UNL     1       4.754  -2.273   0.970  0.00  0.00    +0.001 C 
ATOM     26  C   UNL     1       5.253  -0.038   1.739  0.00  0.00    +0.001 C 
ATOM     27  C   UNL     1       5.389  -1.420   1.872  0.00  0.00    +0.000 C 
ENDBRANCH  19  22
ENDBRANCH   6  19
TORSDOF 3
