REMARK  Name = 71743
REMARK  4 active torsions:
REMARK  status: ('A' for Active; 'I' for Inactive)
REMARK    1  A    between atoms: C_10  and  C_15
REMARK    2  A    between atoms: C_11  and  O_16
REMARK    3  A    between atoms: O_16  and  C_18
REMARK    4  A    between atoms: C_18  and  C_20
REMARK                            x       y       z     vdW  Elec       q    Type
REMARK                         _______ _______ _______ _____ _____    ______ ____
ROOT
ATOM      1  O   UNL     1       3.573   1.786   0.929  0.00  0.00    -0.272 OA
ATOM      2  N   UNL     1       3.100  -0.318  -0.014  0.00  0.00    -0.257 N 
ATOM      3  C   UNL     1       2.812  -2.737   0.476  0.00  0.00    +0.027 C 
ATOM      4  C   UNL     1       1.449  -2.754  -0.187  0.00  0.00    +0.029 C 
ATOM      5  C   UNL     1       3.675  -1.667  -0.170  0.00  0.00    +0.099 C 
ATOM      6  C   UNL     1       0.865  -1.368  -0.270  0.00  0.00    -0.005 C 
ATOM      7  C   UNL     1       1.667  -0.205  -0.193  0.00  0.00    +0.050 C 
ATOM      8  C   UNL     1      -0.524  -1.262  -0.471  0.00  0.00    +0.035 C 
ATOM      9  C   UNL     1       1.025   1.038  -0.337  0.00  0.00    +0.018 C 
ATOM     10  C   UNL     1       3.916   0.788   0.291  0.00  0.00    +0.260 C 
ATOM     11  C   UNL     1      -1.134  -0.019  -0.589  0.00  0.00    +0.149 C 
ATOM     12  C   UNL     1      -0.358   1.130  -0.525  0.00  0.00    +0.039 C 
ENDROOT
BRANCH  10  15
ATOM     13 CL   UNL     1       5.616   2.081  -1.272  0.00  0.00    -0.087 Cl
ATOM     14 CL   UNL     1       6.398   0.764   1.206  0.00  0.00    -0.087 Cl
ATOM     15  C   UNL     1       5.344   0.714  -0.200  0.00  0.00    +0.234 C 
ENDBRANCH  10  15
BRANCH  11  16
ATOM     16  O   UNL     1      -2.477   0.071  -0.778  0.00  0.00    -0.419 OA
BRANCH  16  18
ATOM     17  O   UNL     1      -2.752   0.157   1.526  0.00  0.00    -0.241 OA
ATOM     18  C   UNL     1      -3.246   0.159   0.402  0.00  0.00    +0.381 C 
BRANCH  18  20
ATOM     19  O   UNL     1      -5.492   0.341   1.178  0.00  0.00    -0.444 OA
ATOM     20  C   UNL     1      -4.679   0.252   0.117  0.00  0.00    +0.221 C 
ATOM     21  C   UNL     1      -5.333   0.264  -1.062  0.00  0.00    +0.047 C 
ATOM     22  C   UNL     1      -6.701   0.371  -0.716  0.00  0.00    +0.044 C 
ATOM     23  C   UNL     1      -6.745   0.415   0.658  0.00  0.00    +0.180 C 
ENDBRANCH  18  20
ENDBRANCH  16  18
ENDBRANCH  11  16
TORSDOF 4
