REMARK  Name = 46207733
REMARK  4 active torsions:
REMARK  status: ('A' for Active; 'I' for Inactive)
REMARK    1  A    between atoms: N_2  and  C_16
REMARK    2  A    between atoms: C_10  and  C_24
REMARK    3  A    between atoms: C_17  and  O_22
REMARK    4  A    between atoms: C_24  and  C_26
REMARK                            x       y       z     vdW  Elec       q    Type
REMARK                         _______ _______ _______ _____ _____    ______ ____
ROOT
ATOM      1  O   UNL     1      -1.781  -1.620   1.421  0.00  0.00    -0.274 OA
ATOM      2  N   UNL     1      -2.929  -0.035   0.160  0.00  0.00    -0.257 N 
ATOM      3  N   UNL     1      -1.811   1.881  -0.684  0.00  0.00    -0.252 NA
ATOM      4  C   UNL     1      -1.802  -0.569   0.787  0.00  0.00    +0.236 C 
ATOM      5  C   UNL     1      -2.868   1.155  -0.536  0.00  0.00    +0.222 C 
ATOM      6  C   UNL     1      -0.567   0.237   0.640  0.00  0.00    +0.138 C 
ATOM      7  C   UNL     1      -0.612   1.436  -0.090  0.00  0.00    +0.068 C 
ATOM      8  C   UNL     1       0.570   2.210  -0.232  0.00  0.00    +0.014 C 
ATOM      9  C   UNL     1       0.620  -0.202   1.227  0.00  0.00    -0.015 C 
ATOM     10  C   UNL     1       1.779   0.555   1.090  0.00  0.00    -0.021 C 
ATOM     11  C   UNL     1       1.772   1.757   0.368  0.00  0.00    -0.003 C 
ATOM     12  C   UNL     1       0.607   3.426  -0.950  0.00  0.00    +0.001 C 
ATOM     13  C   UNL     1       2.949   2.513   0.236  0.00  0.00    -0.000 C 
ATOM     14  C   UNL     1       1.785   4.165  -1.071  0.00  0.00    +0.000 C 
ATOM     15  C   UNL     1       2.955   3.709  -0.478  0.00  0.00    -0.000 C 
ENDROOT
BRANCH   2  16
ATOM     16  C   UNL     1      -4.187  -0.743   0.243  0.00  0.00    +0.104 C 
ATOM     17  C   UNL     1      -4.664  -1.161  -1.154  0.00  0.00    +0.129 C 
ATOM     18  C   UNL     1      -5.229   0.121   0.960  0.00  0.00    +0.022 C 
ATOM     19  C   UNL     1      -6.048  -1.811  -1.109  0.00  0.00    +0.031 C 
ATOM     20  C   UNL     1      -6.598  -0.550   0.999  0.00  0.00    +0.002 C 
ATOM     21  C   UNL     1      -7.070  -0.933  -0.400  0.00  0.00    +0.003 C 
BRANCH  17  22
ATOM     22  O   UNL     1      -3.737  -2.100  -1.697  0.00  0.00    -0.383 OA
ATOM     23  H   UNL     1      -2.854  -1.700  -1.732  0.00  0.00    +0.210 HD
ENDBRANCH  17  22
ENDBRANCH   2  16
BRANCH  10  24
ATOM     24  C   UNL     1       3.018   0.026   1.745  0.00  0.00    +0.054 C 
BRANCH  24  26
ATOM     25  N   UNL     1       5.754  -1.179  -0.589  0.00  0.00    -0.248 NA
ATOM     26  C   UNL     1       3.837  -0.882   0.854  0.00  0.00    +0.001 C 
ATOM     27  C   UNL     1       3.465  -2.206   0.646  0.00  0.00    -0.001 C 
ATOM     28  C   UNL     1       4.979  -0.421   0.220  0.00  0.00    +0.094 C 
ATOM     29  C   UNL     1       4.237  -3.017  -0.179  0.00  0.00    +0.014 C 
ATOM     30  C   UNL     1       5.362  -2.461  -0.767  0.00  0.00    +0.059 C 
ATOM     31  C   UNL     1       6.214  -3.302  -1.659  0.00  0.00    +0.052 C 
ENDBRANCH  24  26
ENDBRANCH  10  24
TORSDOF 4
