6918474
  -OEChem-10051722443D

 24 24  0     1  0  0  0  0  0999 V2000
   -1.9272    2.3117    1.1505 Cl  0  0  0  0  0  0  0  0  0  0  0  0
    0.3160    0.8652   -2.3059 O   0  0  0  0  0  0  0  0  0  0  0  0
    1.8717   -0.1897   -0.1721 O   0  0  0  0  0  0  0  0  0  0  0  0
    3.6693    0.4723    1.1044 O   0  0  0  0  0  0  0  0  0  0  0  0
    3.4425   -1.7057    0.4031 N   0  0  0  0  0  0  0  0  0  0  0  0
    0.0448    1.1942   -0.9389 C   0  0  1  0  0  0  0  0  0  0  0  0
   -1.0053    0.2737   -0.4061 C   0  0  0  0  0  0  0  0  0  0  0  0
    1.3583    1.1347   -0.1463 C   0  0  0  0  0  0  0  0  0  0  0  0
   -1.9372    0.6968    0.5415 C   0  0  0  0  0  0  0  0  0  0  0  0
   -1.0386   -1.0379   -0.8799 C   0  0  0  0  0  0  0  0  0  0  0  0
   -2.9025   -0.1916    1.0154 C   0  0  0  0  0  0  0  0  0  0  0  0
   -2.0039   -1.9263   -0.4059 C   0  0  0  0  0  0  0  0  0  0  0  0
   -2.9358   -1.5032    0.5417 C   0  0  0  0  0  0  0  0  0  0  0  0
    3.0478   -0.3942    0.4985 C   0  0  0  0  0  0  0  0  0  0  0  0
   -0.3154    2.2271   -0.9664 H   0  0  0  0  0  0  0  0  0  0  0  0
    2.0940    1.8053   -0.6062 H   0  0  0  0  0  0  0  0  0  0  0  0
    1.1897    1.4405    0.8930 H   0  0  0  0  0  0  0  0  0  0  0  0
   -0.3201   -1.4025   -1.6091 H   0  0  0  0  0  0  0  0  0  0  0  0
   -3.6357    0.1223    1.7540 H   0  0  0  0  0  0  0  0  0  0  0  0
   -2.0283   -2.9484   -0.7723 H   0  0  0  0  0  0  0  0  0  0  0  0
   -3.6868   -2.1953    0.9112 H   0  0  0  0  0  0  0  0  0  0  0  0
    0.9855    1.4908   -2.6318 H   0  0  0  0  0  0  0  0  0  0  0  0
    2.8928   -2.3866   -0.1101 H   0  0  0  0  0  0  0  0  0  0  0  0
    4.2954   -2.0344    0.8430 H   0  0  0  0  0  0  0  0  0  0  0  0
  1  9  1  0  0  0  0
  2  6  1  0  0  0  0
  2 22  1  0  0  0  0
  3  8  1  0  0  0  0
  3 14  1  0  0  0  0
  4 14  2  0  0  0  0
  5 14  1  0  0  0  0
  5 23  1  0  0  0  0
  5 24  1  0  0  0  0
  6  7  1  0  0  0  0
  6  8  1  0  0  0  0
  6 15  1  0  0  0  0
  7  9  1  0  0  0  0
  7 10  2  0  0  0  0
  8 16  1  0  0  0  0
  8 17  1  0  0  0  0
  9 11  2  0  0  0  0
 10 12  1  0  0  0  0
 10 18  1  0  0  0  0
 11 13  1  0  0  0  0
 11 19  1  0  0  0  0
 12 13  2  0  0  0  0
 12 20  1  0  0  0  0
 13 21  1  0  0  0  0
M  END
> <DATABASE_ID>
DB12338

> <DATABASE_NAME>
drugbank

> <ORIGINAL_SOURCE>
PUBCHEM

> <ORIGINAL_SOURCE_URL>
https://pubchem.ncbi.nlm.nih.gov/rest/pug/compound/inchikey/OLBWFRRUHYQABZ-MRVPVSSYSA-N/SDF?record_type=3d

> <SMILES>
NC(=O)OC[C@@H](O)C1=CC=CC=C1Cl

> <INCHI_IDENTIFIER>
InChI=1S/C9H10ClNO3/c10-7-4-2-1-3-6(7)8(12)5-14-9(11)13/h1-4,8,12H,5H2,(H2,11,13)/t8-/m1/s1

> <INCHI_KEY>
OLBWFRRUHYQABZ-MRVPVSSYSA-N

> <FORMULA>
C9H10ClNO3

> <MOLECULAR_WEIGHT>
215.63

> <EXACT_MASS>
215.0349209

> <JCHEM_ACCEPTOR_COUNT>
2

> <JCHEM_ATOM_COUNT>
24

> <JCHEM_AVERAGE_POLARIZABILITY>
20.381770078331616

> <JCHEM_BIOAVAILABILITY>
1

> <JCHEM_DONOR_COUNT>
2

> <JCHEM_FORMAL_CHARGE>
0

> <JCHEM_GHOSE_FILTER>
1

> <JCHEM_IUPAC>
(2S)-2-(2-chlorophenyl)-2-hydroxyethyl carbamate

> <ALOGPS_LOGP>
0.94

> <JCHEM_LOGP>
1.287185659666667

> <ALOGPS_LOGS>
-2.00

> <JCHEM_MDDR_LIKE_RULE>
0

> <JCHEM_NUMBER_OF_RINGS>
1

> <JCHEM_PHYSIOLOGICAL_CHARGE>
0

> <JCHEM_PKA>
14.819541021486444

> <JCHEM_PKA_STRONGEST_ACIDIC>
13.425775207868238

> <JCHEM_PKA_STRONGEST_BASIC>
-3.474814054632615

> <JCHEM_POLAR_SURFACE_AREA>
72.55

> <JCHEM_REFRACTIVITY>
51.4694

> <JCHEM_ROTATABLE_BOND_COUNT>
4

> <JCHEM_RULE_OF_FIVE>
1

> <ALOGPS_SOLUBILITY>
2.15e+00 g/l

> <JCHEM_TRADITIONAL_IUPAC>
carisbamate

> <JCHEM_VEBER_RULE>
0

> <DRUGBANK_ID>
DB12338

> <DRUG_GROUPS>
investigational

> <GENERIC_NAME>
Carisbamate

$$$$
