REMARK  Name = 16659841
REMARK  2 active torsions:
REMARK  status: ('A' for Active; 'I' for Inactive)
REMARK    1  A    between atoms: N_2  and  C_19
REMARK    2  A    between atoms: C_19  and  C_24
REMARK                            x       y       z     vdW  Elec       q    Type
REMARK                         _______ _______ _______ _____ _____    ______ ____
ROOT
ATOM      1 CL   UNL     1      -3.494  -3.109  -1.615  0.00  0.00    -0.076 Cl
ATOM      2  N   UNL     1       1.543  -2.106   1.014  0.00  0.00    -0.257 N 
ATOM      3  N   UNL     1      -2.601  -0.479  -0.409  0.00  0.00    -0.271 N 
ATOM      4  N   UNL     1      -0.502  -1.286   0.320  0.00  0.00    -0.321 NA
ATOM      5  N   UNL     1       0.135  -3.577  -0.076  0.00  0.00    -0.169 NA
ATOM      6  N   UNL     1      -1.844   2.808   0.926  0.00  0.00    -0.239 N 
ATOM      7  N   UNL     1      -1.565   1.518   0.670  0.00  0.00    -0.166 NA
ATOM      8  C   UNL     1       0.343  -2.333   0.395  0.00  0.00    +0.147 C 
ATOM      9  C   UNL     1      -1.672  -1.544  -0.299  0.00  0.00    +0.210 C 
ATOM     10  C   UNL     1      -2.562   0.860   0.012  0.00  0.00    +0.152 C 
ATOM     11  C   UNL     1      -3.065   2.963   0.408  0.00  0.00    +0.046 C 
ATOM     12  C   UNL     1      -3.562   1.782  -0.174  0.00  0.00    +0.048 C 
ATOM     13  C   UNL     1      -2.007  -2.775  -0.826  0.00  0.00    +0.122 C 
ATOM     14  C   UNL     1      -1.055  -3.764  -0.683  0.00  0.00    +0.127 C 
ATOM     15  C   UNL     1      -3.736   4.280   0.493  0.00  0.00    +0.049 C 
ATOM     16  H   UNL     1       2.185  -2.849   1.086  0.00  0.00    +0.160 HD
ATOM     17  H   UNL     1      -3.435  -0.727  -0.869  0.00  0.00    +0.156 HD
ATOM     18  H   UNL     1      -1.284   3.476   1.385  0.00  0.00    +0.174 HD
ENDROOT
BRANCH   2  19
ATOM     19  C   UNL     1       1.912  -0.794   1.578  0.00  0.00    +0.164 C 
ATOM     20  C   UNL     1       2.931  -1.028   2.708  0.00  0.00    +0.038 C 
BRANCH  19  24
ATOM     21  F   UNL     1       3.750   2.710  -2.259  0.00  0.00    -0.205 F 
ATOM     22  N   UNL     1       1.698   1.285   0.368  0.00  0.00    -0.193 NA
ATOM     23  N   UNL     1       3.521  -0.212  -0.126  0.00  0.00    -0.215 NA
ATOM     24  C   UNL     1       2.409   0.154   0.540  0.00  0.00    +0.026 C 
ATOM     25  C   UNL     1       2.176   2.119  -0.578  0.00  0.00    +0.136 C 
ATOM     26  C   UNL     1       3.943   0.668  -1.057  0.00  0.00    +0.194 C 
ATOM     27  C   UNL     1       3.304   1.861  -1.329  0.00  0.00    +0.163 C 
ENDBRANCH  19  24
ENDBRANCH   2  19
TORSDOF 2
