REMARK  Name = 67171867
REMARK  8 active torsions:
REMARK  status: ('A' for Active; 'I' for Inactive)
REMARK    1  A    between atoms: C_1  and  N_4
REMARK    2  A    between atoms: C_1  and  C_17
REMARK    3  A    between atoms: C_5  and  C_9
REMARK    4  A    between atoms: C_10  and  C_13
REMARK    5  A    between atoms: C_13  and  O_15
REMARK    6  A    between atoms: C_17  and  N_18
REMARK    7  A    between atoms: C_21  and  C_24
REMARK    8  A    between atoms: C_29  and  C_31
REMARK                            x       y       z     vdW  Elec       q    Type
REMARK                         _______ _______ _______ _____ _____    ______ ____
ROOT
ATOM      1  C   UNL     1       3.586   2.176  -0.273  0.00  0.00    +0.094 C 
ATOM      2  C   UNL     1       4.962   2.324  -0.916  0.00  0.00    +0.023 C 
ENDROOT
BRANCH   1   4
ATOM      3  O   UNL     1       2.969   0.146   1.662  0.00  0.00    -0.268 OA
ATOM      4  N   UNL     1       3.058   0.858  -0.543  0.00  0.00    -0.299 N 
ATOM      5  C   UNL     1       2.792  -0.056   0.464  0.00  0.00    +0.265 C 
ATOM      6  H   UNL     1       2.881   0.600  -1.476  0.00  0.00    +0.150 HD
BRANCH   5   9
ATOM      7  N   UNL     1       1.636  -2.879  -1.299  0.00  0.00    -0.238 N 
ATOM      8  N   UNL     1       2.100  -1.618  -1.282  0.00  0.00    -0.177 NA
ATOM      9  C   UNL     1       2.277  -1.377   0.020  0.00  0.00    +0.153 C 
ATOM     10  C   UNL     1       1.515  -3.438  -0.061  0.00  0.00    +0.071 C 
ATOM     11  C   UNL     1       1.929  -2.476   0.828  0.00  0.00    +0.039 C 
ATOM     12  H   UNL     1       1.405  -3.356  -2.129  0.00  0.00    +0.174 HD
BRANCH  10  13
ATOM     13  C   UNL     1       1.023  -4.811   0.136  0.00  0.00    +0.147 C 
ATOM     14  C   UNL     1      -0.500  -4.891   0.345  0.00  0.00    +0.038 C 
BRANCH  13  15
ATOM     15  O   UNL     1       1.663  -5.423   1.271  0.00  0.00    -0.379 OA
ATOM     16  H   UNL     1       2.625  -5.384   1.160  0.00  0.00    +0.211 HD
ENDBRANCH  13  15
ENDBRANCH  10  13
ENDBRANCH   5   9
ENDBRANCH   1   4
BRANCH   1  17
ATOM     17  C   UNL     1       2.632   3.270  -0.775  0.00  0.00    +0.136 C 
BRANCH  17  18
ATOM     18  N   UNL     1       1.272   3.216  -0.119  0.00  0.00    -0.209 N 
ATOM     19  N   UNL     1       0.372   2.303  -0.523  0.00  0.00    -0.178 NA
ATOM     20  C   UNL     1       0.827   4.022   0.886  0.00  0.00    +0.086 C 
ATOM     21  C   UNL     1      -0.680   2.548   0.262  0.00  0.00    +0.100 C 
ATOM     22  C   UNL     1      -0.454   3.609   1.159  0.00  0.00    +0.038 C 
BRANCH  21  24
ATOM     23 CL   UNL     1      -2.831  -1.966  -0.910  0.00  0.00    -0.082 Cl
ATOM     24  C   UNL     1      -1.883   1.766   0.140  0.00  0.00    +0.020 C 
ATOM     25  C   UNL     1      -1.812   0.436  -0.275  0.00  0.00    +0.014 C 
ATOM     26  C   UNL     1      -3.119   2.338   0.440  0.00  0.00    +0.002 C 
ATOM     27  C   UNL     1      -2.977  -0.322  -0.391  0.00  0.00    +0.067 C 
ATOM     28  C   UNL     1      -4.285   1.580   0.324  0.00  0.00    +0.011 C 
ATOM     29  C   UNL     1      -4.213   0.250  -0.091  0.00  0.00    +0.079 C 
BRANCH  29  31
ATOM     30  N   UNL     1      -6.423  -1.093  -0.284  0.00  0.00    -0.191 NA
ATOM     31  C   UNL     1      -5.434  -0.492  -0.198  0.00  0.00    +0.101 C 
ENDBRANCH  29  31
ENDBRANCH  21  24
ENDBRANCH  17  18
ENDBRANCH   1  17
TORSDOF 8
