REMARK  Name = 18343
REMARK  3 active torsions:
REMARK  status: ('A' for Active; 'I' for Inactive)
REMARK    1  A    between atoms: N_4  and  C_14
REMARK    2  A    between atoms: C_12  and  O_17
REMARK    3  A    between atoms: C_13  and  O_19
REMARK                            x       y       z     vdW  Elec       q    Type
REMARK                         _______ _______ _______ _____ _____    ______ ____
ROOT
ATOM      1  F   UNL     1       2.779   2.314   0.341  0.00  0.00    -0.198 F 
ATOM      2  O   UNL     1       0.752  -2.626  -0.518  0.00  0.00    -0.252 OA
ATOM      3  O   UNL     1       4.378   0.115   0.284  0.00  0.00    -0.267 OA
ATOM      4  N   UNL     1       0.369  -0.330  -0.293  0.00  0.00    -0.214 N 
ATOM      5  N   UNL     1       2.556  -1.261  -0.120  0.00  0.00    -0.234 N 
ATOM      6  C   UNL     1       1.186  -1.488  -0.326  0.00  0.00    +0.316 C 
ATOM      7  C   UNL     1       0.937   0.919  -0.069  0.00  0.00    +0.106 C 
ATOM      8  C   UNL     1       2.242   1.099   0.123  0.00  0.00    +0.208 C 
ATOM      9  C   UNL     1       3.174  -0.039   0.108  0.00  0.00    +0.282 C 
ATOM     10  H   UNL     1       3.141  -2.053  -0.139  0.00  0.00    +0.159 HD
ENDROOT
BRANCH   4  14
ATOM     11  O   UNL     1      -1.503   0.784  -1.140  0.00  0.00    -0.335 OA
ATOM     12  C   UNL     1      -1.812  -0.508   0.822  0.00  0.00    +0.187 C 
ATOM     13  C   UNL     1      -3.123   0.162   0.472  0.00  0.00    +0.168 C 
ATOM     14  C   UNL     1      -1.050  -0.414  -0.489  0.00  0.00    +0.229 C 
ATOM     15  C   UNL     1      -2.671   1.284  -0.454  0.00  0.00    +0.146 C 
ATOM     16  C   UNL     1      -2.279   2.555   0.288  0.00  0.00    +0.035 C 
BRANCH  12  17
ATOM     17  O   UNL     1      -1.989  -1.842   1.253  0.00  0.00    -0.378 OA
ATOM     18  H   UNL     1      -2.479  -1.849   2.090  0.00  0.00    +0.211 HD
ENDBRANCH  12  17
BRANCH  13  19
ATOM     19  O   UNL     1      -3.947  -0.726  -0.283  0.00  0.00    -0.379 OA
ATOM     20  H   UNL     1      -4.248  -1.451   0.287  0.00  0.00    +0.211 HD
ENDBRANCH  13  19
ENDBRANCH   4  14
TORSDOF 3
