REMARK  Name = 11313622
REMARK  3 active torsions:
REMARK  status: ('A' for Active; 'I' for Inactive)
REMARK    1  A    between atoms: N_4  and  C_8
REMARK    2  A    between atoms: N_5  and  C_18
REMARK    3  A    between atoms: C_18  and  C_19
REMARK                            x       y       z     vdW  Elec       q    Type
REMARK                         _______ _______ _______ _____ _____    ______ ____
ROOT
ATOM      1  S   UNL     1      -0.214   1.947  -1.641  0.00  0.00    +0.060 S 
ATOM      2  O   UNL     1       0.264   0.528   1.839  0.00  0.00    -0.245 OA
ATOM      3  O   UNL     1       2.351   2.449  -1.858  0.00  0.00    -0.258 OA
ATOM      4  N   UNL     1      -0.718   1.233  -0.171  0.00  0.00    -0.226 N 
ATOM      5  N   UNL     1       1.551   1.469   0.118  0.00  0.00    -0.237 N 
ATOM      6  C   UNL     1       0.355   1.022   0.717  0.00  0.00    +0.344 A 
ATOM      7  C   UNL     1       1.464   2.001  -1.147  0.00  0.00    +0.312 A 
ENDROOT
BRANCH   4   8
ATOM      8  C   UNL     1      -2.047   0.897   0.118  0.00  0.00    +0.075 C 
ATOM      9  C   UNL     1      -2.576  -0.365  -0.198  0.00  0.00    +0.017 C 
ATOM     10  C   UNL     1      -3.926  -0.648   0.117  0.00  0.00    +0.001 C 
ATOM     11  C   UNL     1      -2.837   1.867   0.735  0.00  0.00    +0.018 C 
ATOM     12  C   UNL     1      -1.794  -1.353  -0.820  0.00  0.00    +0.001 C 
ATOM     13  C   UNL     1      -4.708   0.340   0.738  0.00  0.00    +0.000 C 
ATOM     14  C   UNL     1      -4.165   1.589   1.045  0.00  0.00    +0.002 C 
ATOM     15  C   UNL     1      -4.456  -1.909  -0.200  0.00  0.00    +0.000 C 
ATOM     16  C   UNL     1      -2.337  -2.601  -1.126  0.00  0.00    +0.000 C 
ATOM     17  C   UNL     1      -3.665  -2.879  -0.817  0.00  0.00    +0.000 C 
ENDBRANCH   4   8
BRANCH   5  18
ATOM     18  C   UNL     1       2.813   1.366   0.828  0.00  0.00    +0.141 C 
BRANCH  18  19
ATOM     19  C   UNL     1       3.487   0.051   0.546  0.00  0.00    +0.001 C 
ATOM     20  C   UNL     1       4.365  -0.053  -0.524  0.00  0.00    -0.002 C 
ATOM     21  C   UNL     1       3.223  -1.042   1.361  0.00  0.00    -0.002 C 
ATOM     22  C   UNL     1       4.990  -1.272  -0.786  0.00  0.00    -0.000 C 
ATOM     23  C   UNL     1       3.848  -2.261   1.100  0.00  0.00    -0.000 C 
ATOM     24  C   UNL     1       4.732  -2.376   0.026  0.00  0.00    -0.000 C 
ENDBRANCH  18  19
ENDBRANCH   5  18
TORSDOF 3
