REMARK  Name = 5311505
REMARK  7 active torsions:
REMARK  status: ('A' for Active; 'I' for Inactive)
REMARK    1  A    between atoms: C_4  and  O_29
REMARK    2  A    between atoms: C_4  and  C_31
REMARK    3  A    between atoms: C_9  and  C_20
REMARK    4  A    between atoms: C_25  and  N_26
REMARK    5  A    between atoms: C_31  and  C_32
REMARK    6  A    between atoms: C_32  and  C_33
REMARK    7  A    between atoms: C_33  and  O_34
REMARK                            x       y       z     vdW  Elec       q    Type
REMARK                         _______ _______ _______ _____ _____    ______ ____
ROOT
ATOM      1  O   UNL     1      -5.234  -3.944  -1.073  0.00  0.00    -0.291 OA
ATOM      2  C   UNL     1       2.135  -1.035  -0.544  0.00  0.00    +0.023 C 
ATOM      3  C   UNL     1       1.602  -2.025   0.546  0.00  0.00    +0.006 C 
ATOM      4  C   UNL     1       3.641  -0.838  -0.163  0.00  0.00    +0.088 C 
ATOM      5  C   UNL     1       0.219  -1.659   1.157  0.00  0.00    +0.019 C 
ATOM      6  C   UNL     1       1.330   0.287  -0.486  0.00  0.00    +0.011 C 
ATOM      7  C   UNL     1       2.691  -2.082   1.643  0.00  0.00    +0.003 C 
ATOM      8  C   UNL     1       3.631  -0.917   1.362  0.00  0.00    +0.027 C 
ATOM      9  C   UNL     1      -0.191   0.092  -0.679  0.00  0.00    +0.040 C 
ATOM     10  C   UNL     1      -0.743  -1.094   0.112  0.00  0.00    -0.045 C 
ATOM     11  C   UNL     1       1.996  -1.659  -1.951  0.00  0.00    +0.002 C 
ATOM     12  C   UNL     1      -0.342  -2.881   1.920  0.00  0.00    +0.009 C 
ATOM     13  C   UNL     1      -1.992  -1.590  -0.065  0.00  0.00    -0.033 C 
ATOM     14  C   UNL     1      -1.839  -2.758   2.156  0.00  0.00    +0.026 C 
ATOM     15  C   UNL     1      -2.536  -2.613   0.831  0.00  0.00    -0.024 C 
ATOM     16  C   UNL     1      -2.973  -1.121  -1.117  0.00  0.00    +0.034 C 
ATOM     17  C   UNL     1      -3.603  -3.368   0.522  0.00  0.00    +0.033 C 
ATOM     18  C   UNL     1      -3.654  -2.296  -1.809  0.00  0.00    +0.074 C 
ATOM     19  C   UNL     1      -4.261  -3.243  -0.802  0.00  0.00    +0.173 C 
ENDROOT
BRANCH   9  20
ATOM     20  C   UNL     1      -0.900   1.411  -0.382  0.00  0.00    -0.019 C 
ATOM     21  C   UNL     1      -1.564   2.082  -1.404  0.00  0.00    -0.003 C 
ATOM     22  C   UNL     1      -0.876   1.932   0.907  0.00  0.00    -0.003 C 
ATOM     23  C   UNL     1      -2.211   3.287  -1.133  0.00  0.00    +0.014 C 
ATOM     24  C   UNL     1      -1.523   3.137   1.178  0.00  0.00    +0.014 C 
ATOM     25  C   UNL     1      -2.191   3.815   0.159  0.00  0.00    +0.048 C 
BRANCH  25  26
ATOM     26  N   UNL     1      -2.846   5.034   0.433  0.00  0.00    -0.304 N 
ATOM     27  C   UNL     1      -4.020   5.422  -0.324  0.00  0.00    +0.112 C 
ATOM     28  C   UNL     1      -2.363   5.906   1.485  0.00  0.00    +0.112 C 
ENDBRANCH  25  26
ENDBRANCH   9  20
BRANCH   4  29
ATOM     29  O   UNL     1       4.417  -1.942  -0.648  0.00  0.00    -0.387 OA
ATOM     30  H   UNL     1       4.024  -2.774  -0.339  0.00  0.00    +0.210 HD
ENDBRANCH   4  29
BRANCH   4  31
ATOM     31  C   UNL     1       4.300   0.440  -0.675  0.00  0.00    +0.029 C 
BRANCH  31  32
ATOM     32  C   UNL     1       5.738   0.557  -0.184  0.00  0.00    +0.034 C 
BRANCH  32  33
ATOM     33  C   UNL     1       6.412   1.809  -0.726  0.00  0.00    +0.137 C 
BRANCH  33  34
ATOM     34  O   UNL     1       7.749   1.854  -0.247  0.00  0.00    -0.382 OA
ATOM     35  H   UNL     1       8.188   2.650  -0.588  0.00  0.00    +0.210 HD
ENDBRANCH  33  34
ENDBRANCH  32  33
ENDBRANCH  31  32
ENDBRANCH   4  31
TORSDOF 7
