REMARK  Name = 153976
REMARK  4 active torsions:
REMARK  status: ('A' for Active; 'I' for Inactive)
REMARK    1  A    between atoms: C_1  and  O_25
REMARK    2  A    between atoms: C_7  and  C_21
REMARK    3  A    between atoms: C_7  and  O_27
REMARK    4  A    between atoms: C_19  and  O_29
REMARK                            x       y       z     vdW  Elec       q    Type
REMARK                         _______ _______ _______ _____ _____    ______ ____
ROOT
ATOM      1  C   UNL     1      -0.811   0.597  -0.008  0.00  0.00    +0.091 C 
ATOM      2  C   UNL     1       0.623   0.778   0.573  0.00  0.00    +0.025 C 
ATOM      3  C   UNL     1      -1.501  -0.747   0.371  0.00  0.00    +0.049 C 
ATOM      4  C   UNL     1       1.550  -0.444   0.331  0.00  0.00    +0.002 C 
ATOM      5  C   UNL     1       3.000  -0.234   0.917  0.00  0.00    +0.000 C 
ATOM      6  C   UNL     1       3.601   1.102   0.370  0.00  0.00    +0.002 C 
ATOM      7  C   UNL     1      -2.683  -0.854  -0.680  0.00  0.00    +0.112 C 
ATOM      8  C   UNL     1      -0.501  -1.930   0.177  0.00  0.00    +0.005 C 
ATOM      9  C   UNL     1       0.857  -1.719   0.842  0.00  0.00    +0.000 C 
ATOM     10  C   UNL     1      -0.888   0.630  -1.550  0.00  0.00    +0.030 C 
ATOM     11  C   UNL     1       1.266   2.091   0.081  0.00  0.00    +0.002 C 
ATOM     12  C   UNL     1       2.673   2.298   0.630  0.00  0.00    +0.000 C 
ATOM     13  C   UNL     1      -2.016  -0.324  -1.972  0.00  0.00    +0.034 C 
ATOM     14  C   UNL     1       3.967  -1.395   0.539  0.00  0.00    +0.002 C 
ATOM     15  C   UNL     1      -1.985  -0.783   1.837  0.00  0.00    +0.005 C 
ATOM     16  C   UNL     1       3.968   1.022  -1.131  0.00  0.00    +0.029 C 
ATOM     17  C   UNL     1       2.976  -0.187   2.468  0.00  0.00    +0.000 C 
ATOM     18  C   UNL     1       4.305  -1.470  -0.948  0.00  0.00    +0.029 C 
ATOM     19  C   UNL     1       4.884  -0.154  -1.457  0.00  0.00    +0.111 C 
ENDROOT
BRANCH   7  21
ATOM     20  O   UNL     1      -5.524   1.473  -0.085  0.00  0.00    -0.448 OA
ATOM     21  C   UNL     1      -3.982  -0.128  -0.300  0.00  0.00    +0.043 C 
ATOM     22  C   UNL     1      -5.078  -0.678   0.388  0.00  0.00    +0.042 C 
ATOM     23  C   UNL     1      -4.290   1.176  -0.569  0.00  0.00    +0.178 C 
ATOM     24  C   UNL     1      -5.997   0.339   0.496  0.00  0.00    +0.179 C 
ENDBRANCH   7  21
BRANCH   1  25
ATOM     25  O   UNL     1      -1.595   1.705   0.457  0.00  0.00    -0.387 OA
ATOM     26  H   UNL     1      -1.579   1.729   1.426  0.00  0.00    +0.210 HD
ENDBRANCH   1  25
BRANCH   7  27
ATOM     27  O   UNL     1      -2.979  -2.243  -0.915  0.00  0.00    -0.383 OA
ATOM     28  H   UNL     1      -2.164  -2.711  -1.155  0.00  0.00    +0.211 HD
ENDBRANCH   7  27
BRANCH  19  29
ATOM     29  O   UNL     1       6.159   0.080  -0.863  0.00  0.00    -0.384 OA
ATOM     30  H   UNL     1       6.520   0.918  -1.191  0.00  0.00    +0.210 HD
ENDBRANCH  19  29
TORSDOF 4
