REMARK  Name = 16123056
REMARK  2 active torsions:
REMARK  status: ('A' for Active; 'I' for Inactive)
REMARK    1  A    between atoms: N_2  and  C_22
REMARK    2  A    between atoms: C_8  and  C_18
REMARK                            x       y       z     vdW  Elec       q    Type
REMARK                         _______ _______ _______ _____ _____    ______ ____
ROOT
ATOM      1  O   UNL     1      -1.689   2.137  -0.378  0.00  0.00    -0.269 OA
ATOM      2  N   UNL     1       0.531   1.464  -0.266  0.00  0.00    -0.233 N 
ATOM      3  N   UNL     1       2.808   0.685  -0.159  0.00  0.00    -0.317 NA
ATOM      4  N   UNL     1       3.295  -1.656   0.111  0.00  0.00    -0.337 NA
ATOM      5  N   UNL     1       5.023  -0.082  -0.056  0.00  0.00    -0.283 N 
ATOM      6  C   UNL     1       1.482   0.407  -0.137  0.00  0.00    +0.190 C 
ATOM      7  C   UNL     1       1.011  -0.889   0.007  0.00  0.00    +0.139 C 
ATOM      8  C   UNL     1      -1.305  -0.178  -0.090  0.00  0.00    +0.065 C 
ATOM      9  C   UNL     1      -0.849   1.244  -0.256  0.00  0.00    +0.255 C 
ATOM     10  C   UNL     1      -0.413  -1.171   0.031  0.00  0.00    -0.005 C 
ATOM     11  C   UNL     1       1.967  -1.885   0.127  0.00  0.00    +0.112 C 
ATOM     12  C   UNL     1       1.587  -3.322   0.291  0.00  0.00    +0.063 C 
ATOM     13  C   UNL     1       3.641  -0.367  -0.034  0.00  0.00    +0.196 C 
ATOM     14  H   UNL     1       5.333   0.847  -0.159  0.00  0.00    +0.156 HD
ATOM     15  H   UNL     1       5.678  -0.812   0.033  0.00  0.00    +0.156 HD
ENDROOT
BRANCH   8  18
ATOM     16  N   UNL     1      -3.569   0.453   0.435  0.00  0.00    -0.236 N 
ATOM     17  N   UNL     1      -4.854   0.060   0.423  0.00  0.00    -0.180 NA
ATOM     18  C   UNL     1      -2.703  -0.480  -0.054  0.00  0.00    +0.071 C 
ATOM     19  C   UNL     1      -3.475  -1.558  -0.412  0.00  0.00    +0.038 C 
ATOM     20  C   UNL     1      -4.790  -1.169  -0.096  0.00  0.00    +0.119 C 
ATOM     21  H   UNL     1      -3.280   1.333   0.768  0.00  0.00    +0.174 HD
ENDBRANCH   8  18
BRANCH   2  22
ATOM     22  C   UNL     1       1.058   2.818  -0.418  0.00  0.00    +0.101 C 
ATOM     23  C   UNL     1       1.245   3.489   0.932  0.00  0.00    +0.024 C 
ENDBRANCH   2  22
TORSDOF 2
