REMARK  Name = 9912771
REMARK  7 active torsions:
REMARK  status: ('A' for Active; 'I' for Inactive)
REMARK    1  A    between atoms: C_1  and  N_8
REMARK    2  A    between atoms: C_2  and  N_27
REMARK    3  A    between atoms: C_3  and  O_38
REMARK    4  A    between atoms: C_9  and  C_16
REMARK    5  A    between atoms: C_11  and  N_17
REMARK    6  A    between atoms: C_28  and  C_30
REMARK    7  A    between atoms: C_35  and  O_36
REMARK                            x       y       z     vdW  Elec       q    Type
REMARK                         _______ _______ _______ _____ _____    ______ ____
ROOT
ATOM      1  C   UNL     1      -2.877   2.222  -0.106  0.00  0.00    +0.098 C 
ATOM      2  C   UNL     1      -3.701   1.109  -0.031  0.00  0.00    +0.067 C 
ATOM      3  C   UNL     1      -3.402   3.506  -0.109  0.00  0.00    +0.148 C 
ATOM      4  C   UNL     1      -5.083   1.284   0.043  0.00  0.00    +0.016 C 
ATOM      5  C   UNL     1      -4.784   3.680  -0.035  0.00  0.00    +0.038 C 
ATOM      6  C   UNL     1      -5.624   2.569   0.041  0.00  0.00    +0.004 C 
ENDROOT
BRANCH   1   8
ATOM      7  O   UNL     1      -0.661   3.989   0.870  0.00  0.00    -0.270 OA
ATOM      8  N   UNL     1      -1.472   2.054  -0.180  0.00  0.00    -0.277 N 
ATOM      9  C   UNL     1      -0.466   2.908   0.291  0.00  0.00    +0.250 C 
ATOM     10  H   UNL     1      -1.163   1.230  -0.620  0.00  0.00    +0.155 HD
BRANCH   9  16
ATOM     11  C   UNL     1       3.554   1.635  -0.438  0.00  0.00    +0.048 C 
ATOM     12  C   UNL     1       2.495   1.237  -1.284  0.00  0.00    +0.015 C 
ATOM     13  C   UNL     1       3.237   2.470   0.657  0.00  0.00    +0.015 C 
ATOM     14  C   UNL     1       1.185   1.653  -1.046  0.00  0.00    +0.006 C 
ATOM     15  C   UNL     1       1.927   2.885   0.895  0.00  0.00    +0.006 C 
ATOM     16  C   UNL     1       0.901   2.476   0.043  0.00  0.00    +0.054 C 
BRANCH  11  17
ATOM     17  N   UNL     1       4.863   1.219  -0.674  0.00  0.00    -0.310 N 
ATOM     18  N   UNL     1       5.065  -1.401   0.458  0.00  0.00    +0.387 N 
ATOM     19  C   UNL     1       5.982   1.614   0.186  0.00  0.00    +0.089 C 
ATOM     20  C   UNL     1       6.156   0.645   1.355  0.00  0.00    -0.001 C 
ATOM     21  C   UNL     1       5.173   0.124  -1.599  0.00  0.00    +0.068 C 
ATOM     22  C   UNL     1       6.323  -0.830   0.955  0.00  0.00    -0.076 C 
ATOM     23  C   UNL     1       4.858  -1.250  -0.993  0.00  0.00    -0.056 C 
ATOM     24  C   UNL     1       4.942  -2.812   0.829  0.00  0.00    -0.101 C 
ATOM     25  H   UNL     1       4.333  -0.854   0.912  0.00  0.00    -0.080 HD
ENDBRANCH  11  17
ENDBRANCH   9  16
ENDBRANCH   1   8
BRANCH   2  27
ATOM     26  O   UNL     1      -5.103  -1.536   0.114  0.00  0.00    -0.270 OA
ATOM     27  N   UNL     1      -3.182  -0.189  -0.028  0.00  0.00    -0.279 N 
ATOM     28  C   UNL     1      -3.887  -1.396   0.042  0.00  0.00    +0.250 C 
ATOM     29  H   UNL     1      -2.202  -0.263  -0.082  0.00  0.00    +0.155 HD
BRANCH  28  30
ATOM     30  C   UNL     1      -3.047  -2.622   0.054  0.00  0.00    +0.054 C 
ATOM     31  C   UNL     1      -3.538  -3.759   0.662  0.00  0.00    +0.008 C 
ATOM     32  C   UNL     1      -1.805  -2.584  -0.544  0.00  0.00    +0.008 C 
ATOM     33  C   UNL     1      -2.751  -4.910   0.673  0.00  0.00    +0.037 C 
ATOM     34  C   UNL     1      -1.018  -3.736  -0.533  0.00  0.00    +0.037 C 
ATOM     35  C   UNL     1      -1.490  -4.898   0.075  0.00  0.00    +0.139 C 
BRANCH  35  36
ATOM     36  O   UNL     1      -0.723  -6.022   0.085  0.00  0.00    -0.471 OA
ATOM     37  C   UNL     1       0.555  -5.941  -0.544  0.00  0.00    +0.252 C 
ENDBRANCH  35  36
ENDBRANCH  28  30
ENDBRANCH   2  27
BRANCH   3  38
ATOM     38  O   UNL     1      -2.601   4.606  -0.181  0.00  0.00    -0.504 OA
ATOM     39  H   UNL     1      -1.671   4.506  -0.231  0.00  0.00    +0.292 HD
ENDBRANCH   3  38
TORSDOF 7
