REMARK  Name = 60867
REMARK  5 active torsions:
REMARK  status: ('A' for Active; 'I' for Inactive)
REMARK    1  A    between atoms: C_1  and  C_12
REMARK    2  A    between atoms: C_6  and  N_16
REMARK    3  A    between atoms: N_16  and  N_18
REMARK    4  A    between atoms: C_19  and  C_21
REMARK    5  A    between atoms: C_19  and  C_23
REMARK                            x       y       z     vdW  Elec       q    Type
REMARK                         _______ _______ _______ _____ _____    ______ ____
ROOT
ATOM      1  C   UNL     1      -1.298   0.084  -0.049  0.00  0.00    +0.015 C 
ATOM      2  C   UNL     1      -0.769   1.354  -0.258  0.00  0.00    +0.003 C 
ATOM      3  C   UNL     1      -0.456  -1.010   0.133  0.00  0.00    +0.003 C 
ATOM      4  C   UNL     1       0.614   1.533  -0.286  0.00  0.00    +0.016 C 
ATOM      5  C   UNL     1       0.927  -0.831   0.105  0.00  0.00    +0.016 C 
ATOM      6  C   UNL     1       1.462   0.441  -0.104  0.00  0.00    +0.065 C 
ENDROOT
BRANCH   1  12
ATOM      7  O   UNL     1      -6.757  -0.619  -0.401  0.00  0.00    -0.273 OA
ATOM      8  N   UNL     1      -3.270  -1.259  -0.381  0.00  0.00    -0.184 NA
ATOM      9  N   UNL     1      -4.612  -1.428  -0.401  0.00  0.00    -0.206 N 
ATOM     10  C   UNL     1      -3.681   1.023   0.462  0.00  0.00    +0.051 C 
ATOM     11  C   UNL     1      -4.980   0.975  -0.328  0.00  0.00    +0.093 C 
ATOM     12  C   UNL     1      -2.785  -0.109  -0.019  0.00  0.00    +0.076 C 
ATOM     13  C   UNL     1      -3.931   0.895   1.966  0.00  0.00    +0.007 C 
ATOM     14  C   UNL     1      -5.544  -0.418  -0.356  0.00  0.00    +0.241 C 
ATOM     15  H   UNL     1      -4.950  -2.352  -0.452  0.00  0.00    +0.177 HD
ENDBRANCH   1  12
BRANCH   6  16
ATOM     16  N   UNL     1       2.861   0.622  -0.132  0.00  0.00    -0.235 N 
ATOM     17  H   UNL     1       3.236   1.520  -0.280  0.00  0.00    +0.174 HD
BRANCH  16  18
ATOM     18  N   UNL     1       3.684  -0.428   0.042  0.00  0.00    -0.160 NA
ATOM     19  C   UNL     1       4.959  -0.224   0.009  0.00  0.00    +0.234 C 
BRANCH  19  21
ATOM     20  N   UNL     1       6.346  -2.385   0.372  0.00  0.00    -0.188 NA
ATOM     21  C   UNL     1       5.724  -1.419   0.209  0.00  0.00    +0.132 C 
ENDBRANCH  19  21
BRANCH  19  23
ATOM     22  N   UNL     1       5.984   2.127  -0.377  0.00  0.00    -0.188 NA
ATOM     23  C   UNL     1       5.523   1.076  -0.204  0.00  0.00    +0.132 C 
ENDBRANCH  19  23
ENDBRANCH  16  18
ENDBRANCH   6  16
TORSDOF 5
