REMARK  Name = 24771824
REMARK  4 active torsions:
REMARK  status: ('A' for Active; 'I' for Inactive)
REMARK    1  A    between atoms: C_11  and  C_18
REMARK    2  A    between atoms: C_21  and  O_24
REMARK    3  A    between atoms: O_24  and  C_26
REMARK    4  A    between atoms: C_28  and  C_34
REMARK                            x       y       z     vdW  Elec       q    Type
REMARK                         _______ _______ _______ _____ _____    ______ ____
ROOT
ATOM      1  O   UNL     1       5.124  -1.336  -1.207  0.00  0.00    -0.252 OA
ATOM      2  N   UNL     1       2.862  -1.451  -0.736  0.00  0.00    -0.263 N 
ATOM      3  N   UNL     1       4.155   0.370   0.029  0.00  0.00    -0.252 N 
ATOM      4  N   UNL     1       6.468   0.865  -0.271  0.00  0.00    -0.133 NA
ATOM      5  N   UNL     1       7.540   1.678  -0.071  0.00  0.00    -0.145 NA
ATOM      6  C   UNL     1       2.035  -3.789  -0.626  0.00  0.00    +0.044 C 
ATOM      7  C   UNL     1       0.879  -1.959   0.679  0.00  0.00    +0.044 C 
ATOM      8  C   UNL     1       2.716  -2.715  -1.472  0.00  0.00    +0.099 C 
ATOM      9  C   UNL     1       1.609  -0.913  -0.171  0.00  0.00    +0.099 C 
ATOM     10  C   UNL     1       0.743  -3.260  -0.066  0.00  0.00    -0.041 C 
ATOM     11  C   UNL     1      -0.433  -3.881  -0.235  0.00  0.00    -0.008 C 
ATOM     12  C   UNL     1       4.133  -0.838  -0.666  0.00  0.00    +0.309 C 
ATOM     13  C   UNL     1       5.269   1.220   0.239  0.00  0.00    +0.157 C 
ATOM     14  C   UNL     1       5.075   2.380   0.962  0.00  0.00    +0.038 C 
ATOM     15  C   UNL     1       6.166   3.207   1.165  0.00  0.00    +0.025 C 
ATOM     16  C   UNL     1       7.379   2.818   0.632  0.00  0.00    +0.122 C 
ATOM     17  H   UNL     1       3.300   0.666   0.418  0.00  0.00    +0.158 HD
ENDROOT
BRANCH  11  18
ATOM     18  C   UNL     1      -1.730  -3.420   0.284  0.00  0.00    +0.002 C 
ATOM     19  C   UNL     1      -2.519  -2.559  -0.479  0.00  0.00    +0.038 C 
ATOM     20  C   UNL     1      -2.171  -3.844   1.537  0.00  0.00    +0.000 C 
ATOM     21  C   UNL     1      -3.750  -2.123   0.012  0.00  0.00    +0.147 C 
ATOM     22  C   UNL     1      -3.401  -3.408   2.028  0.00  0.00    +0.003 C 
ATOM     23  C   UNL     1      -4.191  -2.547   1.265  0.00  0.00    +0.038 C 
BRANCH  21  24
ATOM     24  O   UNL     1      -4.520  -1.283  -0.732  0.00  0.00    -0.436 OA
BRANCH  24  26
ATOM     25  N   UNL     1      -3.398   0.464   0.331  0.00  0.00    -0.210 NA
ATOM     26  C   UNL     1      -4.335   0.079  -0.564  0.00  0.00    +0.230 C 
ATOM     27  C   UNL     1      -5.104   0.958  -1.309  0.00  0.00    +0.058 C 
ATOM     28  C   UNL     1      -3.943   2.756  -0.211  0.00  0.00    +0.091 C 
ATOM     29  C   UNL     1      -4.899   2.321  -1.123  0.00  0.00    +0.010 C 
ATOM     30  C   UNL     1      -3.226   1.796   0.485  0.00  0.00    +0.106 C 
BRANCH  28  34
ATOM     31  F   UNL     1      -4.493   5.021  -0.751  0.00  0.00    -0.166 F 
ATOM     32  F   UNL     1      -3.919   4.610   1.300  0.00  0.00    -0.166 F 
ATOM     33  F   UNL     1      -2.418   4.579  -0.273  0.00  0.00    -0.166 F 
ATOM     34  C   UNL     1      -3.702   4.207   0.012  0.00  0.00    +0.420 C 
ENDBRANCH  28  34
ENDBRANCH  24  26
ENDBRANCH  21  24
ENDBRANCH  11  18
TORSDOF 4
