REMARK  Name = 11223423
REMARK  3 active torsions:
REMARK  status: ('A' for Active; 'I' for Inactive)
REMARK    1  A    between atoms: N_1  and  C_23
REMARK    2  A    between atoms: C_7  and  N_12
REMARK    3  A    between atoms: C_29  and  O_30
REMARK                            x       y       z     vdW  Elec       q    Type
REMARK                         _______ _______ _______ _____ _____    ______ ____
ROOT
ATOM      1  N   UNL     1       1.896   0.337   0.062  0.00  0.00    -0.263 N 
ATOM      2  N   UNL     1       1.626  -2.140   0.033  0.00  0.00    -0.395 NA
ATOM      3  C   UNL     1      -0.486   0.846   0.032  0.00  0.00    +0.053 C 
ATOM      4  C   UNL     1      -0.227  -0.617   0.059  0.00  0.00    +0.035 C 
ATOM      5  C   UNL     1       0.915   1.409   0.316  0.00  0.00    +0.103 C 
ATOM      6  C   UNL     1       1.141  -0.882   0.043  0.00  0.00    +0.183 C 
ATOM      7  C   UNL     1      -1.147  -1.650   0.050  0.00  0.00    +0.058 C 
ATOM      8  C   UNL     1      -0.664  -2.952   0.041  0.00  0.00    +0.097 C 
ATOM      9  C   UNL     1       0.712  -3.142   0.033  0.00  0.00    +0.094 C 
ATOM     10  C   UNL     1       1.254  -4.533   0.021  0.00  0.00    +0.062 C 
ENDROOT
BRANCH   7  12
ATOM     11  O   UNL     1      -3.767   2.666   0.101  0.00  0.00    -0.252 OA
ATOM     12  N   UNL     1      -2.507  -1.409   0.046  0.00  0.00    -0.191 N 
ATOM     13  N   UNL     1      -5.224   0.761   0.055  0.00  0.00    -0.225 N 
ATOM     14  N   UNL     1      -2.987  -0.147   0.056  0.00  0.00    -0.159 NA
ATOM     15  N   UNL     1      -6.076   2.871   0.051  0.00  0.00    -0.287 N 
ATOM     16  C   UNL     1      -4.312  -0.316   0.049  0.00  0.00    +0.158 C 
ATOM     17  C   UNL     1      -6.673   0.623   0.127  0.00  0.00    +0.122 C 
ATOM     18  C   UNL     1      -3.496  -2.358   0.033  0.00  0.00    +0.092 C 
ATOM     19  C   UNL     1      -7.223   2.021  -0.074  0.00  0.00    +0.113 C 
ATOM     20  C   UNL     1      -4.686  -1.673   0.035  0.00  0.00    +0.054 C 
ATOM     21  C   UNL     1      -4.873   2.142   0.069  0.00  0.00    +0.309 C 
ATOM     22  H   UNL     1      -6.125   3.852   0.116  0.00  0.00    +0.151 HD
ENDBRANCH   7  12
BRANCH   1  23
ATOM     23  C   UNL     1       3.274   0.572   0.026  0.00  0.00    +0.050 C 
ATOM     24  C   UNL     1       3.978   0.742  -1.191  0.00  0.00    -0.005 C 
ATOM     25  C   UNL     1       4.024   0.649   1.223  0.00  0.00    +0.018 C 
ATOM     26  C   UNL     1       5.353   0.975  -1.208  0.00  0.00    +0.034 C 
ATOM     27  C   UNL     1       3.241   0.671  -2.489  0.00  0.00    +0.032 C 
ATOM     28  C   UNL     1       5.399   0.883   1.206  0.00  0.00    +0.038 C 
ATOM     29  C   UNL     1       6.063   1.046  -0.010  0.00  0.00    +0.139 C 
BRANCH  29  30
ATOM     30  O   UNL     1       7.405   1.274  -0.026  0.00  0.00    -0.471 OA
ATOM     31  C   UNL     1       8.069   1.333   1.235  0.00  0.00    +0.252 C 
ENDBRANCH  29  30
ENDBRANCH   1  23
TORSDOF 3
