REMARK  Name = 9804992
REMARK  10 active torsions:
REMARK  status: ('A' for Active; 'I' for Inactive)
REMARK    1  A    between atoms: C_1  and  C_9
REMARK    2  A    between atoms: C_1  and  O_19
REMARK    3  A    between atoms: C_2  and  C_12
REMARK    4  A    between atoms: C_12  and  N_13
REMARK    5  A    between atoms: N_13  and  C_15
REMARK    6  A    between atoms: N_13  and  C_17
REMARK    7  A    between atoms: O_19  and  C_22
REMARK    8  A    between atoms: N_21  and  C_24
REMARK    9  A    between atoms: C_27  and  C_32
REMARK   10  A    between atoms: N_31  and  O_34
REMARK                            x       y       z     vdW  Elec       q    Type
REMARK                         _______ _______ _______ _____ _____    ______ ____
ROOT
ATOM      1  C   UNL     1      -0.266   2.410  -0.028  0.00  0.00    +0.237 C 
ENDROOT
BRANCH   1   9
ATOM      2  C   UNL     1       5.726  -0.050   0.698  0.00  0.00    -0.043 C 
ATOM      3  C   UNL     1       3.897   1.333  -0.113  0.00  0.00    -0.000 C 
ATOM      4  C   UNL     1       3.008   0.654   0.754  0.00  0.00    -0.000 C 
ATOM      5  C   UNL     1       5.253   0.969  -0.129  0.00  0.00    -0.006 C 
ATOM      6  C   UNL     1       4.852  -0.717   1.551  0.00  0.00    -0.006 C 
ATOM      7  C   UNL     1       3.502  -0.369   1.580  0.00  0.00    -0.000 C 
ATOM      8  C   UNL     1       1.652   1.018   0.770  0.00  0.00    -0.001 C 
ATOM      9  C   UNL     1       1.178   2.037  -0.058  0.00  0.00    +0.021 C 
ATOM     10  C   UNL     1       3.403   2.356  -0.939  0.00  0.00    -0.000 C 
ATOM     11  C   UNL     1       2.052   2.705  -0.910  0.00  0.00    -0.001 C 
BRANCH   2  12
ATOM     12  C   UNL     1       7.170  -0.424   0.668  0.00  0.00    -0.050 C 
BRANCH  12  13
ATOM     13  N   UNL     1       7.454  -1.471  -0.314  0.00  0.00    +0.390 N 
ATOM     14  H   UNL     1       6.708  -2.165  -0.274  0.00  0.00    -0.079 HD
BRANCH  13  15
ATOM     15  C   UNL     1       7.489  -0.908  -1.663  0.00  0.00    -0.077 C 
ATOM     16  C   UNL     1       7.783  -1.980  -2.698  0.00  0.00    -0.025 C 
ENDBRANCH  13  15
BRANCH  13  17
ATOM     17  C   UNL     1       8.719  -2.133  -0.002  0.00  0.00    -0.077 C 
ATOM     18  C   UNL     1       8.678  -2.776   1.374  0.00  0.00    -0.025 C 
ENDBRANCH  13  17
ENDBRANCH  12  13
ENDBRANCH   2  12
ENDBRANCH   1   9
BRANCH   1  19
ATOM     19  O   UNL     1      -1.059   1.230  -0.040  0.00  0.00    -0.429 OA
BRANCH  19  22
ATOM     20  O   UNL     1      -2.952   2.512   0.014  0.00  0.00    -0.226 OA
ATOM     21  N   UNL     1      -3.039   0.173  -0.031  0.00  0.00    -0.250 N 
ATOM     22  C   UNL     1      -2.421   1.408  -0.015  0.00  0.00    +0.406 C 
ATOM     23  H   UNL     1      -2.440  -0.609  -0.056  0.00  0.00    +0.158 HD
BRANCH  21  24
ATOM     24  C   UNL     1      -4.424  -0.108  -0.016  0.00  0.00    +0.053 C 
ATOM     25  C   UNL     1      -5.347   0.938   0.019  0.00  0.00    +0.015 C 
ATOM     26  C   UNL     1      -4.868  -1.430  -0.035  0.00  0.00    +0.015 C 
ATOM     27  C   UNL     1      -7.158  -0.662   0.016  0.00  0.00    +0.055 C 
ATOM     28  C   UNL     1      -6.714   0.661   0.035  0.00  0.00    +0.006 C 
ATOM     29  C   UNL     1      -6.235  -1.707  -0.019  0.00  0.00    +0.006 C 
BRANCH  27  32
ATOM     30  O   UNL     1      -9.387  -0.157   0.557  0.00  0.00    -0.268 OA
ATOM     31  N   UNL     1      -8.995  -2.142  -0.545  0.00  0.00    -0.193 N 
ATOM     32  C   UNL     1      -8.583  -0.950   0.033  0.00  0.00    +0.268 C 
ATOM     33  H   UNL     1      -8.352  -2.764  -0.958  0.00  0.00    +0.183 HD
BRANCH  31  34
ATOM     34  O   UNL     1     -10.369  -2.420  -0.514  0.00  0.00    -0.295 OA
ATOM     35  H   UNL     1     -10.537  -3.273  -0.944  0.00  0.00    +0.241 HD
ENDBRANCH  31  34
ENDBRANCH  27  32
ENDBRANCH  21  24
ENDBRANCH  19  22
ENDBRANCH   1  19
TORSDOF 10
