REMARK  Name = 439378
REMARK  7 active torsions:
REMARK  status: ('A' for Active; 'I' for Inactive)
REMARK    1  A    between atoms: CA_1  and  N_2
REMARK    2  A    between atoms: CA_1  and  C_7
REMARK    3  A    between atoms: CA_1  and  C_10
REMARK    4  A    between atoms: C_7  and  O_8
REMARK    5  A    between atoms: C_10  and  C_11
REMARK    6  A    between atoms: C_11  and  C_14
REMARK    7  A    between atoms: N_13  and  C_16
REMARK                            x       y       z     vdW  Elec       q    Type
REMARK                         _______ _______ _______ _____ _____    ______ ____
ROOT
ATOM      1  CA  UNL     1       2.200  -0.547  -0.590  0.00  0.00    +0.036 C 
ENDROOT
BRANCH   1   2
ATOM      2  N   UNL     1       3.074  -1.692  -0.320  0.00  0.00    +0.389 N 
ATOM      3  H1  UNL     1       2.746  -2.502  -0.846  0.00  0.00    -0.088 HD
ATOM      4  H2  UNL     1       3.058  -1.904   0.677  0.00  0.00    -0.088 HD
ATOM      5  H3  UNL     1       4.028  -1.466  -0.604  0.00  0.00    -0.088 HD
ENDBRANCH   1   2
BRANCH   1   7
ATOM      6  OXT UNL     1       3.289   0.519   1.312  0.00  0.00    -0.253 OA
ATOM      7  C   UNL     1       2.745   0.616   0.220  0.00  0.00    +0.293 C 
BRANCH   7   8
ATOM      8  O   UNL     1       2.538   1.811  -0.393  0.00  0.00    -0.482 OA
ATOM      9  H   UNL     1       2.117   1.842  -1.230  0.00  0.00    +0.295 HD
ENDBRANCH   7   8
ENDBRANCH   1   7
BRANCH   1  10
ATOM     10  C   UNL     1       0.765  -0.890  -0.177  0.00  0.00    -0.001 C 
BRANCH  10  11
ATOM     11  C   UNL     1      -0.216   0.258  -0.427  0.00  0.00    +0.083 C 
BRANCH  11  14
ATOM     12  O   UNL     1      -1.968  -1.220   0.355  0.00  0.00    -0.275 OA
ATOM     13  N   UNL     1      -2.520   0.935  -0.314  0.00  0.00    -0.304 N 
ATOM     14  C   UNL     1      -1.647  -0.118  -0.082  0.00  0.00    +0.222 C 
ATOM     15  H   UNL     1      -2.157   1.779  -0.667  0.00  0.00    +0.149 HD
BRANCH  13  16
ATOM     16  C   UNL     1      -3.939   0.845  -0.061  0.00  0.00    +0.089 C 
ATOM     17  C   UNL     1      -4.322  -0.518   0.477  0.00  0.00    +0.023 C 
ENDBRANCH  13  16
ENDBRANCH  11  14
ENDBRANCH  10  11
ENDBRANCH   1  10
TORSDOF 7
