REMARK  Name = 108189
REMARK  2 active torsions:
REMARK  status: ('A' for Active; 'I' for Inactive)
REMARK    1  A    between atoms: C_7  and  S_17
REMARK    2  A    between atoms: S_17  and  C_19
REMARK                            x       y       z     vdW  Elec       q    Type
REMARK                         _______ _______ _______ _____ _____    ______ ____
ROOT
ATOM      1  O   UNL     1       0.550   1.605  -1.641  0.00  0.00    -0.209 OA
ATOM      2  N   UNL     1       3.287   0.001   0.799  0.00  0.00    -0.275 N 
ATOM      3  N   UNL     1       2.511   1.802  -0.551  0.00  0.00    -0.302 NA
ATOM      4  N   UNL     1       4.538   1.915   0.619  0.00  0.00    -0.320 N 
ATOM      5  C   UNL     1       1.182  -0.275  -0.338  0.00  0.00    +0.114 C 
ATOM      6  C   UNL     1       2.171  -0.787   0.511  0.00  0.00    +0.064 C 
ATOM      7  C   UNL     1       0.050  -1.031  -0.652  0.00  0.00    +0.039 C 
ATOM      8  C   UNL     1      -0.093  -2.309  -0.113  0.00  0.00    -0.015 C 
ATOM      9  C   UNL     1       2.018  -2.069   1.045  0.00  0.00    +0.015 C 
ATOM     10  C   UNL     1       0.888  -2.827   0.733  0.00  0.00    -0.002 C 
ATOM     11  C   UNL     1       1.372   1.094  -0.893  0.00  0.00    +0.209 C 
ATOM     12  C   UNL     1      -1.271  -3.192  -0.391  0.00  0.00    +0.032 C 
ATOM     13  C   UNL     1       3.392   1.258   0.248  0.00  0.00    +0.248 C 
ATOM     14  H   UNL     1       3.994  -0.340   1.393  0.00  0.00    +0.156 HD
ATOM     15  H   UNL     1       5.183   1.478   1.222  0.00  0.00    +0.146 HD
ATOM     16  H   UNL     1       4.717   2.823   0.283  0.00  0.00    +0.146 HD
ENDROOT
BRANCH   7  17
ATOM     17  S   UNL     1      -1.296  -0.492  -1.728  0.00  0.00    -0.086 S 
BRANCH  17  19
ATOM     18  N   UNL     1      -4.064   1.493   1.329  0.00  0.00    -0.242 NA
ATOM     19  C   UNL     1      -2.375   0.281  -0.538  0.00  0.00    +0.033 C 
ATOM     20  C   UNL     1      -1.923   1.359   0.215  0.00  0.00    +0.027 C 
ATOM     21  C   UNL     1      -3.669  -0.192  -0.359  0.00  0.00    +0.027 C 
ATOM     22  C   UNL     1      -2.799   1.925   1.127  0.00  0.00    +0.099 C 
ATOM     23  C   UNL     1      -4.468   0.443   0.578  0.00  0.00    +0.099 C 
ENDBRANCH  17  19
ENDBRANCH   7  17
TORSDOF 2
