16049404
  -OEChem-10051722443D

 68 71  0     0  0  0  0  0  0999 V2000
   -7.0180   -1.8474   -1.4386 O   0  0  0  0  0  0  0  0  0  0  0  0
    5.8214    1.5738    1.2447 O   0  0  0  0  0  0  0  0  0  0  0  0
   -7.5203   -0.0034   -0.1198 N   0  0  0  0  0  0  0  0  0  0  0  0
    6.1779   -0.4355    0.1232 N   0  0  0  0  0  0  0  0  0  0  0  0
    1.4848    2.2955   -0.2073 N   0  0  0  0  0  0  0  0  0  0  0  0
    3.1330    3.7114   -1.0604 N   0  0  0  0  0  0  0  0  0  0  0  0
   -8.4633    1.5132    1.4182 C   0  0  0  0  0  0  0  0  0  0  0  0
   -9.5088    1.1619    0.3672 C   0  0  0  0  0  0  0  0  0  0  0  0
   -7.1576    1.1205    0.7416 C   0  0  0  0  0  0  0  0  0  0  0  0
   -8.9665   -0.1273   -0.2300 C   0  0  0  0  0  0  0  0  0  0  0  0
   -6.6651   -0.9147   -0.7194 C   0  0  0  0  0  0  0  0  0  0  0  0
   -5.2232   -0.7632   -0.4672 C   0  0  0  0  0  0  0  0  0  0  0  0
    7.5954   -0.5494    0.4582 C   0  0  0  0  0  0  0  0  0  0  0  0
    5.6339   -1.5158   -0.6895 C   0  0  0  0  0  0  0  0  0  0  0  0
   -4.4475    0.0305   -1.3122 C   0  0  0  0  0  0  0  0  0  0  0  0
   -4.6322   -1.4128    0.6165 C   0  0  0  0  0  0  0  0  0  0  0  0
    3.9786    0.6467    0.1737 C   0  0  0  0  0  0  0  0  0  0  0  0
   -2.4897   -0.4752    0.0099 C   0  0  0  0  0  0  0  0  0  0  0  0
    5.3942    0.6400    0.5545 C   0  0  0  0  0  0  0  0  0  0  0  0
   -1.0723   -0.3239    0.2572 C   0  0  0  0  0  0  0  0  0  0  0  0
    3.5759    1.2988   -1.1088 C   0  0  0  0  0  0  0  0  0  0  0  0
    8.4921    0.1172   -0.5782 C   0  0  0  0  0  0  0  0  0  0  0  0
    5.0838   -2.6580    0.1562 C   0  0  0  0  0  0  0  0  0  0  0  0
    1.6780   -0.0202    0.7271 C   0  0  0  0  0  0  0  0  0  0  0  0
   -3.0808    0.1745   -1.0736 C   0  0  0  0  0  0  0  0  0  0  0  0
   -3.2654   -1.2688    0.8550 C   0  0  0  0  0  0  0  0  0  0  0  0
    3.1195    0.0517    1.0135 C   0  0  0  0  0  0  0  0  0  0  0  0
    0.9539    1.0307    0.1216 C   0  0  0  0  0  0  0  0  0  0  0  0
   -0.4225    0.8570   -0.1011 C   0  0  0  0  0  0  0  0  0  0  0  0
   -0.3576   -1.3507    0.8612 C   0  0  0  0  0  0  0  0  0  0  0  0
    1.0074   -1.1982    1.1003 C   0  0  0  0  0  0  0  0  0  0  0  0
    2.6559    2.4575   -0.7605 C   0  0  0  0  0  0  0  0  0  0  0  0
    9.9720   -0.0156   -0.2482 C   0  0  0  0  0  0  0  0  0  0  0  0
    4.5331   -3.8007   -0.6852 C   0  0  0  0  0  0  0  0  0  0  0  0
   -8.6204    0.9026    2.3156 H   0  0  0  0  0  0  0  0  0  0  0  0
   -8.4863    2.5665    1.7103 H   0  0  0  0  0  0  0  0  0  0  0  0
   -9.5426    1.9463   -0.3983 H   0  0  0  0  0  0  0  0  0  0  0  0
  -10.5127    1.0442    0.7838 H   0  0  0  0  0  0  0  0  0  0  0  0
   -6.7812    1.9234    0.0985 H   0  0  0  0  0  0  0  0  0  0  0  0
   -6.3816    0.8427    1.4593 H   0  0  0  0  0  0  0  0  0  0  0  0
   -9.2725   -1.0022    0.3543 H   0  0  0  0  0  0  0  0  0  0  0  0
   -9.2643   -0.2778   -1.2719 H   0  0  0  0  0  0  0  0  0  0  0  0
    7.8530   -1.6076    0.5798 H   0  0  0  0  0  0  0  0  0  0  0  0
    7.7553   -0.0662    1.4294 H   0  0  0  0  0  0  0  0  0  0  0  0
    6.4270   -1.8867   -1.3504 H   0  0  0  0  0  0  0  0  0  0  0  0
    4.8504   -1.1384   -1.3527 H   0  0  0  0  0  0  0  0  0  0  0  0
   -4.8977    0.5356   -2.1629 H   0  0  0  0  0  0  0  0  0  0  0  0
   -5.2295   -2.0277    1.2848 H   0  0  0  0  0  0  0  0  0  0  0  0
    3.0528    0.5992   -1.7706 H   0  0  0  0  0  0  0  0  0  0  0  0
    4.4525    1.6625   -1.6564 H   0  0  0  0  0  0  0  0  0  0  0  0
    8.3090   -0.3204   -1.5667 H   0  0  0  0  0  0  0  0  0  0  0  0
    8.2363    1.1807   -0.6587 H   0  0  0  0  0  0  0  0  0  0  0  0
    5.8805   -3.0529    0.7985 H   0  0  0  0  0  0  0  0  0  0  0  0
    4.2990   -2.3150    0.8327 H   0  0  0  0  0  0  0  0  0  0  0  0
   -2.5119    0.7773   -1.7762 H   0  0  0  0  0  0  0  0  0  0  0  0
   -2.8553   -1.7687    1.7283 H   0  0  0  0  0  0  0  0  0  0  0  0
    3.4602   -0.4168    1.9329 H   0  0  0  0  0  0  0  0  0  0  0  0
   -0.9694    1.6959   -0.5286 H   0  0  0  0  0  0  0  0  0  0  0  0
   -0.8106   -2.2987    1.1370 H   0  0  0  0  0  0  0  0  0  0  0  0
    1.5494   -2.0184    1.5672 H   0  0  0  0  0  0  0  0  0  0  0  0
   10.2000    0.4488    0.7164 H   0  0  0  0  0  0  0  0  0  0  0  0
   10.2688   -1.0681   -0.2025 H   0  0  0  0  0  0  0  0  0  0  0  0
   10.5778    0.4766   -1.0154 H   0  0  0  0  0  0  0  0  0  0  0  0
    3.7025   -3.4583   -1.3106 H   0  0  0  0  0  0  0  0  0  0  0  0
    5.3083   -4.2151   -1.3375 H   0  0  0  0  0  0  0  0  0  0  0  0
    4.1651   -4.6045   -0.0401 H   0  0  0  0  0  0  0  0  0  0  0  0
    4.0426    3.8562   -1.4854 H   0  0  0  0  0  0  0  0  0  0  0  0
    2.5819    4.5387   -0.8583 H   0  0  0  0  0  0  0  0  0  0  0  0
  1 11  2  0  0  0  0
  2 19  2  0  0  0  0
  3  9  1  0  0  0  0
  3 10  1  0  0  0  0
  3 11  1  0  0  0  0
  4 13  1  0  0  0  0
  4 14  1  0  0  0  0
  4 19  1  0  0  0  0
  5 28  1  0  0  0  0
  5 32  2  0  0  0  0
  6 32  1  0  0  0  0
  6 67  1  0  0  0  0
  6 68  1  0  0  0  0
  7  8  1  0  0  0  0
  7  9  1  0  0  0  0
  7 35  1  0  0  0  0
  7 36  1  0  0  0  0
  8 10  1  0  0  0  0
  8 37  1  0  0  0  0
  8 38  1  0  0  0  0
  9 39  1  0  0  0  0
  9 40  1  0  0  0  0
 10 41  1  0  0  0  0
 10 42  1  0  0  0  0
 11 12  1  0  0  0  0
 12 15  2  0  0  0  0
 12 16  1  0  0  0  0
 13 22  1  0  0  0  0
 13 43  1  0  0  0  0
 13 44  1  0  0  0  0
 14 23  1  0  0  0  0
 14 45  1  0  0  0  0
 14 46  1  0  0  0  0
 15 25  1  0  0  0  0
 15 47  1  0  0  0  0
 16 26  2  0  0  0  0
 16 48  1  0  0  0  0
 17 19  1  0  0  0  0
 17 21  1  0  0  0  0
 17 27  2  0  0  0  0
 18 20  1  0  0  0  0
 18 25  2  0  0  0  0
 18 26  1  0  0  0  0
 20 29  2  0  0  0  0
 20 30  1  0  0  0  0
 21 32  1  0  0  0  0
 21 49  1  0  0  0  0
 21 50  1  0  0  0  0
 22 33  1  0  0  0  0
 22 51  1  0  0  0  0
 22 52  1  0  0  0  0
 23 34  1  0  0  0  0
 23 53  1  0  0  0  0
 23 54  1  0  0  0  0
 24 27  1  0  0  0  0
 24 28  2  0  0  0  0
 24 31  1  0  0  0  0
 25 55  1  0  0  0  0
 26 56  1  0  0  0  0
 27 57  1  0  0  0  0
 28 29  1  0  0  0  0
 29 58  1  0  0  0  0
 30 31  2  0  0  0  0
 30 59  1  0  0  0  0
 31 60  1  0  0  0  0
 33 61  1  0  0  0  0
 33 62  1  0  0  0  0
 33 63  1  0  0  0  0
 34 64  1  0  0  0  0
 34 65  1  0  0  0  0
 34 66  1  0  0  0  0
M  END
> <DATABASE_ID>
DB12303

> <DATABASE_NAME>
drugbank

> <ORIGINAL_SOURCE>
PUBCHEM

> <ORIGINAL_SOURCE_URL>
https://pubchem.ncbi.nlm.nih.gov/rest/pug/compound/inchikey/QSPOQCXMGPDIHI-UHFFFAOYSA-N/SDF?record_type=3d

> <SMILES>
CCCN(CCC)C(=O)C1=CC2=CC=C(C=C2N=C(N)C1)C1=CC=C(C=C1)C(=O)N1CCCC1

> <INCHI_IDENTIFIER>
InChI=1S/C28H34N4O2/c1-3-13-31(14-4-2)28(34)24-17-23-12-11-22(18-25(23)30-26(29)19-24)20-7-9-21(10-8-20)27(33)32-15-5-6-16-32/h7-12,17-18H,3-6,13-16,19H2,1-2H3,(H2,29,30)

> <INCHI_KEY>
QSPOQCXMGPDIHI-UHFFFAOYSA-N

> <FORMULA>
C28H34N4O2

> <MOLECULAR_WEIGHT>
458.606

> <EXACT_MASS>
458.268176351

> <JCHEM_ACCEPTOR_COUNT>
4

> <JCHEM_ATOM_COUNT>
68

> <JCHEM_AVERAGE_POLARIZABILITY>
54.06193485296104

> <JCHEM_BIOAVAILABILITY>
1

> <JCHEM_DONOR_COUNT>
1

> <JCHEM_FORMAL_CHARGE>
0

> <JCHEM_GHOSE_FILTER>
0

> <JCHEM_IUPAC>
2-amino-N,N-dipropyl-8-[4-(pyrrolidine-1-carbonyl)phenyl]-3H-1-benzazepine-4-carboxamide

> <ALOGPS_LOGP>
4.67

> <JCHEM_LOGP>
3.744785925666667

> <ALOGPS_LOGS>
-4.98

> <JCHEM_MDDR_LIKE_RULE>
1

> <JCHEM_NUMBER_OF_RINGS>
4

> <JCHEM_PHYSIOLOGICAL_CHARGE>
1

> <JCHEM_PKA_STRONGEST_BASIC>
7.925190489208614

> <JCHEM_POLAR_SURFACE_AREA>
78.99999999999999

> <JCHEM_REFRACTIVITY>
140.02509999999998

> <JCHEM_ROTATABLE_BOND_COUNT>
7

> <JCHEM_RULE_OF_FIVE>
1

> <ALOGPS_SOLUBILITY>
4.85e-03 g/l

> <JCHEM_TRADITIONAL_IUPAC>
2-amino-N,N-dipropyl-8-[4-(pyrrolidine-1-carbonyl)phenyl]-3H-1-benzazepine-4-carboxamide

> <JCHEM_VEBER_RULE>
0

> <DRUGBANK_ID>
DB12303

> <DRUG_GROUPS>
investigational

> <GENERIC_NAME>
Motolimod

$$$$
