REMARK  Name = 10297982
REMARK  7 active torsions:
REMARK  status: ('A' for Active; 'I' for Inactive)
REMARK    1  A    between atoms: N_2  and  C_16
REMARK    2  A    between atoms: N_3  and  CA_30
REMARK    3  A    between atoms: C_8  and  C_23
REMARK    4  A    between atoms: CA_30  and  CB_31
REMARK    5  A    between atoms: CA_30  and  C_34
REMARK    6  A    between atoms: CB_31  and  O_32
REMARK    7  A    between atoms: C_34  and  O_35
REMARK                            x       y       z     vdW  Elec       q    Type
REMARK                         _______ _______ _______ _____ _____    ______ ____
ROOT
ATOM      1  O   UNL     1       1.636   4.064  -0.067  0.00  0.00    -0.269 OA
ATOM      2  N   UNL     1       1.346   1.734  -0.009  0.00  0.00    -0.206 N 
ATOM      3  N   UNL     1       0.374  -2.950  -0.036  0.00  0.00    -0.255 N 
ATOM      4  N   UNL     1       0.851  -0.652  -0.022  0.00  0.00    -0.316 NA
ATOM      5  N   UNL     1      -1.418  -1.444   0.074  0.00  0.00    -0.332 NA
ATOM      6  C   UNL     1      -0.941   0.920   0.076  0.00  0.00    +0.144 C 
ATOM      7  C   UNL     1       0.419   0.632   0.035  0.00  0.00    +0.194 C 
ATOM      8  C   UNL     1      -1.814  -0.158   0.102  0.00  0.00    +0.134 C 
ATOM      9  C   ACE A   0      -0.090  -1.617   0.008  0.00  0.00    +0.200 C 
ATOM     10  C   UNL     1      -1.424   2.288   0.061  0.00  0.00    -0.006 C 
ATOM     11  C   UNL     1       0.911   3.069  -0.050  0.00  0.00    +0.258 C 
ATOM     12  C   UNL     1      -0.558   3.298  -0.013  0.00  0.00    +0.055 C 
ATOM     13  H   UNL     1      -0.287  -3.679  -0.014  0.00  0.00    +0.160 HD
ENDROOT
BRANCH   2  16
ATOM     14  F   UNL     1       2.743   1.368  -2.400  0.00  0.00    -0.203 F 
ATOM     15  F   UNL     1       2.825   1.487   2.349  0.00  0.00    -0.203 F 
ATOM     16  C   UNL     1       2.752   1.435  -0.025  0.00  0.00    +0.115 C 
ATOM     17  C   UNL     1       3.408   1.260  -1.241  0.00  0.00    +0.156 C 
ATOM     18  C   UNL     1       3.450   1.321   1.174  0.00  0.00    +0.156 C 
ATOM     19  C   UNL     1       4.773   0.970  -1.257  0.00  0.00    +0.031 C 
ATOM     20  C   UNL     1       4.814   1.030   1.158  0.00  0.00    +0.031 C 
ATOM     21  C   UNL     1       5.476   0.855  -0.058  0.00  0.00    +0.005 C 
ENDBRANCH   2  16
BRANCH   8  23
ATOM     22  F   UNL     1      -7.360   0.377   0.378  0.00  0.00    -0.204 F 
ATOM     23  C   UNL     1      -3.255  -0.019   0.153  0.00  0.00    +0.023 C 
ATOM     24  C   UNL     1      -4.014   0.056  -1.015  0.00  0.00    -0.017 C 
ATOM     25  C   UNL     1      -3.883   0.039   1.397  0.00  0.00    +0.004 C 
ATOM     26  C   UNL     1      -5.401   0.190  -0.939  0.00  0.00    +0.025 C 
ATOM     27  C   UNL     1      -3.377  -0.004  -2.367  0.00  0.00    +0.031 C 
ATOM     28  C   UNL     1      -5.270   0.173   1.473  0.00  0.00    +0.030 C 
ATOM     29  C   UNL     1      -6.028   0.248   0.305  0.00  0.00    +0.140 C 
ENDBRANCH   8  23
BRANCH   3  30
ATOM     30  CA  UNL     1       1.761  -3.287  -0.109  0.00  0.00    +0.139 C 
BRANCH  30  31
ATOM     31  CB  UNL     1       2.374  -3.163   1.284  0.00  0.00    +0.160 C 
BRANCH  31  32
ATOM     32  O   UNL     1       1.691  -4.034   2.179  0.00  0.00    -0.380 OA
ATOM     33  H   UNL     1       2.079  -3.956   3.064  0.00  0.00    +0.211 HD
ENDBRANCH  31  32
ENDBRANCH  30  31
BRANCH  30  34
ATOM     34  C   UNL     1       1.905  -4.707  -0.650  0.00  0.00    +0.160 C 
BRANCH  34  35
ATOM     35  O   UNL     1       1.325  -4.778  -1.948  0.00  0.00    -0.380 OA
ATOM     36  H   UNL     1       1.416  -5.680  -2.294  0.00  0.00    +0.211 HD
ENDBRANCH  34  35
ENDBRANCH  30  34
ENDBRANCH   3  30
TORSDOF 7
