REMARK  Name = 16363
REMARK  6 active torsions:
REMARK  status: ('A' for Active; 'I' for Inactive)
REMARK    1  A    between atoms: N_1  and  C_19
REMARK    2  A    between atoms: C_2  and  N_9
REMARK    3  A    between atoms: C_19  and  C_20
REMARK    4  A    between atoms: C_20  and  C_21
REMARK    5  A    between atoms: C_21  and  C_23
REMARK    6  A    between atoms: C_23  and  C_25
REMARK                            x       y       z     vdW  Elec       q    Type
REMARK                         _______ _______ _______ _____ _____    ______ ____
ROOT
ATOM      1  N   UNL     1       0.161   2.264   0.543  0.00  0.00    +0.387 N 
ATOM      2  C   UNL     1      -2.413   0.952   0.081  0.00  0.00    +0.086 C 
ATOM      3  C   UNL     1      -1.182   0.662  -0.778  0.00  0.00    -0.000 C 
ATOM      4  C   UNL     1      -1.986   1.449   1.462  0.00  0.00    -0.000 C 
ATOM      5  C   UNL     1      -0.234   1.862  -0.814  0.00  0.00    -0.075 C 
ATOM      6  C   UNL     1      -1.011   2.623   1.354  0.00  0.00    -0.075 C 
ATOM      7  H   UNL     1       0.618   1.468   0.987  0.00  0.00    -0.080 HD
ENDROOT
BRANCH   2   9
ATOM      8  O   UNL     1      -1.793  -1.754   1.259  0.00  0.00    -0.247 OA
ATOM      9  N   UNL     1      -3.255  -0.212   0.192  0.00  0.00    -0.282 N 
ATOM     10  N   UNL     1      -4.015  -2.296   0.657  0.00  0.00    -0.305 N 
ATOM     11  C   UNL     1      -4.582  -0.300  -0.250  0.00  0.00    +0.079 A 
ATOM     12  C   UNL     1      -2.872  -1.454   0.768  0.00  0.00    +0.328 A 
ATOM     13  C   UNL     1      -5.042  -1.583   0.039  0.00  0.00    +0.076 A 
ATOM     14  C   UNL     1      -5.388   0.633  -0.867  0.00  0.00    +0.019 C 
ATOM     15  C   UNL     1      -6.319  -1.997  -0.270  0.00  0.00    +0.019 C 
ATOM     16  C   UNL     1      -6.690   0.237  -1.191  0.00  0.00    +0.002 C 
ATOM     17  C   UNL     1      -7.150  -1.064  -0.896  0.00  0.00    +0.002 C 
ATOM     18  H   UNL     1      -4.071  -3.229   0.967  0.00  0.00    +0.170 HD
ENDBRANCH   2   9
BRANCH   1  19
ATOM     19  C   UNL     1       1.107   3.379   0.491  0.00  0.00    -0.077 C 
BRANCH  19  20
ATOM     20  C   UNL     1       2.371   2.965  -0.265  0.00  0.00    -0.015 C 
BRANCH  20  21
ATOM     21  C   UNL     1       3.082   1.781   0.396  0.00  0.00    +0.067 C 
BRANCH  21  23
ATOM     22  O   UNL     1       5.072   2.217  -0.898  0.00  0.00    -0.291 OA
ATOM     23  C   UNL     1       4.385   1.398  -0.291  0.00  0.00    +0.173 C 
BRANCH  23  25
ATOM     24  F   UNL     1       6.120  -3.899   0.032  0.00  0.00    -0.204 F 
ATOM     25  C   UNL     1       4.849  -0.016  -0.205  0.00  0.00    +0.035 C 
ATOM     26  C   UNL     1       4.517  -0.753   0.910  0.00  0.00    +0.005 C 
ATOM     27  C   UNL     1       5.591  -0.533  -1.243  0.00  0.00    +0.005 C 
ATOM     28  C   UNL     1       4.950  -2.076   0.991  0.00  0.00    +0.030 C 
ATOM     29  C   UNL     1       6.024  -1.856  -1.162  0.00  0.00    +0.030 C 
ATOM     30  C   UNL     1       5.704  -2.628  -0.046  0.00  0.00    +0.140 C 
ENDBRANCH  23  25
ENDBRANCH  21  23
ENDBRANCH  20  21
ENDBRANCH  19  20
ENDBRANCH   1  19
TORSDOF 6
