REMARK  Name = 97226
REMARK  3 active torsions:
REMARK  status: ('A' for Active; 'I' for Inactive)
REMARK    1  A    between atoms: C_6  and  O_24
REMARK    2  A    between atoms: C_6  and  C_28
REMARK    3  A    between atoms: C_22  and  O_26
REMARK                            x       y       z     vdW  Elec       q    Type
REMARK                         _______ _______ _______ _____ _____    ______ ____
ROOT
ATOM      1  O   UNL     1      -5.127  -0.668   0.415  0.00  0.00    -0.442 OA
ATOM      2  O   UNL     1      -1.958  -3.407  -0.190  0.00  0.00    -0.270 OA
ATOM      3  O   UNL     1      -5.641   1.370   1.205  0.00  0.00    -0.247 OA
ATOM      4  N   UNL     1      -0.395  -1.707  -0.075  0.00  0.00    -0.249 N 
ATOM      5  N   UNL     1       2.024   0.953   0.056  0.00  0.00    -0.405 NA
ATOM      6  C   UNL     1      -3.547   1.172   0.018  0.00  0.00    +0.196 C 
ATOM      7  C   UNL     1      -2.454   0.139   0.010  0.00  0.00    +0.017 C 
ATOM      8  C   UNL     1      -0.102  -0.355  -0.009  0.00  0.00    +0.084 C 
ATOM      9  C   UNL     1      -2.766  -1.167  -0.069  0.00  0.00    +0.074 C 
ATOM     10  C   UNL     1       0.840  -2.517  -0.112  0.00  0.00    +0.128 C 
ATOM     11  C   UNL     1      -1.064   0.570   0.029  0.00  0.00    +0.016 C 
ATOM     12  C   UNL     1       1.905  -1.471  -0.060  0.00  0.00    +0.029 C 
ATOM     13  C   UNL     1       1.346  -0.202  -0.001  0.00  0.00    +0.142 C 
ATOM     14  C   UNL     1      -1.682  -2.212  -0.116  0.00  0.00    +0.252 C 
ATOM     15  C   UNL     1      -4.185  -1.619  -0.127  0.00  0.00    +0.239 C 
ATOM     16  C   UNL     1      -4.847   0.642   0.611  0.00  0.00    +0.346 C 
ATOM     17  C   UNL     1       3.275  -1.584  -0.064  0.00  0.00    +0.002 C 
ATOM     18  C   UNL     1       4.038  -0.407  -0.007  0.00  0.00    +0.029 C 
ATOM     19  C   UNL     1       3.368   0.848   0.052  0.00  0.00    +0.114 C 
ATOM     20  C   UNL     1       5.441  -0.456  -0.008  0.00  0.00    +0.038 C 
ATOM     21  C   UNL     1       4.146   2.001   0.108  0.00  0.00    +0.088 C 
ATOM     22  C   UNL     1       6.189   0.717   0.049  0.00  0.00    +0.130 C 
ATOM     23  C   UNL     1       5.542   1.944   0.107  0.00  0.00    +0.018 C 
ENDROOT
BRANCH   6  24
ATOM     24  O   UNL     1      -3.179   2.256   0.875  0.00  0.00    -0.373 OA
ATOM     25  H   UNL     1      -2.351   2.651   0.559  0.00  0.00    +0.211 HD
ENDBRANCH   6  24
BRANCH  22  26
ATOM     26  O   UNL     1       7.548   0.661   0.049  0.00  0.00    -0.506 OA
ATOM     27  H   UNL     1       7.983  -0.168   0.010  0.00  0.00    +0.292 HD
ENDBRANCH  22  26
BRANCH   6  28
ATOM     28  C   UNL     1      -3.819   1.719  -1.385  0.00  0.00    +0.042 C 
ATOM     29  C   UNL     1      -4.898   2.782  -1.361  0.00  0.00    +0.003 C 
ENDBRANCH   6  28
TORSDOF 3
