REMARK  Name = 4621
REMARK  13 active torsions:
REMARK  status: ('A' for Active; 'I' for Inactive)
REMARK    1  A    between atoms: N_1  and  C_3
REMARK    2  A    between atoms: N_1  and  C_18
REMARK    3  A    between atoms: N_1  and  C_33
REMARK    4  A    between atoms: C_3  and  C_6
REMARK    5  A    between atoms: N_5  and  C_8
REMARK    6  A    between atoms: C_8  and  C_11
REMARK    7  A    between atoms: C_11  and  C_12
REMARK    8  A    between atoms: C_18  and  C_21
REMARK    9  A    between atoms: N_20  and  C_23
REMARK   10  A    between atoms: C_23  and  C_26
REMARK   11  A    between atoms: C_26  and  C_27
REMARK   12  A    between atoms: C_33  and  C_34
REMARK   13  A    between atoms: C_34  and  O_35
REMARK                            x       y       z     vdW  Elec       q    Type
REMARK                         _______ _______ _______ _____ _____    ______ ____
ROOT
ATOM      1  N   UNL     1      -1.560  -2.633   0.134  0.00  0.00    +0.400 N 
ATOM      2  H   UNL     1      -1.460  -2.207   1.055  0.00  0.00    -0.078 HD
ENDROOT
BRANCH   1   3
ATOM      3  C   UNL     1      -1.952  -1.592  -0.809  0.00  0.00    +0.011 C 
BRANCH   3   6
ATOM      4  O   UNL     1      -3.365  -0.880   0.998  0.00  0.00    -0.277 OA
ATOM      5  N   UNL     1      -3.452   0.371  -0.952  0.00  0.00    -0.282 N 
ATOM      6  C   UNL     1      -2.981  -0.683  -0.158  0.00  0.00    +0.205 C 
ATOM      7  C   UNL     1      -2.987   0.590  -2.319  0.00  0.00    +0.115 C 
BRANCH   5   8
ATOM      8  C   UNL     1      -4.441   1.329  -0.472  0.00  0.00    +0.064 C 
ATOM      9  C   UNL     1      -5.718   0.552  -0.107  0.00  0.00    +0.020 C 
ATOM     10  C   UNL     1      -4.775   2.318  -1.599  0.00  0.00    +0.020 C 
BRANCH   8  11
ATOM     11  C   UNL     1      -3.928   2.055   0.799  0.00  0.00    +0.045 C 
BRANCH  11  12
ATOM     12  C   UNL     1      -2.669   2.876   0.629  0.00  0.00    -0.021 C 
ATOM     13  C   UNL     1      -1.420   2.288   0.832  0.00  0.00    -0.004 C 
ATOM     14  C   UNL     1      -2.757   4.220   0.269  0.00  0.00    -0.004 C 
ATOM     15  C   UNL     1      -0.259   3.045   0.675  0.00  0.00    -0.000 C 
ATOM     16  C   UNL     1      -1.595   4.977   0.111  0.00  0.00    -0.000 C 
ATOM     17  C   UNL     1      -0.347   4.389   0.314  0.00  0.00    -0.000 C 
ENDBRANCH  11  12
ENDBRANCH   8  11
ENDBRANCH   5   8
ENDBRANCH   3   6
ENDBRANCH   1   3
BRANCH   1  18
ATOM     18  C   UNL     1      -0.275  -3.219  -0.251  0.00  0.00    +0.011 C 
BRANCH  18  21
ATOM     19  O   UNL     1       0.732  -1.597   1.206  0.00  0.00    -0.277 OA
ATOM     20  N   UNL     1       2.010  -2.330  -0.584  0.00  0.00    -0.282 N 
ATOM     21  C   UNL     1       0.852  -2.307   0.203  0.00  0.00    +0.205 C 
ATOM     22  C   UNL     1       2.433  -3.519  -1.319  0.00  0.00    +0.115 C 
BRANCH  20  23
ATOM     23  C   UNL     1       2.880  -1.169  -0.728  0.00  0.00    +0.064 C 
ATOM     24  C   UNL     1       3.511  -1.181  -2.129  0.00  0.00    +0.020 C 
ATOM     25  C   UNL     1       2.015   0.095  -0.591  0.00  0.00    +0.020 C 
BRANCH  23  26
ATOM     26  C   UNL     1       3.957  -1.151   0.389  0.00  0.00    +0.045 C 
BRANCH  26  27
ATOM     27  C   UNL     1       4.904   0.029   0.376  0.00  0.00    -0.021 C 
ATOM     28  C   UNL     1       6.094  -0.041  -0.348  0.00  0.00    -0.004 C 
ATOM     29  C   UNL     1       4.586   1.186   1.087  0.00  0.00    -0.004 C 
ATOM     30  C   UNL     1       6.967   1.047  -0.361  0.00  0.00    -0.000 C 
ATOM     31  C   UNL     1       5.459   2.274   1.074  0.00  0.00    -0.000 C 
ATOM     32  C   UNL     1       6.649   2.204   0.350  0.00  0.00    -0.000 C 
ENDBRANCH  26  27
ENDBRANCH  23  26
ENDBRANCH  20  23
ENDBRANCH  18  21
ENDBRANCH   1  18
BRANCH   1  33
ATOM     33  C   UNL     1      -2.589  -3.672   0.211  0.00  0.00    -0.044 C 
BRANCH  33  34
ATOM     34  C   UNL     1      -2.476  -4.444   1.516  0.00  0.00    +0.115 C 
BRANCH  34  35
ATOM     35  O   UNL     1      -3.502  -5.427   1.555  0.00  0.00    -0.384 OA
ATOM     36  H   UNL     1      -3.439  -5.927   2.385  0.00  0.00    +0.210 HD
ENDBRANCH  34  35
ENDBRANCH  33  34
ENDBRANCH   1  33
TORSDOF 13
