REMARK  Name = 23729157
REMARK  4 active torsions:
REMARK  status: ('A' for Active; 'I' for Inactive)
REMARK    1  A    between atoms: N_2  and  C_14
REMARK    2  A    between atoms: C_9  and  C_12
REMARK    3  A    between atoms: C_14  and  C_15
REMARK    4  A    between atoms: C_14  and  C_17
REMARK                            x       y       z     vdW  Elec       q    Type
REMARK                         _______ _______ _______ _____ _____    ______ ____
ROOT
ATOM      1  O   UNL     1      -3.157  -1.505  -0.003  0.00  0.00    -0.246 OA
ATOM      2  N   UNL     1      -1.255  -0.083  -0.001  0.00  0.00    -0.256 N 
ATOM      3  N   UNL     1      -0.936  -2.316  -0.001  0.00  0.00    -0.289 N 
ATOM      4  N   UNL     1       1.133   0.557   0.001  0.00  0.00    -0.375 NA
ATOM      5  N   UNL     1       1.521  -2.270   0.001  0.00  0.00    -0.242 NA
ATOM      6  C   UNL     1       0.125  -0.323   0.000  0.00  0.00    +0.233 A 
ATOM      7  C   UNL     1      -1.948  -1.317  -0.002  0.00  0.00    +0.331 A 
ATOM      8  C   UNL     1       0.316  -1.693   0.000  0.00  0.00    +0.187 A 
ATOM      9  C   UNL     1       2.360  -0.013   0.001  0.00  0.00    +0.178 C 
ATOM     10  C   UNL     1       2.549  -1.391   0.001  0.00  0.00    +0.194 C 
ATOM     11  H   UNL     1      -1.091  -3.288  -0.001  0.00  0.00    +0.172 HD
ENDROOT
BRANCH   9  12
ATOM     12  C   UNL     1       3.457   0.895   0.002  0.00  0.00    -0.022 C 
ATOM     13  C   UNL     1       4.381   1.661   0.003  0.00  0.00    -0.007 C 
ENDBRANCH   9  12
BRANCH   2  14
ATOM     14  C   UNL     1      -1.876   1.223  -0.001  0.00  0.00    +0.092 C 
BRANCH  14  15
ATOM     15  C   UNL     1      -1.482   2.009  -1.261  0.00  0.00    +0.023 C 
ATOM     16  C   UNL     1      -1.841   1.280  -2.550  0.00  0.00    +0.002 C 
ENDBRANCH  14  15
BRANCH  14  17
ATOM     17  C   UNL     1      -1.489   2.008   1.262  0.00  0.00    +0.023 C 
ATOM     18  C   UNL     1      -1.856   1.276   2.547  0.00  0.00    +0.002 C 
ENDBRANCH  14  17
ENDBRANCH   2  14
TORSDOF 4
