REMARK  Name = 455041
REMARK  3 active torsions:
REMARK  status: ('A' for Active; 'I' for Inactive)
REMARK    1  A    between atoms: N_2  and  C_13
REMARK    2  A    between atoms: C_15  and  C_16
REMARK    3  A    between atoms: C_16  and  O_17
REMARK                            x       y       z     vdW  Elec       q    Type
REMARK                         _______ _______ _______ _____ _____    ______ ____
ROOT
ATOM      1  O   UNL     1      -1.754   2.286  -0.649  0.00  0.00    -0.193 OA
ATOM      2  N   UNL     1      -0.676   0.352  -0.006  0.00  0.00    -0.193 N 
ATOM      3  N   UNL     1      -3.052   0.463  -0.268  0.00  0.00    -0.306 NA
ATOM      4  N   UNL     1      -4.376  -1.408   0.125  0.00  0.00    -0.332 N 
ATOM      5  C   UNL     1      -0.773  -0.972   0.355  0.00  0.00    +0.082 C 
ATOM      6  C   UNL     1      -1.823   1.099  -0.326  0.00  0.00    +0.274 C 
ATOM      7  C   UNL     1      -1.945  -1.601   0.417  0.00  0.00    +0.065 C 
ATOM      8  C   UNL     1      -3.145  -0.795   0.074  0.00  0.00    +0.193 C 
ATOM      9  H   UNL     1      -5.189  -0.899  -0.097  0.00  0.00    +0.145 HD
ATOM     10  H   UNL     1      -4.444  -2.355   0.384  0.00  0.00    +0.145 HD
ENDROOT
BRANCH   2  13
ATOM     11  S   UNL     1       1.715   0.103  -1.205  0.00  0.00    -0.087 S 
ATOM     12  O   UNL     1       2.764   1.068   1.033  0.00  0.00    -0.340 OA
ATOM     13  C   UNL     1       0.628   0.941  -0.044  0.00  0.00    +0.169 C 
ATOM     14  C   UNL     1       1.373   0.820   1.276  0.00  0.00    +0.175 C 
ATOM     15  C   UNL     1       3.160   0.342  -0.139  0.00  0.00    +0.193 C 
BRANCH  15  16
ATOM     16  C   UNL     1       3.764  -0.995   0.264  0.00  0.00    +0.178 C 
BRANCH  16  17
ATOM     17  O   UNL     1       4.139  -1.701  -0.908  0.00  0.00    -0.379 OA
ATOM     18  H   UNL     1       4.525  -2.556  -0.660  0.00  0.00    +0.211 HD
ENDBRANCH  16  17
ENDBRANCH  15  16
ENDBRANCH   2  13
TORSDOF 3
