REMARK  Name = 65853
REMARK  1 active torsions:
REMARK  status: ('A' for Active; 'I' for Inactive)
REMARK    1  A    between atoms: C_3  and  N_11
REMARK                            x       y       z     vdW  Elec       q    Type
REMARK                         _______ _______ _______ _____ _____    ______ ____
ROOT
ATOM      1  O   UNL     1       0.701  -1.497  -0.218  0.00  0.00    -0.467 OA
ATOM      2  O   UNL     1       3.409  -0.522  -0.051  0.00  0.00    -0.468 OA
ATOM      3  C   UNL     1      -0.066   0.721   0.024  0.00  0.00    +0.085 C 
ATOM      4  C   UNL     1       1.004  -0.169  -0.069  0.00  0.00    +0.186 C 
ATOM      5  C   UNL     1       0.178   2.088   0.156  0.00  0.00    +0.018 C 
ATOM      6  C   UNL     1       2.317   0.304   0.001  0.00  0.00    +0.174 C 
ATOM      7  C   UNL     1       1.834  -2.258  -0.645  0.00  0.00    +0.253 C 
ATOM      8  C   UNL     1       3.054  -1.889   0.175  0.00  0.00    +0.253 C 
ATOM      9  C   UNL     1       2.560   1.673   0.120  0.00  0.00    +0.040 C 
ATOM     10  C   UNL     1       1.489   2.564   0.199  0.00  0.00    +0.005 C 
ENDROOT
BRANCH   3  11
ATOM     11  N   UNL     1      -1.388   0.263  -0.001  0.00  0.00    -0.309 N 
ATOM     12  N   UNL     1      -4.120  -0.548   0.169  0.00  0.00    +0.386 N 
ATOM     13  C   UNL     1      -1.812  -0.683   1.040  0.00  0.00    +0.068 C 
ATOM     14  C   UNL     1      -2.445   1.121  -0.549  0.00  0.00    +0.068 C 
ATOM     15  C   UNL     1      -3.052  -1.454   0.589  0.00  0.00    -0.060 C 
ATOM     16  C   UNL     1      -3.663   0.286  -0.941  0.00  0.00    -0.060 C 
ATOM     17  H   UNL     1      -4.384   0.049   0.953  0.00  0.00    -0.084 HD
ATOM     18  H   UNL     1      -4.924  -1.097  -0.135  0.00  0.00    -0.084 HD
ENDBRANCH   3  11
TORSDOF 1
