REMARK  Name = 1355
REMARK  1 active torsions:
REMARK  status: ('A' for Active; 'I' for Inactive)
REMARK    1  A    between atoms: N_1  and  C_10
REMARK                            x       y       z     vdW  Elec       q    Type
REMARK                         _______ _______ _______ _____ _____    ______ ____
ROOT
ATOM      1  N   UNL     1      -0.997  -0.049   0.029  0.00  0.00    -0.312 N 
ATOM      2  N   UNL     1      -3.833   0.257  -0.098  0.00  0.00    +0.386 N 
ATOM      3  C   UNL     1      -1.591   0.931  -0.890  0.00  0.00    +0.067 C 
ATOM      4  C   UNL     1      -1.874  -1.153   0.436  0.00  0.00    +0.067 C 
ATOM      5  C   UNL     1      -2.953   1.393  -0.372  0.00  0.00    -0.060 C 
ATOM      6  C   UNL     1      -3.227  -0.617   0.905  0.00  0.00    -0.060 C 
ATOM      7  H   UNL     1      -3.982  -0.270  -0.959  0.00  0.00    -0.084 HD
ATOM      8  H   UNL     1      -4.724   0.603   0.256  0.00  0.00    -0.084 HD
ENDROOT
BRANCH   1  10
ATOM      9 CL   UNL     1       3.733   1.928   0.473  0.00  0.00    -0.082 Cl
ATOM     10  C   UNL     1       0.387  -0.247  -0.025  0.00  0.00    +0.049 C 
ATOM     11  C   UNL     1       1.283   0.813   0.221  0.00  0.00    +0.026 C 
ATOM     12  C   UNL     1       0.928  -1.513  -0.327  0.00  0.00    +0.015 C 
ATOM     13  C   UNL     1       2.662   0.615   0.167  0.00  0.00    +0.059 C 
ATOM     14  C   UNL     1       2.308  -1.711  -0.382  0.00  0.00    +0.002 C 
ATOM     15  C   UNL     1       3.175  -0.646  -0.135  0.00  0.00    +0.011 C 
ENDBRANCH   1  10
TORSDOF 1
