REMARK  Name = 6923772
REMARK  5 active torsions:
REMARK  status: ('A' for Active; 'I' for Inactive)
REMARK    1  A    between atoms: C_1  and  C_3
REMARK    2  A    between atoms: C_1  and  C_9
REMARK    3  A    between atoms: C_1  and  C_14
REMARK    4  A    between atoms: C_9  and  N_10
REMARK    5  A    between atoms: C_14  and  C_17
REMARK                            x       y       z     vdW  Elec       q    Type
REMARK                         _______ _______ _______ _____ _____    ______ ____
ROOT
ATOM      1  C   UNL     1       1.363   0.893  -0.229  0.00  0.00    +0.012 C 
ENDROOT
BRANCH   1   3
ATOM      2 CL   UNL     1      -4.344  -0.937   0.100  0.00  0.00    -0.082 Cl
ATOM      3  C   UNL     1      -0.085   0.428  -0.145  0.00  0.00    -0.024 C 
ATOM      4  C   UNL     1      -0.556  -0.457  -1.093  0.00  0.00    -0.003 C 
ATOM      5  C   UNL     1      -0.880   0.907   0.875  0.00  0.00    -0.003 C 
ATOM      6  C   UNL     1      -1.882  -0.882  -1.016  0.00  0.00    +0.011 C 
ATOM      7  C   UNL     1      -2.206   0.482   0.951  0.00  0.00    +0.011 C 
ATOM      8  C   UNL     1      -2.707  -0.413   0.006  0.00  0.00    +0.058 C 
ENDBRANCH   1   3
BRANCH   1   9
ATOM      9  C   UNL     1       1.540   2.340   0.263  0.00  0.00    -0.081 C 
BRANCH   9  10
ATOM     10  N   UNL     1       0.730   3.270  -0.565  0.00  0.00    +0.381 N 
ATOM     11  H   UNL     1       0.858   4.224  -0.227  0.00  0.00    -0.089 HD
ATOM     12  H   UNL     1      -0.255   3.015  -0.498  0.00  0.00    -0.089 HD
ATOM     13  H   UNL     1       1.032   3.211  -1.537  0.00  0.00    -0.089 HD
ENDBRANCH   9  10
ENDBRANCH   1   9
BRANCH   1  14
ATOM     14  C   UNL     1       2.300  -0.034   0.569  0.00  0.00    +0.116 C 
BRANCH  14  17
ATOM     15  O   UNL     1       2.648  -1.774  -0.984  0.00  0.00    -0.246 OA
ATOM     16  O   UNL     1       1.832  -2.307   1.082  0.00  0.00    -0.246 OA
ATOM     17  C   UNL     1       2.247  -1.519   0.188  0.00  0.00    +0.365 C 
ENDBRANCH  14  17
ENDBRANCH   1  14
TORSDOF 5
