REMARK  Name = 6456014
REMARK  6 active torsions:
REMARK  status: ('A' for Active; 'I' for Inactive)
REMARK    1  A    between atoms: C_10  and  O_24
REMARK    2  A    between atoms: C_10  and  C_26
REMARK    3  A    between atoms: C_13  and  C_28
REMARK    4  A    between atoms: C_28  and  C_29
REMARK    5  A    between atoms: C_29  and  N_30
REMARK    6  A    between atoms: N_30  and  C_33
REMARK                            x       y       z     vdW  Elec       q    Type
REMARK                         _______ _______ _______ _____ _____    ______ ____
ROOT
ATOM      1  O   UNL     1       5.503   1.729   0.537  0.00  0.00    -0.442 OA
ATOM      2  O   UNL     1       1.524   3.123   0.914  0.00  0.00    -0.270 OA
ATOM      3  O   UNL     1       6.803  -0.098   0.640  0.00  0.00    -0.247 OA
ATOM      4  N   UNL     1       0.687   1.001   0.541  0.00  0.00    -0.249 N 
ATOM      5  N   UNL     1      -0.604  -2.297  -0.091  0.00  0.00    -0.405 NA
ATOM      6  C   UNL     1      -1.357  -0.079   0.552  0.00  0.00    +0.022 C 
ATOM      7  C   UNL     1       0.898  -0.323   0.192  0.00  0.00    +0.084 C 
ATOM      8  C   UNL     1      -0.744   1.261   0.796  0.00  0.00    +0.127 C 
ATOM      9  C   UNL     1       3.251   0.120  -0.015  0.00  0.00    +0.017 C 
ATOM     10  C   UNL     1       4.625  -0.383  -0.362  0.00  0.00    +0.196 C 
ATOM     11  C   UNL     1      -0.388  -1.006   0.196  0.00  0.00    +0.142 C 
ATOM     12  C   UNL     1       3.072   1.414   0.307  0.00  0.00    +0.074 C 
ATOM     13  C   UNL     1      -2.666  -0.494   0.625  0.00  0.00    -0.036 C 
ATOM     14  C   UNL     1       2.117  -0.789  -0.088  0.00  0.00    +0.016 C 
ATOM     15  C   UNL     1       1.697   1.943   0.621  0.00  0.00    +0.252 C 
ATOM     16  C   UNL     1       4.220   2.365   0.348  0.00  0.00    +0.239 C 
ATOM     17  C   UNL     1      -2.953  -1.838   0.335  0.00  0.00    +0.092 C 
ATOM     18  C   UNL     1       5.729   0.411   0.326  0.00  0.00    +0.346 C 
ATOM     19  C   UNL     1      -1.886  -2.711  -0.021  0.00  0.00    +0.116 C 
ATOM     20  C   UNL     1      -4.269  -2.322   0.393  0.00  0.00    -0.015 C 
ATOM     21  C   UNL     1      -2.195  -4.037  -0.304  0.00  0.00    +0.028 C 
ATOM     22  C   UNL     1      -4.544  -3.656   0.104  0.00  0.00    -0.004 C 
ATOM     23  C   UNL     1      -3.507  -4.513  -0.244  0.00  0.00    +0.002 C 
ENDROOT
BRANCH  10  24
ATOM     24  O   UNL     1       4.787  -1.718   0.124  0.00  0.00    -0.373 OA
ATOM     25  H   UNL     1       4.113  -2.291  -0.272  0.00  0.00    +0.211 HD
ENDBRANCH  10  24
BRANCH  10  26
ATOM     26  C   UNL     1       4.864  -0.375  -1.874  0.00  0.00    +0.042 C 
ATOM     27  C   UNL     1       6.238  -0.914  -2.216  0.00  0.00    +0.003 C 
ENDBRANCH  10  26
BRANCH  13  28
ATOM     28  C   UNL     1      -3.719   0.494   1.008  0.00  0.00    -0.001 C 
BRANCH  28  29
ATOM     29  C   UNL     1      -4.309   1.209  -0.215  0.00  0.00    -0.077 C 
BRANCH  29  30
ATOM     30  N   UNL     1      -5.317   2.189   0.174  0.00  0.00    +0.385 N 
ATOM     31  H   UNL     1      -4.892   2.879   0.792  0.00  0.00    -0.084 HD
ATOM     32  H   UNL     1      -6.077   1.703   0.651  0.00  0.00    -0.084 HD
BRANCH  30  33
ATOM     33  C   UNL     1      -5.860   2.866  -0.995  0.00  0.00    -0.062 C 
ATOM     34  C   UNL     1      -4.748   3.587  -1.752  0.00  0.00    -0.023 C 
ATOM     35  C   UNL     1      -6.947   3.842  -0.557  0.00  0.00    -0.023 C 
ENDBRANCH  30  33
ENDBRANCH  29  30
ENDBRANCH  28  29
ENDBRANCH  13  28
TORSDOF 6
