REMARK  Name = 65856
REMARK  6 active torsions:
REMARK  status: ('A' for Active; 'I' for Inactive)
REMARK    1  A    between atoms: C_1  and  C_4
REMARK    2  A    between atoms: C_1  and  C_10
REMARK    3  A    between atoms: C_1  and  O_16
REMARK    4  A    between atoms: O_16  and  C_17
REMARK    5  A    between atoms: C_18  and  O_23
REMARK    6  A    between atoms: O_23  and  C_24
REMARK                            x       y       z     vdW  Elec       q    Type
REMARK                         _______ _______ _______ _____ _____    ______ ____
ROOT
ATOM      1  C   UNL     1      -0.840   0.178  -0.790  0.00  0.00    +0.213 C 
ENDROOT
BRANCH   1   4
ATOM      2  O   UNL     1      -2.582   0.164   0.844  0.00  0.00    -0.357 OA
ATOM      3  N   UNL     1      -3.704   2.595  -0.119  0.00  0.00    +0.387 N 
ATOM      4  C   UNL     1      -2.254   0.641  -0.467  0.00  0.00    +0.138 C 
ATOM      5  C   UNL     1      -2.356   2.168  -0.503  0.00  0.00    -0.047 C 
ATOM      6  C   UNL     1      -4.045   2.064   1.201  0.00  0.00    -0.049 C 
ATOM      7  C   UNL     1      -3.909   0.546   1.210  0.00  0.00    +0.119 C 
ATOM      8  H   UNL     1      -4.374   2.249  -0.806  0.00  0.00    -0.084 HD
ATOM      9  H   UNL     1      -3.734   3.614  -0.086  0.00  0.00    -0.084 HD
ENDBRANCH   1   4
BRANCH   1  10
ATOM     10  C   UNL     1      -0.701  -1.324  -0.713  0.00  0.00    +0.020 C 
ATOM     11  C   UNL     1      -0.344  -1.911   0.490  0.00  0.00    -0.001 C 
ATOM     12  C   UNL     1      -0.934  -2.086  -1.846  0.00  0.00    -0.001 C 
ATOM     13  C   UNL     1      -0.215  -3.298   0.562  0.00  0.00    -0.000 C 
ATOM     14  C   UNL     1      -0.806  -3.473  -1.774  0.00  0.00    -0.000 C 
ATOM     15  C   UNL     1      -0.447  -4.079  -0.570  0.00  0.00    -0.000 C 
ENDBRANCH   1  10
BRANCH   1  16
ATOM     16  O   UNL     1       0.079   0.781   0.120  0.00  0.00    -0.469 OA
BRANCH  16  17
ATOM     17  C   UNL     1       1.333   1.045  -0.360  0.00  0.00    +0.173 C 
ATOM     18  C   UNL     1       2.450   0.464   0.234  0.00  0.00    +0.172 C 
ATOM     19  C   UNL     1       1.478   1.901  -1.448  0.00  0.00    +0.040 C 
ATOM     20  C   UNL     1       3.723   0.742  -0.265  0.00  0.00    +0.040 C 
ATOM     21  C   UNL     1       2.751   2.178  -1.946  0.00  0.00    +0.003 C 
ATOM     22  C   UNL     1       3.873   1.599  -1.355  0.00  0.00    +0.003 C 
BRANCH  18  23
ATOM     23  O   UNL     1       2.315  -0.375   1.298  0.00  0.00    -0.472 OA
BRANCH  23  24
ATOM     24  C   UNL     1       2.964   0.005   2.510  0.00  0.00    +0.206 C 
ATOM     25  C   UNL     1       2.167  -0.524   3.683  0.00  0.00    +0.051 C 
ENDBRANCH  23  24
ENDBRANCH  18  23
ENDBRANCH  16  17
ENDBRANCH   1  16
TORSDOF 6
