REMARK  Name = 22323
REMARK  5 active torsions:
REMARK  status: ('A' for Active; 'I' for Inactive)
REMARK    1  A    between atoms: N_1  and  C_10
REMARK    2  A    between atoms: N_2  and  C_4
REMARK    3  A    between atoms: N_2  and  C_18
REMARK    4  A    between atoms: N_16  and  C_18
REMARK    5  A    between atoms: N_16  and  C_21
REMARK                            x       y       z     vdW  Elec       q    Type
REMARK                         _______ _______ _______ _____ _____    ______ ____
ROOT
ATOM      1  N   UNL     1      -0.529   1.681   0.470  0.00  0.00    -0.325 N 
ATOM      2  N   UNL     1       1.657   2.301   0.541  0.00  0.00    -0.369 N 
ATOM      3  C   UNL     1       0.769   1.320   0.138  0.00  0.00    +0.203 C 
ATOM      4  H   UNL     1      -0.620   2.564   0.897  0.00  0.00    +0.169 HD
ATOM      5  H   UNL     1       1.324   3.118   0.978  0.00  0.00    +0.159 HD
ATOM      6  H   UNL     1       2.623   2.183   0.390  0.00  0.00    +0.159 HD
ENDROOT
BRANCH   1   9
ATOM      7 CL   UNL     1      -2.870  -2.842   0.113  0.00  0.00    -0.081 Cl
ATOM      8 CL   UNL     1      -5.641  -1.220  -0.292  0.00  0.00    -0.081 Cl
ATOM      9  C   UNL     1      -1.738   0.977   0.289  0.00  0.00    +0.060 C 
ATOM     10  C   UNL     1      -1.738  -0.418   0.286  0.00  0.00    +0.029 C 
ATOM     11  C   UNL     1      -2.932   1.676   0.114  0.00  0.00    +0.018 C 
ATOM     12  C   UNL     1      -2.934  -1.114   0.108  0.00  0.00    +0.070 C 
ATOM     13  C   UNL     1      -4.127   0.980  -0.064  0.00  0.00    +0.014 C 
ATOM     14  C   UNL     1      -4.128  -0.415  -0.068  0.00  0.00    +0.068 C 
ENDBRANCH   1   9
BRANCH   3  15
ATOM     15  N   UNL     1       1.101   0.200  -0.451  0.00  0.00    -0.179 NA
BRANCH  15  17
ATOM     16  N   UNL     1       2.936   0.373  -1.938  0.00  0.00    -0.368 N 
ATOM     17  C   UNL     1       2.436  -0.029  -0.718  0.00  0.00    +0.220 C 
ATOM     18  H   UNL     1       3.884   0.222  -2.155  0.00  0.00    +0.159 HD
ATOM     19  H   UNL     1       2.345   0.812  -2.592  0.00  0.00    +0.159 HD
BRANCH  17  20
ATOM     20  N   UNL     1       3.077  -0.634   0.230  0.00  0.00    -0.240 NA
BRANCH  20  21
ATOM     21  C   UNL     1       4.490  -0.916   0.008  0.00  0.00    +0.106 C 
ATOM     22  C   UNL     1       5.311   0.272   0.488  0.00  0.00    +0.026 C 
ATOM     23  C   UNL     1       4.861  -2.193   0.746  0.00  0.00    +0.026 C 
ENDBRANCH  20  21
ENDBRANCH  17  20
ENDBRANCH  15  17
ENDBRANCH   3  15
TORSDOF 5
