25070031
  -OEChem-10051722553D

 46 48  0     1  0  0  0  0  0999 V2000
   -1.9654    2.1978    0.1868 O   0  0  0  0  0  0  0  0  0  0  0  0
    6.9449   -1.3992   -0.2088 O   0  0  0  0  0  0  0  0  0  0  0  0
   -4.0833   -0.5392   -0.0150 N   0  0  1  0  0  0  0  0  0  0  0  0
    3.6201   -0.5777   -1.1364 N   0  0  0  0  0  0  0  0  0  0  0  0
    4.8806   -1.0735   -1.1627 N   0  0  0  0  0  0  0  0  0  0  0  0
   -3.7956   -1.5837    0.9777 C   0  0  1  0  0  0  0  0  0  0  0  0
   -3.8739   -2.8677    0.1489 C   0  0  0  0  0  0  0  0  0  0  0  0
   -5.1785   -1.0794   -0.8242 C   0  0  0  0  0  0  0  0  0  0  0  0
   -4.7758   -2.5297   -1.0333 C   0  0  0  0  0  0  0  0  0  0  0  0
   -4.4422    0.7416    0.5820 C   0  0  0  0  0  0  0  0  0  0  0  0
   -2.4361   -1.4247    1.6464 C   0  0  0  0  0  0  0  0  0  0  0  0
   -4.2563    1.8679   -0.4296 C   0  0  0  0  0  0  0  0  0  0  0  0
   -2.8174    1.9449   -0.9219 C   0  0  0  0  0  0  0  0  0  0  0  0
   -0.6966    1.6832    0.1219 C   0  0  0  0  0  0  0  0  0  0  0  0
   -0.0302    1.3205    1.2924 C   0  0  0  0  0  0  0  0  0  0  0  0
   -0.0709    1.5243   -1.1147 C   0  0  0  0  0  0  0  0  0  0  0  0
    1.8873    0.6399   -0.0102 C   0  0  0  0  0  0  0  0  0  0  0  0
    1.2617    0.7988    1.2263 C   0  0  0  0  0  0  0  0  0  0  0  0
    1.2210    1.0028   -1.1806 C   0  0  0  0  0  0  0  0  0  0  0  0
    3.2647    0.0845   -0.0803 C   0  0  0  0  0  0  0  0  0  0  0  0
    4.1495    0.3502    1.0763 C   0  0  0  0  0  0  0  0  0  0  0  0
    5.3819   -0.1526    1.0195 C   0  0  0  0  0  0  0  0  0  0  0  0
    5.8103   -0.9292   -0.1606 C   0  0  0  0  0  0  0  0  0  0  0  0
   -4.5800   -1.6110    1.7470 H   0  0  0  0  0  0  0  0  0  0  0  0
   -4.2869   -3.6929    0.7392 H   0  0  0  0  0  0  0  0  0  0  0  0
   -2.8901   -3.1828   -0.2194 H   0  0  0  0  0  0  0  0  0  0  0  0
   -5.2886   -0.5604   -1.7814 H   0  0  0  0  0  0  0  0  0  0  0  0
   -6.1390   -1.0412   -0.2942 H   0  0  0  0  0  0  0  0  0  0  0  0
   -4.2168   -2.6456   -1.9693 H   0  0  0  0  0  0  0  0  0  0  0  0
   -5.6489   -3.1884   -1.0800 H   0  0  0  0  0  0  0  0  0  0  0  0
   -5.4727    0.7417    0.9597 H   0  0  0  0  0  0  0  0  0  0  0  0
   -3.8116    0.9611    1.4509 H   0  0  0  0  0  0  0  0  0  0  0  0
   -2.2210   -2.2912    2.2813 H   0  0  0  0  0  0  0  0  0  0  0  0
   -2.3986   -0.5361    2.2829 H   0  0  0  0  0  0  0  0  0  0  0  0
   -1.6328   -1.3502    0.9054 H   0  0  0  0  0  0  0  0  0  0  0  0
   -4.9356    1.7501   -1.2811 H   0  0  0  0  0  0  0  0  0  0  0  0
   -4.5190    2.8125    0.0629 H   0  0  0  0  0  0  0  0  0  0  0  0
   -2.7255    2.7777   -1.6289 H   0  0  0  0  0  0  0  0  0  0  0  0
   -2.5672    1.0157   -1.4484 H   0  0  0  0  0  0  0  0  0  0  0  0
   -0.5160    1.4358    2.2575 H   0  0  0  0  0  0  0  0  0  0  0  0
   -0.5413    1.8247   -2.0463 H   0  0  0  0  0  0  0  0  0  0  0  0
    1.7291    0.4966    2.1585 H   0  0  0  0  0  0  0  0  0  0  0  0
    1.6939    0.9013   -2.1539 H   0  0  0  0  0  0  0  0  0  0  0  0
    3.8423    0.9546    1.9186 H   0  0  0  0  0  0  0  0  0  0  0  0
    6.0968    0.0071    1.8180 H   0  0  0  0  0  0  0  0  0  0  0  0
    5.1110   -1.5903   -2.0053 H   0  0  0  0  0  0  0  0  0  0  0  0
  1 13  1  0  0  0  0
  1 14  1  0  0  0  0
  2 23  2  0  0  0  0
  3  6  1  0  0  0  0
  3  8  1  0  0  0  0
  3 10  1  0  0  0  0
  4  5  1  0  0  0  0
  4 20  2  0  0  0  0
  5 23  1  0  0  0  0
  5 46  1  0  0  0  0
  6  7  1  0  0  0  0
  6 11  1  0  0  0  0
  6 24  1  0  0  0  0
  7  9  1  0  0  0  0
  7 25  1  0  0  0  0
  7 26  1  0  0  0  0
  8  9  1  0  0  0  0
  8 27  1  0  0  0  0
  8 28  1  0  0  0  0
  9 29  1  0  0  0  0
  9 30  1  0  0  0  0
 10 12  1  0  0  0  0
 10 31  1  0  0  0  0
 10 32  1  0  0  0  0
 11 33  1  0  0  0  0
 11 34  1  0  0  0  0
 11 35  1  0  0  0  0
 12 13  1  0  0  0  0
 12 36  1  0  0  0  0
 12 37  1  0  0  0  0
 13 38  1  0  0  0  0
 13 39  1  0  0  0  0
 14 15  2  0  0  0  0
 14 16  1  0  0  0  0
 15 18  1  0  0  0  0
 15 40  1  0  0  0  0
 16 19  2  0  0  0  0
 16 41  1  0  0  0  0
 17 18  2  0  0  0  0
 17 19  1  0  0  0  0
 17 20  1  0  0  0  0
 18 42  1  0  0  0  0
 19 43  1  0  0  0  0
 20 21  1  0  0  0  0
 21 22  2  0  0  0  0
 21 44  1  0  0  0  0
 22 23  1  0  0  0  0
 22 45  1  0  0  0  0
M  END
> <DATABASE_ID>
DB12900

> <DATABASE_NAME>
drugbank

> <ORIGINAL_SOURCE>
PUBCHEM

> <ORIGINAL_SOURCE_URL>
https://pubchem.ncbi.nlm.nih.gov/rest/pug/compound/inchikey/XUKROCVZGZNGSI-CQSZACIVSA-N/SDF?record_type=3d

> <SMILES>
C[C@@H]1CCCN1CCCOC1=CC=C(C=C1)C1=NNC(=O)C=C1

> <INCHI_IDENTIFIER>
InChI=1S/C18H23N3O2/c1-14-4-2-11-21(14)12-3-13-23-16-7-5-15(6-8-16)17-9-10-18(22)20-19-17/h5-10,14H,2-4,11-13H2,1H3,(H,20,22)/t14-/m1/s1

> <INCHI_KEY>
XUKROCVZGZNGSI-CQSZACIVSA-N

> <FORMULA>
C18H23N3O2

> <MOLECULAR_WEIGHT>
313.401

> <EXACT_MASS>
313.179026993

> <JCHEM_ACCEPTOR_COUNT>
4

> <JCHEM_ATOM_COUNT>
46

> <JCHEM_AVERAGE_POLARIZABILITY>
35.724208516865986

> <JCHEM_BIOAVAILABILITY>
1

> <JCHEM_DONOR_COUNT>
1

> <JCHEM_FORMAL_CHARGE>
0

> <JCHEM_GHOSE_FILTER>
1

> <JCHEM_IUPAC>
6-(4-{3-[(2R)-2-methylpyrrolidin-1-yl]propoxy}phenyl)-2,3-dihydropyridazin-3-one

> <ALOGPS_LOGP>
2.52

> <JCHEM_LOGP>
1.8056345637519557

> <ALOGPS_LOGS>
-3.67

> <JCHEM_MDDR_LIKE_RULE>
1

> <JCHEM_NUMBER_OF_RINGS>
3

> <JCHEM_PHYSIOLOGICAL_CHARGE>
1

> <JCHEM_PKA_STRONGEST_ACIDIC>
10.425931241086671

> <JCHEM_PKA_STRONGEST_BASIC>
9.57314353638458

> <JCHEM_POLAR_SURFACE_AREA>
53.93

> <JCHEM_REFRACTIVITY>
92.01089999999998

> <JCHEM_ROTATABLE_BOND_COUNT>
6

> <JCHEM_RULE_OF_FIVE>
1

> <ALOGPS_SOLUBILITY>
6.75e-02 g/l

> <JCHEM_TRADITIONAL_IUPAC>
6-(4-{3-[(2R)-2-methylpyrrolidin-1-yl]propoxy}phenyl)-2H-pyridazin-3-one

> <JCHEM_VEBER_RULE>
0

> <DRUGBANK_ID>
DB12900

> <DRUG_GROUPS>
investigational

> <GENERIC_NAME>
Irdabisant

> <SYNONYMS>
CEP-26401

$$$$
