REMARK  Name = 9885653
REMARK  13 active torsions:
REMARK  status: ('A' for Active; 'I' for Inactive)
REMARK    1  A    between atoms: C_2  and  O_3
REMARK    2  A    between atoms: C_2  and  C_15
REMARK    3  A    between atoms: O_3  and  C_4
REMARK    4  A    between atoms: C_5  and  O_11
REMARK    5  A    between atoms: C_6  and  O_13
REMARK    6  A    between atoms: C_15  and  N_16
REMARK    7  A    between atoms: C_15  and  C_26
REMARK    8  A    between atoms: N_16  and  C_18
REMARK    9  A    between atoms: N_16  and  C_22
REMARK   10  A    between atoms: C_18  and  C_19
REMARK   11  A    between atoms: C_19  and  O_20
REMARK   12  A    between atoms: C_22  and  C_23
REMARK   13  A    between atoms: C_23  and  O_24
REMARK                            x       y       z     vdW  Elec       q    Type
REMARK                         _______ _______ _______ _____ _____    ______ ____
ROOT
ATOM      1  O   UNL     1       0.435   0.473   1.882  0.00  0.00    -0.252 OA
ATOM      2  C   UNL     1       0.008  -0.273   1.010  0.00  0.00    +0.302 C 
ENDROOT
BRANCH   2   3
ATOM      3  O   UNL     1       0.696  -0.679  -0.133  0.00  0.00    -0.419 OA
BRANCH   3   4
ATOM      4  C   UNL     1       1.986  -0.150  -0.210  0.00  0.00    +0.216 C 
ATOM      5  C   UNL     1       2.202   1.072  -0.847  0.00  0.00    +0.176 C 
ATOM      6  C   UNL     1       3.059  -0.844   0.349  0.00  0.00    +0.176 C 
ATOM      7  C   UNL     1       4.563   0.907  -0.364  0.00  0.00    -0.016 C 
ATOM      8  C   UNL     1       3.490   1.601  -0.924  0.00  0.00    +0.036 C 
ATOM      9  C   UNL     1       4.348  -0.315   0.272  0.00  0.00    +0.036 C 
ATOM     10  C   UNL     1       5.941   1.473  -0.446  0.00  0.00    +0.031 C 
BRANCH   5  11
ATOM     11  O   UNL     1       1.162   1.759  -1.398  0.00  0.00    -0.468 OA
ATOM     12  C   UNL     1       0.851   1.480  -2.761  0.00  0.00    +0.253 C 
ENDBRANCH   5  11
BRANCH   6  13
ATOM     13  O   UNL     1       2.863  -2.038   0.974  0.00  0.00    -0.468 OA
ATOM     14  C   UNL     1       2.952  -3.213   0.170  0.00  0.00    +0.253 C 
ENDBRANCH   6  13
ENDBRANCH   3   4
ENDBRANCH   2   3
BRANCH   2  15
ATOM     15  C   UNL     1      -1.375  -0.905   0.988  0.00  0.00    +0.044 C 
BRANCH  15  16
ATOM     16  N   UNL     1      -2.259  -0.042   0.207  0.00  0.00    +0.399 N 
ATOM     17  H   UNL     1      -1.735   0.322  -0.589  0.00  0.00    -0.079 HD
BRANCH  16  18
ATOM     18  C   UNL     1      -2.716   1.088   1.016  0.00  0.00    -0.044 C 
BRANCH  18  19
ATOM     19  C   UNL     1      -3.189   2.227   0.128  0.00  0.00    +0.120 C 
BRANCH  19  20
ATOM     20  O   UNL     1      -3.639   3.294   0.954  0.00  0.00    -0.353 OA
ATOM     21  C   UNL     1      -4.077   4.403   0.181  0.00  0.00    +0.174 C 
ENDBRANCH  19  20
ENDBRANCH  18  19
ENDBRANCH  16  18
BRANCH  16  22
ATOM     22  C   UNL     1      -3.401  -0.802  -0.299  0.00  0.00    -0.044 C 
BRANCH  22  23
ATOM     23  C   UNL     1      -2.987  -1.677  -1.471  0.00  0.00    +0.120 C 
BRANCH  23  24
ATOM     24  O   UNL     1      -4.120  -2.409  -1.919  0.00  0.00    -0.353 OA
ATOM     25  C   UNL     1      -3.803  -3.233  -3.031  0.00  0.00    +0.174 C 
ENDBRANCH  23  24
ENDBRANCH  22  23
ENDBRANCH  16  22
ENDBRANCH  15  16
BRANCH  15  26
ATOM     26  C   UNL     1      -1.923  -1.138   2.402  0.00  0.00    -0.010 C 
ATOM     27  C   UNL     1      -1.070  -2.058   3.270  0.00  0.00    -0.002 C 
ENDBRANCH  15  26
ENDBRANCH   2  15
TORSDOF 13
