REMARK  Name = 4744
REMARK  4 active torsions:
REMARK  status: ('A' for Active; 'I' for Inactive)
REMARK    1  A    between atoms: N_2  and  C_15
REMARK    2  A    between atoms: C_15  and  C_16
REMARK    3  A    between atoms: C_16  and  C_17
REMARK    4  A    between atoms: C_17  and  N_18
REMARK                            x       y       z     vdW  Elec       q    Type
REMARK                         _______ _______ _______ _____ _____    ______ ____
ROOT
ATOM      1  S   UNL     1       4.531   0.313  -0.256  0.00  0.00    -0.084 S 
ATOM      2  N   UNL     1       1.575  -0.053   0.632  0.00  0.00    -0.286 N 
ATOM      3  C   UNL     1       1.961   1.273   0.314  0.00  0.00    +0.058 C 
ATOM      4  C   UNL     1       2.229  -1.225   0.176  0.00  0.00    +0.058 C 
ATOM      5  C   UNL     1       3.268   1.563  -0.124  0.00  0.00    +0.043 C 
ATOM      6  C   UNL     1       3.563  -1.183  -0.276  0.00  0.00    +0.043 C 
ATOM      7  C   UNL     1       1.054   2.353   0.383  0.00  0.00    +0.015 C 
ATOM      8  C   UNL     1       1.572  -2.474   0.117  0.00  0.00    +0.015 C 
ATOM      9  C   UNL     1       3.644   2.879  -0.446  0.00  0.00    +0.008 C 
ATOM     10  C   UNL     1       4.205  -2.347  -0.735  0.00  0.00    +0.008 C 
ATOM     11  C   UNL     1       1.432   3.659   0.057  0.00  0.00    +0.001 C 
ATOM     12  C   UNL     1       2.214  -3.627  -0.344  0.00  0.00    +0.001 C 
ATOM     13  C   UNL     1       2.729   3.922  -0.355  0.00  0.00    +0.001 C 
ATOM     14  C   UNL     1       3.532  -3.564  -0.768  0.00  0.00    +0.001 C 
ENDROOT
BRANCH   2  15
ATOM     15  C   UNL     1       0.362  -0.228   1.442  0.00  0.00    +0.093 C 
BRANCH  15  16
ATOM     16  C   UNL     1      -0.870  -0.305   0.538  0.00  0.00    -0.001 C 
BRANCH  16  17
ATOM     17  C   UNL     1      -2.175  -0.471   1.320  0.00  0.00    -0.076 C 
BRANCH  17  18
ATOM     18  N   UNL     1      -3.335  -0.560   0.436  0.00  0.00    +0.384 N 
ATOM     19  N   UNL     1      -5.916   0.321  -0.525  0.00  0.00    +0.383 N 
ATOM     20  C   UNL     1      -3.474   0.662  -0.367  0.00  0.00    -0.101 C 
ATOM     21  C   UNL     1      -4.560  -0.808   1.206  0.00  0.00    -0.101 C 
ATOM     22  C   UNL     1      -4.691   0.569  -1.294  0.00  0.00    -0.101 C 
ATOM     23  C   UNL     1      -5.777  -0.900   0.280  0.00  0.00    -0.101 C 
ATOM     24  C   UNL     1      -7.075   0.230  -1.410  0.00  0.00    -0.101 C 
ATOM     25  H   UNL     1      -3.188  -1.346  -0.198  0.00  0.00    -0.080 HD
ATOM     26  H   UNL     1      -6.063   1.107   0.108  0.00  0.00    -0.080 HD
ENDBRANCH  17  18
ENDBRANCH  16  17
ENDBRANCH  15  16
ENDBRANCH   2  15
TORSDOF 4
