REMARK  Name = 23582412
REMARK  7 active torsions:
REMARK  status: ('A' for Active; 'I' for Inactive)
REMARK    1  A    between atoms: N_1  and  C_11
REMARK    2  A    between atoms: C_4  and  C_26
REMARK    3  A    between atoms: C_11  and  C_12
REMARK    4  A    between atoms: C_13  and  C_25
REMARK    5  A    between atoms: C_15  and  S_18
REMARK    6  A    between atoms: C_26  and  C_28
REMARK    7  A    between atoms: C_28  and  O_29
REMARK                            x       y       z     vdW  Elec       q    Type
REMARK                         _______ _______ _______ _____ _____    ______ ____
ROOT
ATOM      1  N   UNL     1      -1.346  -0.686   0.905  0.00  0.00    -0.312 N 
ATOM      2  N   UNL     1      -1.756   1.069   2.503  0.00  0.00    -0.227 NA
ATOM      3  C   UNL     1      -1.984  -1.213  -0.188  0.00  0.00    +0.036 A 
ATOM      4  C   UNL     1      -3.161  -0.519  -0.372  0.00  0.00    +0.004 A 
ATOM      5  C   UNL     1      -2.095   0.336   1.426  0.00  0.00    +0.143 A 
ATOM      6  C   UNL     1      -3.241   0.467   0.647  0.00  0.00    +0.032 A 
ATOM      7  C   UNL     1      -1.412  -2.337  -0.960  0.00  0.00    +0.050 C 
ATOM      8  C   UNL     1      -4.158   1.467   1.009  0.00  0.00    +0.004 C 
ATOM      9  C   UNL     1      -3.856   2.256   2.118  0.00  0.00    +0.021 C 
ATOM     10  C   UNL     1      -2.674   2.017   2.806  0.00  0.00    +0.101 C 
ENDROOT
BRANCH   1  11
ATOM     11  C   UNL     1      -0.077  -1.138   1.434  0.00  0.00    +0.134 C 
BRANCH  11  12
ATOM     12  C   UNL     1       1.075  -0.401   0.805  0.00  0.00    +0.004 C 
ATOM     13  C   UNL     1       2.211  -1.083   0.369  0.00  0.00    +0.071 C 
ATOM     14  C   UNL     1       0.994   0.984   0.662  0.00  0.00    -0.001 C 
ATOM     15  C   UNL     1       3.186   1.006  -0.354  0.00  0.00    +0.106 C 
ATOM     16  C   UNL     1       3.267  -0.379  -0.211  0.00  0.00    +0.022 C 
ATOM     17  C   UNL     1       2.050   1.688   0.082  0.00  0.00    +0.018 C 
BRANCH  15  18
ATOM     18  S   UNL     1       4.507   1.887  -1.080  0.00  0.00    +0.010 S 
ATOM     19  O   UNL     1       5.241   0.969  -1.939  0.00  0.00    -0.169 OA
ATOM     20  O   UNL     1       3.997   3.137  -1.627  0.00  0.00    -0.169 OA
ATOM     21  C   UNL     1       5.559   2.313   0.290  0.00  0.00    +0.182 C 
ENDBRANCH  15  18
BRANCH  13  25
ATOM     22  F   UNL     1       3.494  -3.075   0.038  0.00  0.00    -0.166 F 
ATOM     23  F   UNL     1       2.242  -2.994   1.807  0.00  0.00    -0.166 F 
ATOM     24  F   UNL     1       1.334  -3.230  -0.154  0.00  0.00    -0.166 F 
ATOM     25  C   UNL     1       2.320  -2.565   0.514  0.00  0.00    +0.418 C 
ENDBRANCH  13  25
ENDBRANCH  11  12
ENDBRANCH   1  11
BRANCH   4  26
ATOM     26  C   UNL     1      -4.157  -0.759  -1.436  0.00  0.00    +0.137 C 
BRANCH  26  28
ATOM     27  O   UNL     1      -2.968   0.899  -2.737  0.00  0.00    -0.250 OA
ATOM     28  C   UNL     1      -3.863   0.066  -2.670  0.00  0.00    +0.318 C 
BRANCH  28  29
ATOM     29  O   UNL     1      -4.727  -0.182  -3.686  0.00  0.00    -0.480 OA
ATOM     30  H   UNL     1      -5.396  -0.830  -3.585  0.00  0.00    +0.295 HD
ENDBRANCH  28  29
ENDBRANCH  26  28
ENDBRANCH   4  26
TORSDOF 7
