REMARK  Name = 9812416
REMARK  5 active torsions:
REMARK  status: ('A' for Active; 'I' for Inactive)
REMARK    1  A    between atoms: N_1  and  C_3
REMARK    2  A    between atoms: N_1  and  S_18
REMARK    3  A    between atoms: C_5  and  N_10
REMARK    4  A    between atoms: C_7  and  O_16
REMARK    5  A    between atoms: S_18  and  C_26
REMARK                            x       y       z     vdW  Elec       q    Type
REMARK                         _______ _______ _______ _____ _____    ______ ____
ROOT
ATOM      1  N   UNL     1      -0.338   1.748   1.916  0.00  0.00    -0.215 N 
ATOM      2  H   UNL     1      -0.126   1.819   2.875  0.00  0.00    +0.174 HD
ENDROOT
BRANCH   1   3
ATOM      3  C   UNL     1       0.704   1.597   0.951  0.00  0.00    +0.066 C 
ATOM      4  C   UNL     1       1.558   0.496   1.013  0.00  0.00    +0.034 C 
ATOM      5  C   UNL     1       2.576   0.349   0.071  0.00  0.00    +0.087 C 
ATOM      6  C   UNL     1       0.868   2.552  -0.053  0.00  0.00    +0.019 C 
ATOM      7  C   UNL     1       2.740   1.303  -0.933  0.00  0.00    +0.152 C 
ATOM      8  C   UNL     1       1.886   2.405  -0.995  0.00  0.00    +0.039 C 
BRANCH   5  10
ATOM      9  O   UNL     1       2.626  -1.946   2.017  0.00  0.00    -0.253 OA
ATOM     10  N   UNL     1       3.423  -0.759   0.145  0.00  0.00    -0.266 N 
ATOM     11  N   UNL     1       4.410  -2.733   0.826  0.00  0.00    -0.313 N 
ATOM     12  C   UNL     1       3.405  -1.808   1.078  0.00  0.00    +0.301 C 
ATOM     13  H   UNL     1       4.123  -0.811  -0.545  0.00  0.00    +0.156 HD
ATOM     14  H   UNL     1       4.511  -3.521   1.407  0.00  0.00    +0.146 HD
ATOM     15  H   UNL     1       5.022  -2.600   0.066  0.00  0.00    +0.146 HD
ENDBRANCH   5  10
BRANCH   7  16
ATOM     16  O   UNL     1       3.728   1.178  -1.864  0.00  0.00    -0.470 OA
ATOM     17  C   UNL     1       3.408   0.465  -3.056  0.00  0.00    +0.253 C 
ENDBRANCH   7  16
ENDBRANCH   1   3
BRANCH   1  18
ATOM     18  S   UNL     1      -1.971   1.805   1.371  0.00  0.00    +0.078 S 
ATOM     19  O   UNL     1      -2.160   2.938   0.485  0.00  0.00    -0.150 OA
ATOM     20  O   UNL     1      -2.854   1.624   2.508  0.00  0.00    -0.150 OA
BRANCH  18  26
ATOM     21  F   UNL     1      -2.626   1.624  -1.521  0.00  0.00    -0.200 F 
ATOM     22  F   UNL     1      -1.538  -0.984   2.297  0.00  0.00    -0.200 F 
ATOM     23  F   UNL     1      -1.711  -3.248   0.791  0.00  0.00    -0.199 F 
ATOM     24  F   UNL     1      -2.796  -0.647  -3.015  0.00  0.00    -0.199 F 
ATOM     25  F   UNL     1      -2.337  -3.085  -1.865  0.00  0.00    -0.199 F 
ATOM     26  C   UNL     1      -2.081   0.332   0.396  0.00  0.00    +0.184 A 
ATOM     27  C   UNL     1      -2.400   0.435  -0.946  0.00  0.00    +0.191 A 
ATOM     28  C   UNL     1      -1.847  -0.892   0.996  0.00  0.00    +0.191 A 
ATOM     29  C   UNL     1      -1.934  -2.053   0.228  0.00  0.00    +0.198 A 
ATOM     30  C   UNL     1      -2.487  -0.726  -1.714  0.00  0.00    +0.198 A 
ATOM     31  C   UNL     1      -2.254  -1.970  -1.127  0.00  0.00    +0.199 A 
ENDBRANCH  18  26
ENDBRANCH   1  18
TORSDOF 5
