56649450
  -OEChem-05251911473D

 52 54  0     1  0  0  0  0  0999 V2000
   -0.2611    0.4439   -1.0868 S   0  0  0  0  0  0  0  0  0  0  0  0
    4.9095    2.1489    1.1155 F   0  0  0  0  0  0  0  0  0  0  0  0
    6.9864    1.6762    1.5506 F   0  0  0  0  0  0  0  0  0  0  0  0
    6.3367    1.9287   -0.5156 F   0  0  0  0  0  0  0  0  0  0  0  0
   -6.5265   -1.3424   -0.6650 O   0  0  0  0  0  0  0  0  0  0  0  0
   -4.0340   -0.9617    1.2541 O   0  0  0  0  0  0  0  0  0  0  0  0
   -5.0728    0.6997    0.0505 N   0  0  0  0  0  0  0  0  0  0  0  0
   -2.7818    0.3088   -0.2487 N   0  0  0  0  0  0  0  0  0  0  0  0
   -8.2580   -0.8887    0.7806 N   0  0  0  0  0  0  0  0  0  0  0  0
    4.9118   -0.5507   -1.6695 N   0  0  0  0  0  0  0  0  0  0  0  0
   -1.1207   -1.2396    0.6765 N   0  0  0  0  0  0  0  0  0  0  0  0
   -6.3482    0.5782    0.7470 C   0  0  1  0  0  0  0  0  0  0  0  0
   -7.1075    1.8506    0.3922 C   0  0  0  0  0  0  0  0  0  0  0  0
   -6.5733    2.2082   -0.9915 C   0  0  0  0  0  0  0  0  0  0  0  0
   -5.1118    1.7912   -0.9234 C   0  0  0  0  0  0  0  0  0  0  0  0
   -7.0299   -0.6453    0.2125 C   0  0  0  0  0  0  0  0  0  0  0  0
   -3.9514   -0.0607    0.4174 C   0  0  0  0  0  0  0  0  0  0  0  0
    5.6724   -0.0918    0.5823 C   0  0  0  0  0  0  0  0  0  0  0  0
    4.5609   -0.3513   -0.3792 C   0  0  0  0  0  0  0  0  0  0  0  0
    5.9749    1.4307    0.6889 C   0  0  0  0  0  0  0  0  0  0  0  0
    6.9948   -0.8103    0.1603 C   0  0  0  0  0  0  0  0  0  0  0  0
    5.4020   -0.5803    2.0463 C   0  0  0  0  0  0  0  0  0  0  0  0
    3.2545   -0.3762    0.0821 C   0  0  0  0  0  0  0  0  0  0  0  0
    2.2433   -0.6211   -0.8402 C   0  0  0  0  0  0  0  0  0  0  0  0
   -1.4882   -0.2524   -0.1099 C   0  0  0  0  0  0  0  0  0  0  0  0
    0.8668   -0.6582   -0.4128 C   0  0  0  0  0  0  0  0  0  0  0  0
    0.2298   -1.4707    0.5016 C   0  0  0  0  0  0  0  0  0  0  0  0
    2.5647   -0.8308   -2.1767 C   0  0  0  0  0  0  0  0  0  0  0  0
    3.9017   -0.7857   -2.5369 C   0  0  0  0  0  0  0  0  0  0  0  0
    0.8550   -2.5474    1.2979 C   0  0  0  0  0  0  0  0  0  0  0  0
   -6.1914    0.4635    1.8249 H   0  0  0  0  0  0  0  0  0  0  0  0
   -6.8366    2.6472    1.0964 H   0  0  0  0  0  0  0  0  0  0  0  0
   -8.1968    1.7546    0.3965 H   0  0  0  0  0  0  0  0  0  0  0  0
   -7.0957    1.6187   -1.7544 H   0  0  0  0  0  0  0  0  0  0  0  0
   -6.6973    3.2666   -1.2370 H   0  0  0  0  0  0  0  0  0  0  0  0
   -4.7261    1.4580   -1.8913 H   0  0  0  0  0  0  0  0  0  0  0  0
   -4.4834    2.6046   -0.5444 H   0  0  0  0  0  0  0  0  0  0  0  0
   -2.8168    1.0701   -0.9186 H   0  0  0  0  0  0  0  0  0  0  0  0
    6.2967   -0.4807    2.6724 H   0  0  0  0  0  0  0  0  0  0  0  0
    5.1055   -1.6357    2.0574 H   0  0  0  0  0  0  0  0  0  0  0  0
    4.6129    0.0004    2.5361 H   0  0  0  0  0  0  0  0  0  0  0  0
    7.7973   -0.6381    0.8867 H   0  0  0  0  0  0  0  0  0  0  0  0
    6.8413   -1.8929    0.0792 H   0  0  0  0  0  0  0  0  0  0  0  0
    7.3562   -0.4509   -0.8102 H   0  0  0  0  0  0  0  0  0  0  0  0
   -8.6452   -0.3021    1.5129 H   0  0  0  0  0  0  0  0  0  0  0  0
   -8.8170   -1.6850    0.4928 H   0  0  0  0  0  0  0  0  0  0  0  0
    3.0015   -0.1898    1.1194 H   0  0  0  0  0  0  0  0  0  0  0  0
    1.8102   -1.0345   -2.9299 H   0  0  0  0  0  0  0  0  0  0  0  0
    4.2055   -0.9451   -3.5663 H   0  0  0  0  0  0  0  0  0  0  0  0
    1.4978   -3.1778    0.6752 H   0  0  0  0  0  0  0  0  0  0  0  0
    0.0945   -3.1939    1.7479 H   0  0  0  0  0  0  0  0  0  0  0  0
    1.4586   -2.1255    2.1075 H   0  0  0  0  0  0  0  0  0  0  0  0
  1 25  1  0  0  0  0
  1 26  1  0  0  0  0
  2 20  1  0  0  0  0
  3 20  1  0  0  0  0
  4 20  1  0  0  0  0
  5 16  2  0  0  0  0
  6 17  2  0  0  0  0
  7 12  1  0  0  0  0
  7 15  1  0  0  0  0
  7 17  1  0  0  0  0
  8 17  1  0  0  0  0
  8 25  1  0  0  0  0
  8 38  1  0  0  0  0
  9 16  1  0  0  0  0
  9 45  1  0  0  0  0
  9 46  1  0  0  0  0
 10 19  2  0  0  0  0
 10 29  1  0  0  0  0
 11 25  2  0  0  0  0
 11 27  1  0  0  0  0
 12 13  1  0  0  0  0
 12 16  1  0  0  0  0
 12 31  1  0  0  0  0
 13 14  1  0  0  0  0
 13 32  1  0  0  0  0
 13 33  1  0  0  0  0
 14 15  1  0  0  0  0
 14 34  1  0  0  0  0
 14 35  1  0  0  0  0
 15 36  1  0  0  0  0
 15 37  1  0  0  0  0
 18 19  1  0  0  0  0
 18 20  1  0  0  0  0
 18 21  1  0  0  0  0
 18 22  1  0  0  0  0
 19 23  1  0  0  0  0
 21 42  1  0  0  0  0
 21 43  1  0  0  0  0
 21 44  1  0  0  0  0
 22 39  1  0  0  0  0
 22 40  1  0  0  0  0
 22 41  1  0  0  0  0
 23 24  2  0  0  0  0
 23 47  1  0  0  0  0
 24 26  1  0  0  0  0
 24 28  1  0  0  0  0
 26 27  2  0  0  0  0
 27 30  1  0  0  0  0
 28 29  2  0  0  0  0
 28 48  1  0  0  0  0
 29 49  1  0  0  0  0
 30 50  1  0  0  0  0
 30 51  1  0  0  0  0
 30 52  1  0  0  0  0
M  END
> <DATABASE_ID>
DB12015

> <DATABASE_NAME>
drugbank

> <ORIGINAL_SOURCE>
PUBCHEM

> <ORIGINAL_SOURCE_URL>
https://pubchem.ncbi.nlm.nih.gov/rest/pug/compound/inchikey/STUWGJZDJHPWGZ-LBPRGKRZSA-N/SDF?record_type=3d

> <SMILES>
CC1=C(SC(NC(=O)N2CCC[C@H]2C(N)=O)=N1)C1=CC(=NC=C1)C(C)(C)C(F)(F)F

> <INCHI_IDENTIFIER>
InChI=1S/C19H22F3N5O2S/c1-10-14(11-6-7-24-13(9-11)18(2,3)19(20,21)22)30-16(25-10)26-17(29)27-8-4-5-12(27)15(23)28/h6-7,9,12H,4-5,8H2,1-3H3,(H2,23,28)(H,25,26,29)/t12-/m0/s1

> <INCHI_KEY>
STUWGJZDJHPWGZ-LBPRGKRZSA-N

> <FORMULA>
C19H22F3N5O2S

> <MOLECULAR_WEIGHT>
441.47

> <EXACT_MASS>
441.144630278

> <JCHEM_ACCEPTOR_COUNT>
4

> <JCHEM_ATOM_COUNT>
52

> <JCHEM_AVERAGE_POLARIZABILITY>
42.75314599063451

> <JCHEM_BIOAVAILABILITY>
1

> <JCHEM_DONOR_COUNT>
2

> <JCHEM_FORMAL_CHARGE>
0

> <JCHEM_GHOSE_FILTER>
1

> <JCHEM_IUPAC>
(2S)-N1-{4-methyl-5-[2-(1,1,1-trifluoro-2-methylpropan-2-yl)pyridin-4-yl]-1,3-thiazol-2-yl}pyrrolidine-1,2-dicarboxamide

> <ALOGPS_LOGP>
2.76

> <JCHEM_LOGP>
2.8095628946666675

> <ALOGPS_LOGS>
-4.92

> <JCHEM_MDDR_LIKE_RULE>
0

> <JCHEM_NUMBER_OF_RINGS>
3

> <JCHEM_PHYSIOLOGICAL_CHARGE>
0

> <JCHEM_PKA>
15.455118652030967

> <JCHEM_PKA_STRONGEST_ACIDIC>
7.793255919169194

> <JCHEM_PKA_STRONGEST_BASIC>
2.8100842665906907

> <JCHEM_POLAR_SURFACE_AREA>
101.21000000000001

> <JCHEM_REFRACTIVITY>
105.84720000000002

> <JCHEM_ROTATABLE_BOND_COUNT>
5

> <JCHEM_RULE_OF_FIVE>
1

> <ALOGPS_SOLUBILITY>
5.28e-03 g/l

> <JCHEM_TRADITIONAL_IUPAC>
alpelisib

> <JCHEM_VEBER_RULE>
0

> <DRUGBANK_ID>
DB12015

> <DRUG_GROUPS>
approved; investigational

> <GENERIC_NAME>
Alpelisib

> <SYNONYMS>
Alpelisib

> <PRODUCTS>
Piqray

$$$$
