REMARK  Name = 65702
REMARK  7 active torsions:
REMARK  status: ('A' for Active; 'I' for Inactive)
REMARK    1  A    between atoms: P_1  and  N_8
REMARK    2  A    between atoms: N_4  and  C_15
REMARK    3  A    between atoms: N_8  and  C_9
REMARK    4  A    between atoms: N_8  and  C_12
REMARK    5  A    between atoms: C_9  and  C_11
REMARK    6  A    between atoms: C_12  and  C_14
REMARK    7  A    between atoms: C_15  and  C_17
REMARK                            x       y       z     vdW  Elec       q    Type
REMARK                         _______ _______ _______ _____ _____    ______ ____
ROOT
ATOM      1  P   UNL     1       0.333   0.535  -0.340  0.00  0.00    +0.352 P 
ATOM      2  O   UNL     1      -0.187   1.778   0.579  0.00  0.00    -0.292 OA
ATOM      3  O   UNL     1       0.789   1.035  -1.690  0.00  0.00    -0.254 OA
ATOM      4  N   UNL     1       1.519  -0.187   0.592  0.00  0.00    -0.197 NA
ATOM      5  C   UNL     1       2.486   0.729   1.218  0.00  0.00    +0.084 C 
ATOM      6  C   UNL     1       1.765   1.835   1.998  0.00  0.00    +0.050 C 
ATOM      7  C   UNL     1       0.809   2.638   1.122  0.00  0.00    +0.153 C 
ENDROOT
BRANCH   1   8
ATOM      8  N   UNL     1      -0.953  -0.513  -0.380  0.00  0.00    -0.195 NA
BRANCH   8   9
ATOM      9  C   UNL     1      -1.558  -0.855   0.906  0.00  0.00    +0.099 C 
BRANCH   9  11
ATOM     10 CL   UNL     1      -3.178  -2.511   2.317  0.00  0.00    -0.112 Cl
ATOM     11  C   UNL     1      -2.421  -2.099   0.759  0.00  0.00    +0.113 C 
ENDBRANCH   9  11
ENDBRANCH   8   9
BRANCH   8  12
ATOM     12  C   UNL     1      -1.999  -0.228  -1.359  0.00  0.00    +0.099 C 
BRANCH  12  14
ATOM     13 CL   UNL     1      -4.124   1.298  -2.077  0.00  0.00    -0.112 Cl
ATOM     14  C   UNL     1      -2.835   0.956  -0.898  0.00  0.00    +0.113 C 
ENDBRANCH  12  14
ENDBRANCH   8  12
ENDBRANCH   1   8
BRANCH   4  15
ATOM     15  C   UNL     1       2.229  -1.329   0.014  0.00  0.00    +0.099 C 
BRANCH  15  17
ATOM     16 CL   UNL     1       4.090  -2.233  -1.741  0.00  0.00    -0.112 Cl
ATOM     17  C   UNL     1       3.235  -0.848  -1.019  0.00  0.00    +0.113 C 
ENDBRANCH  15  17
ENDBRANCH   4  15
TORSDOF 7
