REMARK  Name = 16741
REMARK  3 active torsions:
REMARK  status: ('A' for Active; 'I' for Inactive)
REMARK    1  A    between atoms: C_1  and  C_7
REMARK    2  A    between atoms: C_7  and  C_8
REMARK    3  A    between atoms: C_8  and  N_10
REMARK                            x       y       z     vdW  Elec       q    Type
REMARK                         _______ _______ _______ _____ _____    ______ ____
ROOT
ATOM      1  C   UNL     1       0.838  -0.667  -0.302  0.00  0.00    -0.020 C 
ATOM      2  C   UNL     1       1.082   0.475  -1.064  0.00  0.00    -0.004 C 
ATOM      3  C   UNL     1       1.645  -0.958   0.798  0.00  0.00    -0.004 C 
ATOM      4  C   UNL     1       2.134   1.327  -0.727  0.00  0.00    -0.000 C 
ATOM      5  C   UNL     1       2.697  -0.106   1.135  0.00  0.00    -0.000 C 
ATOM      6  C   UNL     1       2.942   1.036   0.372  0.00  0.00    -0.000 C 
ENDROOT
BRANCH   1   7
ATOM      7  C   UNL     1      -0.288  -1.577  -0.662  0.00  0.00    +0.053 C 
BRANCH   7   8
ATOM      8  C   UNL     1      -1.613  -1.213   0.018  0.00  0.00    +0.141 C 
BRANCH   8  10
ATOM      9  S   UNL     1      -4.390   1.041   0.722  0.00  0.00    +0.020 S 
ATOM     10  N   UNL     1      -2.021   0.135  -0.384  0.00  0.00    -0.222 NA
ATOM     11  C   UNL     1      -3.027   0.508   0.092  0.00  0.00    +0.037 C 
ENDBRANCH   8  10
ENDBRANCH   7   8
ENDBRANCH   1   7
TORSDOF 3
