REMARK  Name = 213013
REMARK  3 active torsions:
REMARK  status: ('A' for Active; 'I' for Inactive)
REMARK    1  A    between atoms: C_1  and  C_8
REMARK    2  A    between atoms: C_2  and  N_15
REMARK    3  A    between atoms: C_16  and  C_20
REMARK                            x       y       z     vdW  Elec       q    Type
REMARK                         _______ _______ _______ _____ _____    ______ ____
ROOT
ATOM      1  C   UNL     1       2.058  -1.066  -0.034  0.00  0.00    +0.013 C 
ATOM      2  C   UNL     1       0.807  -1.687  -0.022  0.00  0.00    +0.050 C 
ATOM      3  C   UNL     1       3.218  -1.842   0.001  0.00  0.00    +0.001 C 
ATOM      4  C   UNL     1       0.717  -3.078   0.023  0.00  0.00    +0.015 C 
ATOM      5  C   UNL     1       3.128  -3.234   0.047  0.00  0.00    +0.000 C 
ATOM      6  C   UNL     1       1.878  -3.852   0.058  0.00  0.00    +0.001 C 
ENDROOT
BRANCH   1   8
ATOM      7 CL   UNL     1       2.580   4.866  -0.226  0.00  0.00    -0.082 Cl
ATOM      8  C   UNL     1       2.184   0.375  -0.081  0.00  0.00    +0.001 C 
ATOM      9  C   UNL     1       2.255   1.029  -1.311  0.00  0.00    +0.001 C 
ATOM     10  C   UNL     1       2.237   1.110   1.104  0.00  0.00    +0.001 C 
ATOM     11  C   UNL     1       2.377   2.418  -1.356  0.00  0.00    +0.011 C 
ATOM     12  C   UNL     1       2.360   2.498   1.059  0.00  0.00    +0.011 C 
ATOM     13  C   UNL     1       2.430   3.153  -0.171  0.00  0.00    +0.058 C 
ENDBRANCH   1   8
BRANCH   2  15
ATOM     14  O   UNL     1      -2.054  -2.584  -0.014  0.00  0.00    -0.270 OA
ATOM     15  N   UNL     1      -0.374  -0.940  -0.056  0.00  0.00    -0.280 N 
ATOM     16  C   UNL     1      -1.691  -1.413  -0.050  0.00  0.00    +0.252 C 
ATOM     17  H   UNL     1      -0.267   0.039  -0.088  0.00  0.00    +0.155 HD
BRANCH  16  20
ATOM     18 CL   UNL     1      -1.845   0.693   2.226  0.00  0.00    -0.061 Cl
ATOM     19  N   UNL     1      -3.815   1.561   0.806  0.00  0.00    -0.232 NA
ATOM     20  C   UNL     1      -2.743  -0.364  -0.122  0.00  0.00    +0.082 C 
ATOM     21  C   UNL     1      -3.600  -0.377  -1.198  0.00  0.00    +0.009 C 
ATOM     22  C   UNL     1      -2.869   0.596   0.846  0.00  0.00    +0.143 C 
ATOM     23  C   UNL     1      -4.587   0.600  -1.274  0.00  0.00    +0.021 C 
ATOM     24  C   UNL     1      -4.651   1.537  -0.256  0.00  0.00    +0.100 C 
ENDBRANCH  16  20
ENDBRANCH   2  15
TORSDOF 3
