REMARK  Name = 11609586
REMARK  6 active torsions:
REMARK  status: ('A' for Active; 'I' for Inactive)
REMARK    1  A    between atoms: N_1  and  C_3
REMARK    2  A    between atoms: N_1  and  C_17
REMARK    3  A    between atoms: C_6  and  N_9
REMARK    4  A    between atoms: N_9  and  C_12
REMARK    5  A    between atoms: C_17  and  C_18
REMARK    6  A    between atoms: C_18  and  C_20
REMARK                            x       y       z     vdW  Elec       q    Type
REMARK                         _______ _______ _______ _____ _____    ______ ____
ROOT
ATOM      1  N   UNL     1       0.987   1.260  -0.313  0.00  0.00    -0.332 N 
ATOM      2  H   UNL     1       1.261   1.600   0.570  0.00  0.00    +0.147 HD
ENDROOT
BRANCH   1   3
ATOM      3  C   UNL     1      -0.293   0.737  -0.442  0.00  0.00    +0.045 C 
ATOM      4  C   UNL     1      -0.744   0.236  -1.676  0.00  0.00    +0.016 C 
ATOM      5  C   UNL     1      -1.168   0.696   0.658  0.00  0.00    +0.016 C 
ATOM      6  C   UNL     1      -2.884  -0.323  -0.703  0.00  0.00    +0.048 C 
ATOM      7  C   UNL     1      -2.030  -0.289  -1.805  0.00  0.00    +0.016 C 
ATOM      8  C   UNL     1      -2.453   0.170   0.529  0.00  0.00    +0.016 C 
BRANCH   6   9
ATOM      9  N   UNL     1      -4.183  -0.856  -0.834  0.00  0.00    -0.312 N 
ATOM     10  H   UNL     1      -4.255  -1.562  -1.516  0.00  0.00    +0.152 HD
BRANCH   9  12
ATOM     11  N   UNL     1      -7.813  -0.021   1.118  0.00  0.00    -0.242 NA
ATOM     12  C   UNL     1      -5.399  -0.576  -0.180  0.00  0.00    +0.051 C 
ATOM     13  C   UNL     1      -6.350  -1.577  -0.015  0.00  0.00    +0.035 C 
ATOM     14  C   UNL     1      -5.655   0.703   0.304  0.00  0.00    +0.035 C 
ATOM     15  C   UNL     1      -7.530  -1.252   0.635  0.00  0.00    +0.100 C 
ATOM     16  C   UNL     1      -6.865   0.926   0.940  0.00  0.00    +0.100 C 
ENDBRANCH   9  12
ENDBRANCH   6   9
ENDBRANCH   1   3
BRANCH   1  17
ATOM     17  C   UNL     1       1.935   1.335  -1.391  0.00  0.00    +0.092 C 
BRANCH  17  18
ATOM     18  C   UNL     1       3.284   1.922  -0.938  0.00  0.00    +0.049 C 
BRANCH  18  20
ATOM     19  N   UNL     1       4.595   0.389   2.106  0.00  0.00    -0.312 N 
ATOM     20  C   UNL     1       3.959   1.136   0.115  0.00  0.00    -0.005 C 
ATOM     21  C   UNL     1       4.883   0.072  -0.083  0.00  0.00    +0.011 C 
ATOM     22  C   UNL     1       5.267  -0.379   1.182  0.00  0.00    +0.048 C 
ATOM     23  C   UNL     1       3.803   1.307   1.471  0.00  0.00    +0.058 C 
ATOM     24  C   UNL     1       5.432  -0.553  -1.220  0.00  0.00    +0.001 C 
ATOM     25  C   UNL     1       6.175  -1.427   1.367  0.00  0.00    +0.015 C 
ATOM     26  C   UNL     1       6.342  -1.603  -1.050  0.00  0.00    +0.000 C 
ATOM     27  C   UNL     1       6.706  -2.032   0.225  0.00  0.00    +0.001 C 
ATOM     28  H   UNL     1       4.673   0.293   3.083  0.00  0.00    +0.152 HD
ENDBRANCH  18  20
ENDBRANCH  17  18
ENDBRANCH   1  17
TORSDOF 6
