REMARK  Name = 6303
REMARK  4 active torsions:
REMARK  status: ('A' for Active; 'I' for Inactive)
REMARK    1  A    between atoms: N_1  and  C_11
REMARK    2  A    between atoms: C_12  and  O_15
REMARK    3  A    between atoms: C_14  and  C_17
REMARK    4  A    between atoms: C_17  and  O_18
REMARK                            x       y       z     vdW  Elec       q    Type
REMARK                         _______ _______ _______ _____ _____    ______ ____
ROOT
ATOM      1  N   UNL     1      -0.019   0.151   0.144  0.00  0.00    -0.247 N 
ATOM      2  N   UNL     1      -1.315   1.857  -0.473  0.00  0.00    -0.242 NA
ATOM      3  N   UNL     1      -1.722  -1.513   0.624  0.00  0.00    -0.228 NA
ATOM      4  N   UNL     1      -3.963  -0.626   0.238  0.00  0.00    -0.229 NA
ATOM      5  C   UNL     1      -1.306  -0.297   0.239  0.00  0.00    +0.152 C 
ATOM      6  C   UNL     1      -0.077   1.450  -0.287  0.00  0.00    +0.223 C 
ATOM      7  C   UNL     1      -2.094   0.775  -0.148  0.00  0.00    +0.140 C 
ATOM      8  C   UNL     1      -3.471   0.579  -0.141  0.00  0.00    +0.143 C 
ATOM      9  C   UNL     1      -3.071  -1.583   0.591  0.00  0.00    +0.253 C 
ATOM     10  N   UNL     1      -4.345   1.612  -0.520  0.00  0.00    -0.342 N 
ATOM     11  H   UNL     1      -5.318   1.462  -0.511  0.00  0.00    +0.144 HD
ATOM     12  H   UNL     1      -3.985   2.486  -0.795  0.00  0.00    +0.144 HD
ENDROOT
BRANCH   1  14
ATOM     13  O   UNL     1       2.196   0.286   0.972  0.00  0.00    -0.335 OA
ATOM     14  C   UNL     1       1.196  -0.602   0.443  0.00  0.00    +0.222 C 
ATOM     15  C   UNL     1       1.816  -1.281  -0.768  0.00  0.00    +0.160 C 
ATOM     16  C   UNL     1       3.264  -1.383  -0.344  0.00  0.00    +0.066 C 
ATOM     17  C   UNL     1       3.480  -0.100   0.443  0.00  0.00    +0.149 C 
BRANCH  15  18
ATOM     18  O   UNL     1       1.242  -2.553  -0.994  0.00  0.00    -0.380 OA
ATOM     19  H   UNL     1       0.316  -2.447  -1.263  0.00  0.00    +0.211 HD
ENDBRANCH  15  18
BRANCH  17  20
ATOM     20  C   UNL     1       4.016   1.038  -0.415  0.00  0.00    +0.167 C 
BRANCH  20  21
ATOM     21  O   UNL     1       4.175   2.190   0.397  0.00  0.00    -0.379 OA
ATOM     22  H   UNL     1       4.516   2.921  -0.142  0.00  0.00    +0.211 HD
ENDBRANCH  20  21
ENDBRANCH  17  20
ENDBRANCH   1  14
TORSDOF 4
