REMARK  Name = 72462
REMARK  3 active torsions:
REMARK  status: ('A' for Active; 'I' for Inactive)
REMARK    1  A    between atoms: N_1  and  S_14
REMARK    2  A    between atoms: S_14  and  C_17
REMARK    3  A    between atoms: C_22  and  N_23
REMARK                            x       y       z     vdW  Elec       q    Type
REMARK                         _______ _______ _______ _____ _____    ______ ____
ROOT
ATOM      1  N   UNL     1       0.923   2.276  -0.818  0.00  0.00    -0.191 N 
ATOM      2  H   UNL     1       1.029   2.955  -1.522  0.00  0.00    +0.176 HD
ATOM      3 CL   UNL     1      -4.588  -1.218  -1.788  0.00  0.00    -0.081 Cl
ATOM      4  N   UNL     1      -0.720   1.212   0.510  0.00  0.00    -0.387 NA
ATOM      5  N   UNL     1      -2.078   0.380  -1.767  0.00  0.00    -0.258 NA
ATOM      6  C   UNL     1      -0.276   1.511  -0.724  0.00  0.00    +0.200 C 
ATOM      7  C   UNL     1      -1.851   0.491   0.611  0.00  0.00    +0.151 C 
ATOM      8  C   UNL     1      -2.538   0.070  -0.542  0.00  0.00    +0.117 C 
ATOM      9  C   UNL     1      -0.945   1.101  -1.846  0.00  0.00    +0.201 C 
ATOM     10  C   UNL     1      -2.357   0.152   1.863  0.00  0.00    +0.034 C 
ATOM     11  C   UNL     1      -3.707  -0.675  -0.400  0.00  0.00    +0.077 C 
ATOM     12  C   UNL     1      -3.527  -0.593   1.995  0.00  0.00    +0.004 C 
ATOM     13  C   UNL     1      -4.205  -1.009   0.858  0.00  0.00    +0.013 C 
ENDROOT
BRANCH   1  14
ATOM     14  S   UNL     1       2.184   1.991   0.324  0.00  0.00    +0.075 S 
ATOM     15  O   UNL     1       3.403   2.620  -0.149  0.00  0.00    -0.150 OA
ATOM     16  O   UNL     1       1.707   2.263   1.666  0.00  0.00    -0.150 OA
BRANCH  14  17
ATOM     17  C   UNL     1       2.418   0.243   0.177  0.00  0.00    +0.125 C 
ATOM     18  C   UNL     1       3.331  -0.239  -0.744  0.00  0.00    +0.021 C 
ATOM     19  C   UNL     1       1.684  -0.605   0.985  0.00  0.00    +0.021 C 
ATOM     20  C   UNL     1       3.516  -1.617  -0.859  0.00  0.00    +0.015 C 
ATOM     21  C   UNL     1       1.869  -1.983   0.870  0.00  0.00    +0.015 C 
ATOM     22  C   UNL     1       2.785  -2.489  -0.052  0.00  0.00    +0.042 C 
BRANCH  22  23
ATOM     23  N   UNL     1       2.972  -3.882  -0.169  0.00  0.00    -0.357 N 
ATOM     24  H   UNL     1       3.619  -4.239  -0.820  0.00  0.00    +0.142 HD
ATOM     25  H   UNL     1       2.456  -4.497   0.401  0.00  0.00    +0.142 HD
ENDBRANCH  22  23
ENDBRANCH  14  17
ENDBRANCH   1  14
TORSDOF 3
