11948288
  -OEChem-10051722503D

 54 58  0     1  0  0  0  0  0999 V2000
   -2.1811   -2.8523   -0.1045 O   0  0  0  0  0  0  0  0  0  0  0  0
   -4.1567    1.3718   -0.6518 O   0  0  0  0  0  0  0  0  0  0  0  0
    0.4207   -1.3905   -0.0763 N   0  0  0  0  0  0  0  0  0  0  0  0
    0.5761    0.8237   -0.2849 N   0  0  0  0  0  0  0  0  0  0  0  0
   -1.8384    1.2546   -0.4875 N   0  0  0  0  0  0  0  0  0  0  0  0
   -3.1972   -0.7474   -0.3794 N   0  0  0  0  0  0  0  0  0  0  0  0
    2.7603   -0.4463   -0.0157 C   0  0  0  0  0  0  0  0  0  0  0  0
    3.5843    0.9110   -0.0548 C   0  0  0  0  0  0  0  0  0  0  0  0
    4.6040   -0.5723    1.4868 C   0  0  2  0  0  0  0  0  0  0  0  0
    4.8819   -0.7939   -1.0566 C   0  0  1  0  0  0  0  0  0  0  0  0
    3.1740   -1.0923    1.3303 C   0  0  0  0  0  0  0  0  0  0  0  0
    3.4358   -1.2886   -1.1275 C   0  0  0  0  0  0  0  0  0  0  0  0
    4.3513    0.9226    1.2780 C   0  0  0  0  0  0  0  0  0  0  0  0
    4.6275    0.7073   -1.1659 C   0  0  0  0  0  0  0  0  0  0  0  0
    5.4892   -1.1240    0.3350 C   0  0  0  0  0  0  0  0  0  0  0  0
    1.2542   -0.2991   -0.1294 C   0  0  0  0  0  0  0  0  0  0  0  0
   -0.8575   -0.9284   -0.2059 C   0  0  0  0  0  0  0  0  0  0  0  0
   -0.7337    0.4284   -0.3322 C   0  0  0  0  0  0  0  0  0  0  0  0
   -2.0984   -1.6328   -0.2188 C   0  0  0  0  0  0  0  0  0  0  0  0
   -3.1366    0.6864   -0.5168 C   0  0  0  0  0  0  0  0  0  0  0  0
   -1.6555    2.6948   -0.6187 C   0  0  0  0  0  0  0  0  0  0  0  0
   -4.5249   -1.3517   -0.4084 C   0  0  0  0  0  0  0  0  0  0  0  0
   -1.6831    3.3597    0.7552 C   0  0  0  0  0  0  0  0  0  0  0  0
   -5.1019   -1.4309    1.0028 C   0  0  0  0  0  0  0  0  0  0  0  0
   -1.5156    4.8673    0.6443 C   0  0  0  0  0  0  0  0  0  0  0  0
   -6.4785   -2.0774    1.0028 C   0  0  0  0  0  0  0  0  0  0  0  0
    2.9990    1.8222   -0.2020 H   0  0  0  0  0  0  0  0  0  0  0  0
    5.0299   -0.7968    2.4683 H   0  0  0  0  0  0  0  0  0  0  0  0
    5.5008   -1.1792   -1.8712 H   0  0  0  0  0  0  0  0  0  0  0  0
    3.1234   -2.1868    1.3193 H   0  0  0  0  0  0  0  0  0  0  0  0
    2.5429   -0.7416    2.1575 H   0  0  0  0  0  0  0  0  0  0  0  0
    2.9937   -1.0766   -2.1097 H   0  0  0  0  0  0  0  0  0  0  0  0
    3.3534   -2.3680   -0.9579 H   0  0  0  0  0  0  0  0  0  0  0  0
    3.7237    1.3306    2.0795 H   0  0  0  0  0  0  0  0  0  0  0  0
    5.2759    1.5076    1.2418 H   0  0  0  0  0  0  0  0  0  0  0  0
    5.5345    1.3040   -1.0254 H   0  0  0  0  0  0  0  0  0  0  0  0
    4.2024    0.9648   -2.1436 H   0  0  0  0  0  0  0  0  0  0  0  0
    6.4934   -0.6895    0.4070 H   0  0  0  0  0  0  0  0  0  0  0  0
    5.5910   -2.2106    0.4405 H   0  0  0  0  0  0  0  0  0  0  0  0
    0.7036   -2.3551    0.0371 H   0  0  0  0  0  0  0  0  0  0  0  0
   -0.7147    2.9024   -1.1420 H   0  0  0  0  0  0  0  0  0  0  0  0
   -2.4642    3.0984   -1.2392 H   0  0  0  0  0  0  0  0  0  0  0  0
   -5.1870   -0.7636   -1.0539 H   0  0  0  0  0  0  0  0  0  0  0  0
   -4.4605   -2.3561   -0.8427 H   0  0  0  0  0  0  0  0  0  0  0  0
   -2.6296    3.1381    1.2627 H   0  0  0  0  0  0  0  0  0  0  0  0
   -0.8841    2.9542    1.3871 H   0  0  0  0  0  0  0  0  0  0  0  0
   -4.4334   -2.0082    1.6525 H   0  0  0  0  0  0  0  0  0  0  0  0
   -5.1741   -0.4271    1.4381 H   0  0  0  0  0  0  0  0  0  0  0  0
   -0.5608    5.1218    0.1732 H   0  0  0  0  0  0  0  0  0  0  0  0
   -2.3216    5.3087    0.0494 H   0  0  0  0  0  0  0  0  0  0  0  0
   -1.5370    5.3250    1.6382 H   0  0  0  0  0  0  0  0  0  0  0  0
   -7.1813   -1.5032    0.3907 H   0  0  0  0  0  0  0  0  0  0  0  0
   -6.4326   -3.0978    0.6088 H   0  0  0  0  0  0  0  0  0  0  0  0
   -6.8750   -2.1243    2.0218 H   0  0  0  0  0  0  0  0  0  0  0  0
  1 19  2  0  0  0  0
  2 20  2  0  0  0  0
  3 16  1  0  0  0  0
  3 17  1  0  0  0  0
  3 40  1  0  0  0  0
  4 16  2  0  0  0  0
  4 18  1  0  0  0  0
  5 18  1  0  0  0  0
  5 20  1  0  0  0  0
  5 21  1  0  0  0  0
  6 19  1  0  0  0  0
  6 20  1  0  0  0  0
  6 22  1  0  0  0  0
  7  8  1  0  0  0  0
  7 11  1  0  0  0  0
  7 12  1  0  0  0  0
  7 16  1  0  0  0  0
  8 13  1  0  0  0  0
  8 14  1  0  0  0  0
  8 27  1  0  0  0  0
  9 11  1  0  0  0  0
  9 13  1  0  0  0  0
  9 15  1  0  0  0  0
  9 28  1  0  0  0  0
 10 12  1  0  0  0  0
 10 14  1  0  0  0  0
 10 15  1  0  0  0  0
 10 29  1  0  0  0  0
 11 30  1  0  0  0  0
 11 31  1  0  0  0  0
 12 32  1  0  0  0  0
 12 33  1  0  0  0  0
 13 34  1  0  0  0  0
 13 35  1  0  0  0  0
 14 36  1  0  0  0  0
 14 37  1  0  0  0  0
 15 38  1  0  0  0  0
 15 39  1  0  0  0  0
 17 18  2  0  0  0  0
 17 19  1  0  0  0  0
 21 23  1  0  0  0  0
 21 41  1  0  0  0  0
 21 42  1  0  0  0  0
 22 24  1  0  0  0  0
 22 43  1  0  0  0  0
 22 44  1  0  0  0  0
 23 25  1  0  0  0  0
 23 45  1  0  0  0  0
 23 46  1  0  0  0  0
 24 26  1  0  0  0  0
 24 47  1  0  0  0  0
 24 48  1  0  0  0  0
 25 49  1  0  0  0  0
 25 50  1  0  0  0  0
 25 51  1  0  0  0  0
 26 52  1  0  0  0  0
 26 53  1  0  0  0  0
 26 54  1  0  0  0  0
M  END
> <DATABASE_ID>
DB12670

> <DATABASE_NAME>
drugbank

> <ORIGINAL_SOURCE>
PUBCHEM

> <ORIGINAL_SOURCE_URL>
https://pubchem.ncbi.nlm.nih.gov/rest/pug/compound/inchikey/PJBFVWGQFLYWCB-QUYAXPHCSA-N/SDF?record_type=3d

> <SMILES>
CCCN1C2=C(NC(=N2)C23C[C@@H]4CC2C[C@H](C3)C4)C(=O)N(CCC)C1=O

> <INCHI_IDENTIFIER>
InChI=1S/C20H28N4O2/c1-3-5-23-16-15(17(25)24(6-4-2)19(23)26)21-18(22-16)20-10-12-7-13(11-20)9-14(20)8-12/h12-14H,3-11H2,1-2H3,(H,21,22)/t12-,13+,14?,20?

> <INCHI_KEY>
PJBFVWGQFLYWCB-QUYAXPHCSA-N

> <FORMULA>
C20H28N4O2

> <MOLECULAR_WEIGHT>
356.47

> <EXACT_MASS>
356.221226158

> <JCHEM_ACCEPTOR_COUNT>
3

> <JCHEM_ATOM_COUNT>
54

> <JCHEM_AVERAGE_POLARIZABILITY>
40.65838209493059

> <JCHEM_BIOAVAILABILITY>
1

> <JCHEM_DONOR_COUNT>
1

> <JCHEM_FORMAL_CHARGE>
0

> <JCHEM_GHOSE_FILTER>
1

> <JCHEM_IUPAC>
1,3-dipropyl-8-[(1R,5S)-tricyclo[3.3.1.0^{3,7}]nonan-3-yl]-2,3,6,7-tetrahydro-1H-purine-2,6-dione

> <ALOGPS_LOGP>
4.11

> <JCHEM_LOGP>
3.270957111000001

> <ALOGPS_LOGS>
-3.45

> <JCHEM_MDDR_LIKE_RULE>
0

> <JCHEM_NUMBER_OF_RINGS>
5

> <JCHEM_PHYSIOLOGICAL_CHARGE>
0

> <JCHEM_PKA_STRONGEST_ACIDIC>
7.834110853710004

> <JCHEM_PKA_STRONGEST_BASIC>
-0.7196866761606945

> <JCHEM_POLAR_SURFACE_AREA>
69.30000000000001

> <JCHEM_REFRACTIVITY>
99.06399999999998

> <JCHEM_ROTATABLE_BOND_COUNT>
5

> <JCHEM_RULE_OF_FIVE>
1

> <ALOGPS_SOLUBILITY>
1.25e-01 g/l

> <JCHEM_TRADITIONAL_IUPAC>
1,3-dipropyl-8-[(1R,5S)-tricyclo[3.3.1.0^{3,7}]nonan-3-yl]-7H-purine-2,6-dione

> <JCHEM_VEBER_RULE>
0

> <DRUGBANK_ID>
DB12670

> <SECONDARY_ACCESSION_NUMBERS>
DB05360

> <DRUG_GROUPS>
investigational

> <GENERIC_NAME>
Rolofylline

$$$$
