9331
  -OEChem-01012010143D

 66 69  0     0  0  0  0  0  0999 V2000
   -3.1863   -2.0259   -1.5459 O   0  0  0  0  0  0  0  0  0  0  0  0
   -4.9931    0.1896    0.1173 N   0  0  0  0  0  0  0  0  0  0  0  0
   -0.8722   -0.0834    1.0318 N   0  0  0  0  0  0  0  0  0  0  0  0
   -4.6852   -2.5998    0.1027 N   0  0  0  0  0  0  0  0  0  0  0  0
    3.5742    0.3059    3.1959 N   0  0  0  0  0  0  0  0  0  0  0  0
   -3.6610   -0.4128    0.1641 C   0  0  0  0  0  0  0  0  0  0  0  0
   -3.2229   -0.5957    1.6226 C   0  0  0  0  0  0  0  0  0  0  0  0
   -2.6614    0.4747   -0.5880 C   0  0  0  0  0  0  0  0  0  0  0  0
   -1.7551   -1.0252    1.7325 C   0  0  0  0  0  0  0  0  0  0  0  0
   -1.2150    0.0041   -0.3936 C   0  0  0  0  0  0  0  0  0  0  0  0
   -5.0018    1.4740    0.8315 C   0  0  0  0  0  0  0  0  0  0  0  0
   -5.4348    0.3530   -1.2749 C   0  0  0  0  0  0  0  0  0  0  0  0
   -6.3997    2.0943    0.8342 C   0  0  0  0  0  0  0  0  0  0  0  0
   -6.8471    0.9365   -1.3409 C   0  0  0  0  0  0  0  0  0  0  0  0
   -3.8017   -1.7495   -0.5191 C   0  0  0  0  0  0  0  0  0  0  0  0
   -6.9377    2.2559   -0.5830 C   0  0  0  0  0  0  0  0  0  0  0  0
    0.5276   -0.4746    1.1979 C   0  0  0  0  0  0  0  0  0  0  0  0
    1.4448    0.5472    0.5017 C   0  0  0  0  0  0  0  0  0  0  0  0
    2.9866    0.2456    0.6064 C   0  0  0  0  0  0  0  0  0  0  0  0
    3.8673    1.3353   -0.0613 C   0  0  0  0  0  0  0  0  0  0  0  0
    3.2648   -1.1205   -0.0671 C   0  0  0  0  0  0  0  0  0  0  0  0
    3.3194    0.2708    2.0637 C   0  0  0  0  0  0  0  0  0  0  0  0
    5.2232    1.2099    0.0423 C   0  0  0  0  0  0  0  0  0  0  0  0
    3.7676   -2.1272    0.7099 C   0  0  0  0  0  0  0  0  0  0  0  0
    3.2343    2.3548   -0.7132 C   0  0  0  0  0  0  0  0  0  0  0  0
    2.9918   -1.2448   -1.4012 C   0  0  0  0  0  0  0  0  0  0  0  0
    6.0149    2.1891   -0.5579 C   0  0  0  0  0  0  0  0  0  0  0  0
    4.0181   -3.3580    0.1034 C   0  0  0  0  0  0  0  0  0  0  0  0
    4.0261    3.3339   -1.3134 C   0  0  0  0  0  0  0  0  0  0  0  0
    3.2422   -2.4757   -2.0076 C   0  0  0  0  0  0  0  0  0  0  0  0
    5.4164    3.2509   -1.2357 C   0  0  0  0  0  0  0  0  0  0  0  0
    3.7554   -3.5324   -1.2552 C   0  0  0  0  0  0  0  0  0  0  0  0
   -3.8462   -1.3121    2.1696 H   0  0  0  0  0  0  0  0  0  0  0  0
   -3.2551    0.3320    2.1996 H   0  0  0  0  0  0  0  0  0  0  0  0
   -2.6739    1.5172   -0.2585 H   0  0  0  0  0  0  0  0  0  0  0  0
   -2.8348    0.4867   -1.6708 H   0  0  0  0  0  0  0  0  0  0  0  0
   -1.4896   -1.0585    2.7968 H   0  0  0  0  0  0  0  0  0  0  0  0
   -1.6342   -2.0436    1.3406 H   0  0  0  0  0  0  0  0  0  0  0  0
   -1.0333   -0.9489   -0.9040 H   0  0  0  0  0  0  0  0  0  0  0  0
   -0.6313    0.7667   -0.9145 H   0  0  0  0  0  0  0  0  0  0  0  0
   -4.3314    2.2259    0.4074 H   0  0  0  0  0  0  0  0  0  0  0  0
   -4.7720    1.3721    1.8933 H   0  0  0  0  0  0  0  0  0  0  0  0
   -5.4737   -0.5960   -1.8199 H   0  0  0  0  0  0  0  0  0  0  0  0
   -4.7931    1.0345   -1.8445 H   0  0  0  0  0  0  0  0  0  0  0  0
   -6.3744    3.0705    1.3321 H   0  0  0  0  0  0  0  0  0  0  0  0
   -7.0834    1.4594    1.4126 H   0  0  0  0  0  0  0  0  0  0  0  0
   -7.1371    1.0920   -2.3865 H   0  0  0  0  0  0  0  0  0  0  0  0
   -7.5609    0.2199   -0.9147 H   0  0  0  0  0  0  0  0  0  0  0  0
   -6.3564    3.0223   -1.1103 H   0  0  0  0  0  0  0  0  0  0  0  0
   -7.9765    2.6026   -0.5539 H   0  0  0  0  0  0  0  0  0  0  0  0
    0.7635   -0.5056    2.2676 H   0  0  0  0  0  0  0  0  0  0  0  0
    0.6941   -1.4811    0.7959 H   0  0  0  0  0  0  0  0  0  0  0  0
    1.2280    1.5328    0.9398 H   0  0  0  0  0  0  0  0  0  0  0  0
    1.2092    0.5975   -0.5624 H   0  0  0  0  0  0  0  0  0  0  0  0
   -4.8581   -3.5285   -0.2678 H   0  0  0  0  0  0  0  0  0  0  0  0
   -5.2346   -2.3287    0.9114 H   0  0  0  0  0  0  0  0  0  0  0  0
    5.7051    0.3894    0.5633 H   0  0  0  0  0  0  0  0  0  0  0  0
    3.9883   -2.0449    1.7664 H   0  0  0  0  0  0  0  0  0  0  0  0
    2.1641    2.4747   -0.8103 H   0  0  0  0  0  0  0  0  0  0  0  0
    2.6002   -0.4343   -2.0060 H   0  0  0  0  0  0  0  0  0  0  0  0
    7.0975    2.1242   -0.4982 H   0  0  0  0  0  0  0  0  0  0  0  0
    4.4176   -4.1813    0.6885 H   0  0  0  0  0  0  0  0  0  0  0  0
    3.5612    4.1611   -1.8420 H   0  0  0  0  0  0  0  0  0  0  0  0
    3.0394   -2.6112   -3.0659 H   0  0  0  0  0  0  0  0  0  0  0  0
    6.0329    4.0130   -1.7033 H   0  0  0  0  0  0  0  0  0  0  0  0
    3.9507   -4.4906   -1.7276 H   0  0  0  0  0  0  0  0  0  0  0  0
  1 15  2  0  0  0  0
  2  6  1  0  0  0  0
  2 11  1  0  0  0  0
  2 12  1  0  0  0  0
  3  9  1  0  0  0  0
  3 10  1  0  0  0  0
  3 17  1  0  0  0  0
  4 15  1  0  0  0  0
  4 55  1  0  0  0  0
  4 56  1  0  0  0  0
  5 22  3  0  0  0  0
  6  7  1  0  0  0  0
  6  8  1  0  0  0  0
  6 15  1  0  0  0  0
  7  9  1  0  0  0  0
  7 33  1  0  0  0  0
  7 34  1  0  0  0  0
  8 10  1  0  0  0  0
  8 35  1  0  0  0  0
  8 36  1  0  0  0  0
  9 37  1  0  0  0  0
  9 38  1  0  0  0  0
 10 39  1  0  0  0  0
 10 40  1  0  0  0  0
 11 13  1  0  0  0  0
 11 41  1  0  0  0  0
 11 42  1  0  0  0  0
 12 14  1  0  0  0  0
 12 43  1  0  0  0  0
 12 44  1  0  0  0  0
 13 16  1  0  0  0  0
 13 45  1  0  0  0  0
 13 46  1  0  0  0  0
 14 16  1  0  0  0  0
 14 47  1  0  0  0  0
 14 48  1  0  0  0  0
 16 49  1  0  0  0  0
 16 50  1  0  0  0  0
 17 18  1  0  0  0  0
 17 51  1  0  0  0  0
 17 52  1  0  0  0  0
 18 19  1  0  0  0  0
 18 53  1  0  0  0  0
 18 54  1  0  0  0  0
 19 20  1  0  0  0  0
 19 21  1  0  0  0  0
 19 22  1  0  0  0  0
 20 23  2  0  0  0  0
 20 25  1  0  0  0  0
 21 24  2  0  0  0  0
 21 26  1  0  0  0  0
 23 27  1  0  0  0  0
 23 57  1  0  0  0  0
 24 28  1  0  0  0  0
 24 58  1  0  0  0  0
 25 29  2  0  0  0  0
 25 59  1  0  0  0  0
 26 30  2  0  0  0  0
 26 60  1  0  0  0  0
 27 31  2  0  0  0  0
 27 61  1  0  0  0  0
 28 32  2  0  0  0  0
 28 62  1  0  0  0  0
 29 31  1  0  0  0  0
 29 63  1  0  0  0  0
 30 32  1  0  0  0  0
 30 64  1  0  0  0  0
 31 65  1  0  0  0  0
 32 66  1  0  0  0  0
M  END
> <DATABASE_ID>
DB12492

> <DATABASE_NAME>
drugbank

> <ORIGINAL_SOURCE>
PUBCHEM

> <ORIGINAL_SOURCE_URL>
https://pubchem.ncbi.nlm.nih.gov/rest/pug/compound/inchikey/IHEHEFLXQFOQJO-UHFFFAOYSA-N/SDF?record_type=3d

> <SMILES>
NC(=O)C1(CCN(CCC(C#N)(C2=CC=CC=C2)C2=CC=CC=C2)CC1)N1CCCCC1

> <INCHI_IDENTIFIER>
InChI=1S/C27H34N4O/c28-22-26(23-10-4-1-5-11-23,24-12-6-2-7-13-24)14-19-30-20-15-27(16-21-30,25(29)32)31-17-8-3-9-18-31/h1-2,4-7,10-13H,3,8-9,14-21H2,(H2,29,32)

> <INCHI_KEY>
IHEHEFLXQFOQJO-UHFFFAOYSA-N

> <FORMULA>
C27H34N4O

> <MOLECULAR_WEIGHT>
430.5851

> <EXACT_MASS>
430.27326173

> <JCHEM_ACCEPTOR_COUNT>
4

> <JCHEM_ATOM_COUNT>
66

> <JCHEM_AVERAGE_NEUTRAL_MICROSPECIES_CHARGE>
1.2160196748962138

> <JCHEM_AVERAGE_POLARIZABILITY>
49.45464851155796

> <JCHEM_BIOAVAILABILITY>
1

> <JCHEM_DONOR_COUNT>
1

> <JCHEM_FORMAL_CHARGE>
0

> <JCHEM_GHOSE_FILTER>
0

> <JCHEM_IUPAC>
1'-(3-cyano-3,3-diphenylpropyl)-[1,4'-bipiperidine]-4'-carboxamide

> <ALOGPS_LOGP>
3.71

> <JCHEM_LOGP>
3.394744209999999

> <ALOGPS_LOGS>
-4.63

> <JCHEM_MDDR_LIKE_RULE>
1

> <JCHEM_NEUTRAL_CHARGE>
1

> <JCHEM_NUMBER_OF_RINGS>
4

> <JCHEM_PHYSIOLOGICAL_CHARGE>
1

> <JCHEM_PKA_STRONGEST_ACIDIC>
15.715887311042005

> <JCHEM_PKA_STRONGEST_BASIC>
8.873902064825653

> <JCHEM_POLAR_SURFACE_AREA>
73.36000000000001

> <JCHEM_REFRACTIVITY>
139.806

> <JCHEM_ROTATABLE_BOND_COUNT>
7

> <JCHEM_RULE_OF_FIVE>
1

> <ALOGPS_SOLUBILITY>
9.98e-03 g/l

> <JCHEM_TRADITIONAL_IUPAC>
mizolastine

> <JCHEM_VEBER_RULE>
0

> <DRUGBANK_ID>
DB12492

> <DRUG_GROUPS>
approved; investigational

> <GENERIC_NAME>
Piritramide

> <SYNONYMS>
Piritramida; Piritramide; Piritramidum

> <INTERNATIONAL_BRANDS>
Dipidolor; Piridolan

$$$$
