REMARK  Name = 5160
REMARK  15 active torsions:
REMARK  status: ('A' for Active; 'I' for Inactive)
REMARK    1  A    between atoms: O_1  and  C_3
REMARK    2  A    between atoms: O_1  and  C_18
REMARK    3  A    between atoms: C_2  and  C_8
REMARK    4  A    between atoms: C_8  and  C_9
REMARK    5  A    between atoms: C_9  and  C_10
REMARK    6  A    between atoms: C_13  and  O_16
REMARK    7  A    between atoms: C_18  and  C_19
REMARK    8  A    between atoms: C_19  and  O_20
REMARK    9  A    between atoms: C_19  and  C_29
REMARK   10  A    between atoms: O_20  and  C_22
REMARK   11  A    between atoms: C_22  and  C_23
REMARK   12  A    between atoms: C_23  and  C_24
REMARK   13  A    between atoms: C_24  and  C_26
REMARK   14  A    between atoms: C_26  and  O_27
REMARK   15  A    between atoms: C_29  and  N_30
REMARK                            x       y       z     vdW  Elec       q    Type
REMARK                         _______ _______ _______ _____ _____    ______ ____
ROOT
ATOM      1  O   UNL     1      -2.595  -0.229  -0.160  0.00  0.00    -0.472 OA
ENDROOT
BRANCH   1   3
ATOM      2  C   UNL     1      -2.498   2.020   0.680  0.00  0.00    +0.012 C 
ATOM      3  C   UNL     1      -3.226   0.882   0.331  0.00  0.00    +0.135 C 
ATOM      4  C   UNL     1      -3.157   3.143   1.180  0.00  0.00    -0.001 C 
ATOM      5  C   UNL     1      -4.613   0.868   0.482  0.00  0.00    +0.037 C 
ATOM      6  C   UNL     1      -4.543   3.129   1.331  0.00  0.00    -0.000 C 
ATOM      7  C   UNL     1      -5.271   1.992   0.982  0.00  0.00    +0.003 C 
BRANCH   2   8
ATOM      8  C   UNL     1      -1.014   2.053   0.524  0.00  0.00    +0.034 C 
BRANCH   8   9
ATOM      9  C   UNL     1      -0.539   2.563  -0.850  0.00  0.00    +0.031 C 
BRANCH   9  10
ATOM     10  C   UNL     1       0.962   2.556  -1.002  0.00  0.00    -0.019 C 
ATOM     11  C   UNL     1       1.607   1.427  -1.506  0.00  0.00    +0.033 C 
ATOM     12  C   UNL     1       1.705   3.679  -0.637  0.00  0.00    -0.004 C 
ATOM     13  C   UNL     1       2.995   1.421  -1.646  0.00  0.00    +0.138 C 
ATOM     14  C   UNL     1       3.093   3.673  -0.777  0.00  0.00    +0.003 C 
ATOM     15  C   UNL     1       3.738   2.543  -1.282  0.00  0.00    +0.037 C 
BRANCH  13  16
ATOM     16  O   UNL     1       3.625   0.319  -2.139  0.00  0.00    -0.471 OA
ATOM     17  C   UNL     1       2.805  -0.794  -2.492  0.00  0.00    +0.252 C 
ENDBRANCH  13  16
ENDBRANCH   9  10
ENDBRANCH   8   9
ENDBRANCH   2   8
ENDBRANCH   1   3
BRANCH   1  18
ATOM     18  C   UNL     1      -2.745  -1.433   0.586  0.00  0.00    +0.246 C 
BRANCH  18  19
ATOM     19  C   UNL     1      -1.504  -2.298   0.382  0.00  0.00    +0.192 C 
BRANCH  19  20
ATOM     20  O   UNL     1      -0.357  -1.559   0.817  0.00  0.00    -0.451 OA
BRANCH  20  22
ATOM     21  O   UNL     1       0.664  -3.524   1.463  0.00  0.00    -0.250 OA
ATOM     22  C   UNL     1       0.660  -2.307   1.341  0.00  0.00    +0.317 C 
BRANCH  22  23
ATOM     23  C   UNL     1       1.784  -1.380   1.751  0.00  0.00    +0.121 C 
BRANCH  23  24
ATOM     24  C   UNL     1       3.165  -1.999   1.573  0.00  0.00    +0.121 C 
BRANCH  24  26
ATOM     25  O   UNL     1       4.046   0.114   2.347  0.00  0.00    -0.250 OA
ATOM     26  C   UNL     1       4.255  -1.022   1.940  0.00  0.00    +0.314 C 
BRANCH  26  27
ATOM     27  O   UNL     1       5.497  -1.545   1.793  0.00  0.00    -0.480 OA
ATOM     28  H   UNL     1       5.602  -2.421   1.478  0.00  0.00    +0.295 HD
ENDBRANCH  26  27
ENDBRANCH  24  26
ENDBRANCH  23  24
ENDBRANCH  22  23
ENDBRANCH  20  22
ENDBRANCH  19  20
BRANCH  19  29
ATOM     29  C   UNL     1      -1.283  -2.707  -1.076  0.00  0.00    -0.029 C 
BRANCH  29  30
ATOM     30  N   UNL     1      -2.422  -3.435  -1.619  0.00  0.00    +0.387 N 
ATOM     31  C   UNL     1      -2.474  -3.303  -3.076  0.00  0.00    -0.101 C 
ATOM     32  C   UNL     1      -2.361  -4.848  -1.240  0.00  0.00    -0.101 C 
ATOM     33  H   UNL     1      -3.273  -3.031  -1.226  0.00  0.00    -0.080 HD
ENDBRANCH  29  30
ENDBRANCH  19  29
ENDBRANCH  18  19
ENDBRANCH   1  18
TORSDOF 15
