REMARK  Name = 54575171
REMARK  9 active torsions:
REMARK  status: ('A' for Active; 'I' for Inactive)
REMARK    1  A    between atoms: N_2  and  C_17
REMARK    2  A    between atoms: C_3  and  C_6
REMARK    3  A    between atoms: C_7  and  O_15
REMARK    4  A    between atoms: C_11  and  N_12
REMARK    5  A    between atoms: C_17  and  C_19
REMARK    6  A    between atoms: N_18  and  C_25
REMARK    7  A    between atoms: C_25  and  C_26
REMARK    8  A    between atoms: C_26  and  C_27
REMARK    9  A    between atoms: C_27  and  N_28
REMARK                            x       y       z     vdW  Elec       q    Type
REMARK                         _______ _______ _______ _____ _____    ______ ____
ROOT
ATOM      1  O   UNL     1      -3.121  -1.926   1.801  0.00  0.00    -0.270 OA
ATOM      2  N   UNL     1      -1.956  -2.182  -0.190  0.00  0.00    -0.301 N 
ATOM      3  C   UNL     1      -2.764  -1.490   0.709  0.00  0.00    +0.249 C 
ATOM      4  H   UNL     1      -1.723  -1.749  -1.042  0.00  0.00    +0.150 HD
ENDROOT
BRANCH   3   6
ATOM      5 CL   UNL     1      -6.433   2.141   0.946  0.00  0.00    -0.081 Cl
ATOM      6  C   UNL     1      -3.229  -0.146   0.278  0.00  0.00    +0.088 C 
ATOM      7  C   UNL     1      -2.454   0.638  -0.577  0.00  0.00    +0.144 C 
ATOM      8  C   UNL     1      -4.456   0.329   0.741  0.00  0.00    +0.020 C 
ATOM      9  C   UNL     1      -2.907   1.898  -0.968  0.00  0.00    +0.052 C 
ATOM     10  C   UNL     1      -4.909   1.589   0.349  0.00  0.00    +0.071 C 
ATOM     11  C   UNL     1      -4.134   2.374  -0.506  0.00  0.00    +0.055 C 
BRANCH  11  12
ATOM     12  N   UNL     1      -4.566   3.653  -0.921  0.00  0.00    -0.356 N 
ATOM     13  H   UNL     1      -4.004   4.191  -1.524  0.00  0.00    +0.142 HD
ATOM     14  H   UNL     1      -5.429   4.008  -0.607  0.00  0.00    +0.142 HD
ENDBRANCH  11  12
BRANCH   7  15
ATOM     15  O   UNL     1      -1.252   0.193  -1.038  0.00  0.00    -0.471 OA
ATOM     16  C   UNL     1      -0.530   1.063  -1.907  0.00  0.00    +0.252 C 
ENDBRANCH   7  15
ENDBRANCH   3   6
BRANCH   2  17
ATOM     17  C   UNL     1      -1.450  -3.495   0.072  0.00  0.00    +0.089 C 
BRANCH  17  19
ATOM     18  N   UNL     1       2.619  -2.086  -0.274  0.00  0.00    +0.387 N 
ATOM     19  C   UNL     1       0.076  -3.506   0.065  0.00  0.00    +0.015 C 
ATOM     20  C   UNL     1       0.639  -2.562   1.132  0.00  0.00    -0.021 C 
ATOM     21  C   UNL     1       0.623  -3.116  -1.313  0.00  0.00    -0.021 C 
ATOM     22  C   UNL     1       2.166  -2.491   1.064  0.00  0.00    -0.077 C 
ATOM     23  C   UNL     1       2.151  -3.028  -1.299  0.00  0.00    -0.077 C 
ATOM     24  H   UNL     1       2.215  -1.172  -0.479  0.00  0.00    -0.080 HD
BRANCH  18  25
ATOM     25  C   UNL     1       4.077  -1.974  -0.308  0.00  0.00    -0.076 C 
BRANCH  25  26
ATOM     26  C   UNL     1       4.519  -0.632   0.274  0.00  0.00    +0.001 C 
BRANCH  26  27
ATOM     27  C   UNL     1       3.923   0.535  -0.517  0.00  0.00    +0.116 C 
BRANCH  27  28
ATOM     28  N   UNL     1       4.385   1.866   0.019  0.00  0.00    -0.191 N 
ATOM     29  N   UNL     1       3.850   2.376   1.140  0.00  0.00    -0.073 NA
ATOM     30  N   UNL     1       4.444   3.543   1.365  0.00  0.00    -0.129 NA
ATOM     31  C   UNL     1       5.334   2.690  -0.504  0.00  0.00    +0.108 C 
ATOM     32  C   UNL     1       5.356   3.749   0.367  0.00  0.00    +0.141 C 
ENDBRANCH  27  28
ENDBRANCH  26  27
ENDBRANCH  25  26
ENDBRANCH  18  25
ENDBRANCH  17  19
ENDBRANCH   2  17
TORSDOF 9
