REMARK  Name = 25052630
REMARK  6 active torsions:
REMARK  status: ('A' for Active; 'I' for Inactive)
REMARK    1  A    between atoms: N_2  and  C_11
REMARK    2  A    between atoms: C_4  and  C_20
REMARK    3  A    between atoms: C_20  and  C_21
REMARK    4  A    between atoms: C_21  and  N_22
REMARK    5  A    between atoms: N_22  and  C_25
REMARK    6  A    between atoms: C_25  and  C_26
REMARK                            x       y       z     vdW  Elec       q    Type
REMARK                         _______ _______ _______ _____ _____    ______ ____
ROOT
ATOM      1  S   UNL     1      -3.231   3.877  -0.069  0.00  0.00    -0.018 S 
ATOM      2  N   UNL     1      -1.079   2.088   0.018  0.00  0.00    -0.270 N 
ATOM      3  N   UNL     1      -0.540   4.248  -0.310  0.00  0.00    -0.294 N 
ATOM      4  C   UNL     1       0.304   2.214  -0.097  0.00  0.00    +0.043 C 
ATOM      5  C   UNL     1      -1.646   3.389  -0.116  0.00  0.00    +0.142 C 
ATOM      6  C   UNL     1       0.611   3.506  -0.292  0.00  0.00    +0.074 C 
ATOM      7  H   UNL     1      -0.589   5.223  -0.438  0.00  0.00    +0.154 HD
ENDROOT
BRANCH   2  11
ATOM      8  F   UNL     1      -4.750  -2.498   2.357  0.00  0.00    -0.201 F 
ATOM      9  F   UNL     1      -5.829  -3.003  -2.219  0.00  0.00    -0.204 F 
ATOM     10  O   UNL     1      -3.138  -0.424   1.824  0.00  0.00    -0.472 OA
ATOM     11  C   UNL     1      -1.763   0.839   0.233  0.00  0.00    +0.127 C 
ATOM     12  C   UNL     1      -2.709   0.521  -0.922  0.00  0.00    +0.054 C 
ATOM     13  C   UNL     1      -2.562   0.854   1.532  0.00  0.00    +0.226 C 
ATOM     14  C   UNL     1      -3.611  -0.626  -0.564  0.00  0.00    +0.018 C 
ATOM     15  C   UNL     1      -3.780  -1.020   0.770  0.00  0.00    +0.162 C 
ATOM     16  C   UNL     1      -4.317  -1.299  -1.570  0.00  0.00    +0.029 C 
ATOM     17  C   UNL     1      -4.613  -2.097   1.086  0.00  0.00    +0.176 C 
ATOM     18  C   UNL     1      -5.158  -2.366  -1.250  0.00  0.00    +0.142 C 
ATOM     19  C   UNL     1      -5.302  -2.767   0.076  0.00  0.00    +0.062 C 
ENDBRANCH   2  11
BRANCH   4  20
ATOM     20  C   UNL     1       1.229   1.058  -0.007  0.00  0.00    +0.019 C 
BRANCH  20  21
ATOM     21  C   UNL     1       2.686   1.491  -0.168  0.00  0.00    -0.075 C 
BRANCH  21  22
ATOM     22  N   UNL     1       3.576   0.340  -0.066  0.00  0.00    +0.387 N 
ATOM     23  H   UNL     1       3.353  -0.321  -0.810  0.00  0.00    -0.084 HD
ATOM     24  H   UNL     1       3.444  -0.094   0.847  0.00  0.00    -0.084 HD
BRANCH  22  25
ATOM     25  C   UNL     1       4.968   0.748  -0.191  0.00  0.00    -0.054 C 
BRANCH  25  26
ATOM     26  C   UNL     1       5.907  -0.425  -0.097  0.00  0.00    -0.044 C 
ATOM     27  C   UNL     1       6.405  -0.822   1.145  0.00  0.00    -0.006 C 
ATOM     28  C   UNL     1       6.277  -1.116  -1.250  0.00  0.00    -0.006 C 
ATOM     29  C   UNL     1       7.274  -1.909   1.232  0.00  0.00    -0.000 C 
ATOM     30  C   UNL     1       7.147  -2.204  -1.162  0.00  0.00    -0.000 C 
ATOM     31  C   UNL     1       7.645  -2.600   0.079  0.00  0.00    -0.000 C 
ENDBRANCH  25  26
ENDBRANCH  22  25
ENDBRANCH  21  22
ENDBRANCH  20  21
ENDBRANCH   4  20
TORSDOF 6
