REMARK  Name = 58460047
REMARK  6 active torsions:
REMARK  status: ('A' for Active; 'I' for Inactive)
REMARK    1  A    between atoms: N_2  and  C_22
REMARK    2  A    between atoms: C_4  and  O_12
REMARK    3  A    between atoms: C_5  and  C_11
REMARK    4  A    between atoms: O_12  and  C_14
REMARK    5  A    between atoms: C_17  and  C_21
REMARK    6  A    between atoms: C_22  and  C_27
REMARK                            x       y       z     vdW  Elec       q    Type
REMARK                         _______ _______ _______ _____ _____    ______ ____
ROOT
ATOM      1  O   UNL     1      -0.222   0.595  -1.819  0.00  0.00    -0.266 OA
ATOM      2  N   UNL     1       1.676  -0.589  -1.152  0.00  0.00    -0.244 N 
ATOM      3  C   UNL     1       0.298  -0.373  -1.264  0.00  0.00    +0.288 C 
ATOM      4  C   UNL     1      -0.584  -1.424  -0.650  0.00  0.00    +0.203 C 
ATOM      5  C   UNL     1      -0.040  -2.492  -0.039  0.00  0.00    +0.112 C 
ATOM      6  C   UNL     1       2.192  -1.701  -0.515  0.00  0.00    +0.068 C 
ATOM      7  C   UNL     1       1.399  -2.630   0.028  0.00  0.00    +0.023 C 
ENDROOT
BRANCH   5  11
ATOM      8  F   UNL     1      -0.021  -4.524   1.134  0.00  0.00    -0.166 F 
ATOM      9  F   UNL     1      -1.615  -3.109   1.590  0.00  0.00    -0.166 F 
ATOM     10  F   UNL     1      -1.633  -4.199  -0.297  0.00  0.00    -0.166 F 
ATOM     11  C   UNL     1      -0.835  -3.591   0.603  0.00  0.00    +0.422 C 
ENDBRANCH   5  11
BRANCH   4  12
ATOM     12  O   UNL     1      -1.949  -1.248  -0.740  0.00  0.00    -0.449 OA
BRANCH  12  14
ATOM     13 CL   UNL     1      -2.057   1.906   3.256  0.00  0.00    -0.082 Cl
ATOM     14  C   UNL     1      -2.465  -0.120  -0.168  0.00  0.00    +0.147 C 
ATOM     15  C   UNL     1      -3.410   0.640  -0.857  0.00  0.00    +0.048 C 
ATOM     16  C   UNL     1      -2.047   0.271   1.103  0.00  0.00    +0.049 C 
ATOM     17  C   UNL     1      -3.937   1.792  -0.273  0.00  0.00    +0.072 C 
ATOM     18  C   UNL     1      -2.574   1.423   1.687  0.00  0.00    +0.061 C 
ATOM     19  C   UNL     1      -3.519   2.184   0.999  0.00  0.00    +0.022 C 
BRANCH  17  21
ATOM     20  N   UNL     1      -5.691   3.205  -1.551  0.00  0.00    -0.191 NA
ATOM     21  C   UNL     1      -4.905   2.572  -0.978  0.00  0.00    +0.101 C 
ENDBRANCH  17  21
ENDBRANCH  12  14
ENDBRANCH   4  12
BRANCH   2  22
ATOM     22  C   UNL     1       2.594   0.389  -1.724  0.00  0.00    +0.164 C 
BRANCH  22  27
ATOM     23  O   UNL     1       5.688   2.195   1.397  0.00  0.00    -0.245 OA
ATOM     24  N   UNL     1       4.491   1.125  -0.314  0.00  0.00    -0.264 N 
ATOM     25  N   UNL     1       2.455   1.859   0.242  0.00  0.00    -0.154 NA
ATOM     26  N   UNL     1       3.366   2.362   1.123  0.00  0.00    -0.226 N 
ATOM     27  C   UNL     1       3.167   1.143  -0.577  0.00  0.00    +0.164 A 
ATOM     28  C   UNL     1       4.656   1.920   0.802  0.00  0.00    +0.345 A 
ATOM     29  C   UNL     1       5.523   0.418  -1.048  0.00  0.00    +0.136 C 
ATOM     30  H   UNL     1       3.147   2.953   1.879  0.00  0.00    +0.194 HD
ENDBRANCH  22  27
ENDBRANCH   2  22
TORSDOF 6
