REMARK  Name = 57050
REMARK  0 active torsions:
REMARK  status: ('A' for Active; 'I' for Inactive)
REMARK                            x       y       z     vdW  Elec       q    Type
REMARK                         _______ _______ _______ _____ _____    ______ ____
ROOT
ATOM      1  O   UNL     1       4.864  -1.074   1.167  0.00  0.00    -0.296 OA
ATOM      2  O   UNL     1      -4.877   0.628   1.804  0.00  0.00    -0.287 OA
ATOM      3  C   UNL     1       0.729   0.819  -0.516  0.00  0.00    +0.001 C 
ATOM      4  C   UNL     1       2.068   0.762   0.225  0.00  0.00    +0.007 C 
ATOM      5  C   UNL     1      -0.210  -0.319   0.039  0.00  0.00    +0.007 C 
ATOM      6  C   UNL     1       2.783  -0.584   0.007  0.00  0.00    +0.052 C 
ATOM      7  C   UNL     1      -1.628  -0.310  -0.675  0.00  0.00    +0.030 C 
ATOM      8  C   UNL     1       0.513  -1.692   0.078  0.00  0.00    +0.001 C 
ATOM      9  C   UNL     1       1.935  -1.662   0.668  0.00  0.00    +0.007 C 
ATOM     10  C   UNL     1       0.077   2.204  -0.374  0.00  0.00    +0.004 C 
ATOM     11  C   UNL     1       3.141   1.806  -0.069  0.00  0.00    +0.008 C 
ATOM     12  C   UNL     1       4.099  -0.250   0.685  0.00  0.00    +0.150 C 
ATOM     13  C   UNL     1      -2.156   1.121  -0.436  0.00  0.00    -0.038 C 
ATOM     14  C   UNL     1       4.370   1.244   0.661  0.00  0.00    +0.064 C 
ATOM     15  C   UNL     1      -1.320   2.253  -0.983  0.00  0.00    +0.022 C 
ATOM     16  C   UNL     1       3.116  -0.947  -1.451  0.00  0.00    +0.007 C 
ATOM     17  C   UNL     1      -2.614  -1.362  -0.108  0.00  0.00    -0.038 C 
ATOM     18  C   UNL     1      -1.519  -0.558  -2.201  0.00  0.00    +0.008 C 
ATOM     19  C   UNL     1      -3.216   1.412   0.333  0.00  0.00    +0.034 C 
ATOM     20  C   UNL     1      -3.650  -1.041   0.686  0.00  0.00    +0.034 C 
ATOM     21  C   UNL     1      -2.526  -2.805  -0.555  0.00  0.00    +0.027 C 
ATOM     22  C   UNL     1      -3.978   0.355   1.015  0.00  0.00    +0.195 C 
ENDROOT
TORSDOF 0
