REMARK  Name = 9934
REMARK  2 active torsions:
REMARK  status: ('A' for Active; 'I' for Inactive)
REMARK    1  A    between atoms: C_3  and  C_9
REMARK    2  A    between atoms: C_9  and  O_10
REMARK                            x       y       z     vdW  Elec       q    Type
REMARK                         _______ _______ _______ _____ _____    ______ ____
ROOT
ATOM      1  S   UNK     1      -2.380  -0.820   0.240  0.00  0.00    -0.166 S 
ATOM      2  N   UNK     1      -0.633   1.163  -0.072  0.00  0.00    +0.399 N 
ATOM      3  C   UNK     1       0.054  -0.090  -0.418  0.00  0.00    +0.052 C 
ATOM      4  C   UNK     1      -0.620  -1.224   0.341  0.00  0.00    +0.045 C 
ATOM      5  C   UNK     1      -2.063   0.895  -0.249  0.00  0.00    -0.021 C 
ATOM      6  H   UNK     1      -0.333   1.916  -0.692  0.00  0.00    -0.082 HD
ATOM      7  H   UNK     1      -0.421   1.457   0.881  0.00  0.00    -0.082 HD
ENDROOT
BRANCH   3   9
ATOM      8  O   UNK     1       1.963   1.058   0.509  0.00  0.00    -0.253 OA
ATOM      9  C   UNK     1       1.486   0.066  -0.021  0.00  0.00    +0.294 C 
BRANCH   9  10
ATOM     10  O   UNK     1       2.192  -1.049  -0.330  0.00  0.00    -0.482 OA
ATOM     11  H   UNK     1       1.765  -1.777  -0.736  0.00  0.00    +0.295 HD
ENDBRANCH   9  10
ENDBRANCH   3   9
TORSDOF 2
