REMARK  Name = 16213540
REMARK  6 active torsions:
REMARK  status: ('A' for Active; 'I' for Inactive)
REMARK    1  A    between atoms: N_1  and  C_2
REMARK    2  A    between atoms: N_1  and  C_6
REMARK    3  A    between atoms: N_1  and  C_10
REMARK    4  A    between atoms: N_1  and  C_14
REMARK    5  A    between atoms: C_14  and  C_15
REMARK    6  A    between atoms: C_15  and  O_16
REMARK                            x       y       z     vdW  Elec       q    Type
REMARK                         _______ _______ _______ _____ _____    ______ ____
ROOT
ATOM      1  N   UNL     1      -0.881  -0.026   0.000  0.00  0.00    +0.379 N 
ATOM      2  C   UNL     1      -1.002   0.812  -1.265  0.00  0.00    -0.092 C 
ATOM      3  C   UNL     1      -1.966  -1.093   0.007  0.00  0.00    -0.092 C 
ATOM      4  C   UNL     1      -1.044   0.871   1.219  0.00  0.00    -0.092 C 
ENDROOT
BRANCH   1   5
ATOM      5  C   UNL     1       0.486  -0.693   0.039  0.00  0.00    -0.044 C 
BRANCH   5   6
ATOM      6  C   UNL     1       1.564   0.373   0.000  0.00  0.00    +0.115 C 
BRANCH   6   7
ATOM      7  O   UNL     1       2.844  -0.245   0.000  0.00  0.00    -0.384 OA
ATOM      8  H   UNL     1       3.532   0.438  -0.025  0.00  0.00    +0.210 HD
ENDBRANCH   6   7
ENDBRANCH   5   6
ENDBRANCH   1   5
TORSDOF 3
