REMARK  Name = 3033769
REMARK  6 active torsions:
REMARK  status: ('A' for Active; 'I' for Inactive)
REMARK    1  A    between atoms: N_2  and  C_17
REMARK    2  A    between atoms: C_3  and  C_7
REMARK    3  A    between atoms: C_8  and  O_13
REMARK    4  A    between atoms: C_9  and  O_15
REMARK    5  A    between atoms: C_17  and  C_19
REMARK    6  A    between atoms: N_18  and  C_24
REMARK                            x       y       z     vdW  Elec       q    Type
REMARK                         _______ _______ _______ _____ _____    ______ ____
ROOT
ATOM      1  O   UNL     1      -0.003  -0.991  -1.628  0.00  0.00    -0.270 OA
ATOM      2  N   UNL     1      -0.534  -0.803   0.623  0.00  0.00    -0.303 N 
ATOM      3  C   UNL     1       0.324  -0.737  -0.472  0.00  0.00    +0.252 C 
ATOM      4  H   UNL     1      -0.179  -0.580   1.513  0.00  0.00    +0.150 HD
ENDROOT
BRANCH   3   7
ATOM      5 CL   UNL     1       3.888   3.000   0.057  0.00  0.00    -0.079 Cl
ATOM      6 CL   UNL     1       5.164  -2.174   0.737  0.00  0.00    -0.079 Cl
ATOM      7  C   UNL     1       1.730  -0.353  -0.184  0.00  0.00    +0.122 C 
ATOM      8  C   UNL     1       2.078   0.984  -0.205  0.00  0.00    +0.156 C 
ATOM      9  C   UNL     1       2.652  -1.343   0.101  0.00  0.00    +0.151 C 
ATOM     10  C   UNL     1       3.397   1.346   0.068  0.00  0.00    +0.093 C 
ATOM     11  C   UNL     1       3.971  -0.981   0.374  0.00  0.00    +0.092 C 
ATOM     12  C   UNL     1       4.344   0.363   0.358  0.00  0.00    +0.029 C 
BRANCH   8  13
ATOM     13  O   UNL     1       1.146   1.941  -0.488  0.00  0.00    -0.470 OA
ATOM     14  C   UNL     1       0.986   2.301  -1.858  0.00  0.00    +0.253 C 
ENDBRANCH   8  13
BRANCH   9  15
ATOM     15  O   UNL     1       2.280  -2.656   0.117  0.00  0.00    -0.504 OA
ATOM     16  H   UNL     1       1.393  -2.894  -0.068  0.00  0.00    +0.292 HD
ENDBRANCH   9  15
ENDBRANCH   3   7
BRANCH   2  17
ATOM     17  C   UNL     1      -1.911  -1.182   0.508  0.00  0.00    +0.069 C 
BRANCH  17  19
ATOM     18  N   UNL     1      -4.231  -0.286   0.241  0.00  0.00    +0.389 N 
ATOM     19  C   UNL     1      -2.797   0.033   0.267  0.00  0.00    -0.038 C 
ATOM     20  C   UNL     1      -2.698   1.046   1.410  0.00  0.00    -0.021 C 
ATOM     21  C   UNL     1      -4.085   1.671   1.516  0.00  0.00    -0.025 C 
ATOM     22  C   UNL     1      -4.908   0.999   0.430  0.00  0.00    -0.077 C 
ATOM     23  H   UNL     1      -4.463  -0.962   0.969  0.00  0.00    -0.080 HD
BRANCH  18  24
ATOM     24  C   UNL     1      -4.656  -0.937  -0.993  0.00  0.00    -0.077 C 
ATOM     25  C   UNL     1      -6.140  -1.240  -0.978  0.00  0.00    -0.025 C 
ENDBRANCH  18  24
ENDBRANCH  17  19
ENDBRANCH   2  17
TORSDOF 6
