REMARK  Name = 16117309
REMARK  14 active torsions:
REMARK  status: ('A' for Active; 'I' for Inactive)
REMARK    1  A    between atoms: C_1  and  C_5
REMARK    2  A    between atoms: C_1  and  C_24
REMARK    3  A    between atoms: C_2  and  C_14
REMARK    4  A    between atoms: N_4  and  C_7
REMARK    5  A    between atoms: C_7  and  C_8
REMARK    6  A    between atoms: C_8  and  C_9
REMARK    7  A    between atoms: C_9  and  N_10
REMARK    8  A    between atoms: C_14  and  C_15
REMARK    9  A    between atoms: C_15  and  C_16
REMARK   10  A    between atoms: C_16  and  C_17
REMARK   11  A    between atoms: C_17  and  C_20
REMARK   12  A    between atoms: N_19  and  O_22
REMARK   13  A    between atoms: C_24  and  O_25
REMARK   14  A    between atoms: O_25  and  C_26
REMARK                            x       y       z     vdW  Elec       q    Type
REMARK                         _______ _______ _______ _____ _____    ______ ____
ROOT
ATOM      1  C   UNL     1       0.906  -1.568   2.020  0.00  0.00    +0.070 C 
ATOM      2  C   UNL     1       0.028  -2.575   1.858  0.00  0.00    -0.022 C 
ENDROOT
BRANCH   1   5
ATOM      3  O   UNL     1       3.200  -1.683   2.604  0.00  0.00    -0.270 OA
ATOM      4  N   UNL     1       2.589  -2.278   0.440  0.00  0.00    -0.301 N 
ATOM      5  C   UNL     1       2.347  -1.864   1.738  0.00  0.00    +0.245 C 
ATOM      6  H   UNL     1       1.824  -2.390  -0.170  0.00  0.00    +0.150 HD
BRANCH   4   7
ATOM      7  C   UNL     1       3.917  -2.551  -0.058  0.00  0.00    +0.088 C 
BRANCH   7   8
ATOM      8  C   UNL     1       4.580  -1.316  -0.665  0.00  0.00    -0.002 C 
BRANCH   8   9
ATOM      9  C   UNL     1       3.842  -0.730  -1.872  0.00  0.00    -0.076 C 
BRANCH   9  10
ATOM     10  N   UNL     1       4.527   0.436  -2.416  0.00  0.00    +0.384 N 
ATOM     11  C   UNL     1       3.614   1.235  -3.236  0.00  0.00    -0.101 C 
ATOM     12  C   UNL     1       5.692   0.029  -3.204  0.00  0.00    -0.101 C 
ATOM     13  H   UNL     1       4.848   1.010  -1.636  0.00  0.00    -0.080 HD
ENDBRANCH   9  10
ENDBRANCH   8   9
ENDBRANCH   7   8
ENDBRANCH   4   7
ENDBRANCH   1   5
BRANCH   2  14
ATOM     14  C   UNL     1      -1.454  -2.541   2.104  0.00  0.00    +0.026 C 
BRANCH  14  15
ATOM     15  C   UNL     1      -2.267  -2.869   0.847  0.00  0.00    +0.005 C 
BRANCH  15  16
ATOM     16  C   UNL     1      -1.992  -1.899  -0.310  0.00  0.00    +0.010 C 
BRANCH  16  17
ATOM     17  C   UNL     1      -2.810  -2.238  -1.556  0.00  0.00    +0.087 C 
BRANCH  17  20
ATOM     18  O   UNL     1      -4.970  -3.169  -0.982  0.00  0.00    -0.273 OA
ATOM     19  N   UNL     1      -4.825  -0.944  -1.583  0.00  0.00    -0.197 N 
ATOM     20  C   UNL     1      -4.311  -2.193  -1.331  0.00  0.00    +0.244 C 
ATOM     21  H   UNL     1      -4.255  -0.191  -1.861  0.00  0.00    +0.182 HD
BRANCH  19  22
ATOM     22  O   UNL     1      -6.210  -0.810  -1.421  0.00  0.00    -0.295 OA
ATOM     23  H   UNL     1      -6.472   0.102  -1.621  0.00  0.00    +0.241 HD
ENDBRANCH  19  22
ENDBRANCH  17  20
ENDBRANCH  16  17
ENDBRANCH  15  16
ENDBRANCH  14  15
ENDBRANCH   2  14
BRANCH   1  24
ATOM     24  C   UNL     1       0.613  -0.183   2.513  0.00  0.00    +0.236 C 
BRANCH  24  25
ATOM     25  O   UNL     1       0.991   0.756   1.513  0.00  0.00    -0.470 OA
BRANCH  25  26
ATOM     26  C   UNL     1       0.273   1.921   1.458  0.00  0.00    +0.139 C 
ATOM     27  C   UNL     1      -0.437   2.288   0.304  0.00  0.00    +0.034 C 
ATOM     28  C   UNL     1      -1.164   3.503   0.296  0.00  0.00    +0.003 C 
ATOM     29  C   UNL     1       0.267   2.739   2.588  0.00  0.00    +0.037 C 
ATOM     30  C   UNL     1      -0.443   1.477  -0.843  0.00  0.00    +0.003 C 
ATOM     31  C   UNL     1      -1.159   4.314   1.442  0.00  0.00    +0.000 C 
ATOM     32  C   UNL     1      -0.447   3.933   2.580  0.00  0.00    +0.003 C 
ATOM     33  C   UNL     1      -1.874   3.870  -0.859  0.00  0.00    +0.000 C 
ATOM     34  C   UNL     1      -1.154   1.858  -1.981  0.00  0.00    +0.000 C 
ATOM     35  C   UNL     1      -1.868   3.052  -1.989  0.00  0.00    +0.000 C 
ENDBRANCH  25  26
ENDBRANCH  24  25
ENDBRANCH   1  24
TORSDOF 14
