REMARK  Name = 65057
REMARK  2 active torsions:
REMARK  status: ('A' for Active; 'I' for Inactive)
REMARK    1  A    between atoms: C_2  and  C_5
REMARK    2  A    between atoms: C_3  and  C_11
REMARK                            x       y       z     vdW  Elec       q    Type
REMARK                         _______ _______ _______ _____ _____    ______ ____
ROOT
ATOM      1  O   UNL     1      -0.028  -3.056   0.000  0.00  0.00    -0.287 OA
ATOM      2  C   UNL     1      -0.638  -0.658   0.000  0.00  0.00    +0.042 C 
ATOM      3  C   UNL     1       0.643  -0.644   0.000  0.00  0.00    +0.042 C 
ATOM      4  C   UNL     1      -0.024  -1.888   0.000  0.00  0.00    +0.196 C 
ENDROOT
BRANCH   2   5
ATOM      5  C   UNL     1      -1.962  -0.054   0.000  0.00  0.00    +0.003 C 
ATOM      6  C   UNL     1      -2.094   1.335   0.000  0.00  0.00    +0.000 C 
ATOM      7  C   UNL     1      -3.098  -0.863   0.000  0.00  0.00    +0.000 C 
ATOM      8  C   UNL     1      -3.363   1.915   0.000  0.00  0.00    +0.000 C 
ATOM      9  C   UNL     1      -4.367  -0.283   0.000  0.00  0.00    +0.000 C 
ATOM     10  C   UNL     1      -4.499   1.105   0.000  0.00  0.00    +0.000 C 
ENDBRANCH   2   5
BRANCH   3  11
ATOM     11  C   UNL     1       1.929  -0.070   0.000  0.00  0.00    +0.003 C 
ATOM     12  C   UNL     1       2.116   1.337   0.000  0.00  0.00    +0.000 C 
ATOM     13  C   UNL     1       3.101  -0.869   0.000  0.00  0.00    +0.000 C 
ATOM     14  C   UNL     1       3.389   1.906   0.000  0.00  0.00    +0.000 C 
ATOM     15  C   UNL     1       4.375  -0.300   0.000  0.00  0.00    +0.000 C 
ATOM     16  C   UNL     1       4.519   1.087   0.000  0.00  0.00    +0.000 C 
ENDBRANCH   3  11
TORSDOF 2
