REMARK  Name = 10452732
REMARK  9 active torsions:
REMARK  status: ('A' for Active; 'I' for Inactive)
REMARK    1  A    between atoms: C_1  and  C_21
REMARK    2  A    between atoms: C_4  and  O_7
REMARK    3  A    between atoms: C_6  and  O_9
REMARK    4  A    between atoms: O_9  and  C_12
REMARK    5  A    between atoms: C_15  and  C_18
REMARK    6  A    between atoms: C_21  and  N_22
REMARK    7  A    between atoms: N_22  and  C_25
REMARK    8  A    between atoms: C_25  and  C_26
REMARK    9  A    between atoms: C_26  and  C_28
REMARK                            x       y       z     vdW  Elec       q    Type
REMARK                         _______ _______ _______ _____ _____    ______ ____
ROOT
ATOM      1  C   UNL     1       0.642  -1.933   0.458  0.00  0.00    -0.041 C 
ATOM      2  C   UNL     1      -0.106  -2.146  -0.700  0.00  0.00    +0.034 C 
ATOM      3  C   UNL     1      -0.003  -1.693   1.671  0.00  0.00    -0.003 C 
ATOM      4  C   UNL     1      -1.500  -2.117  -0.645  0.00  0.00    +0.173 C 
ATOM      5  C   UNL     1      -1.396  -1.664   1.726  0.00  0.00    +0.040 C 
ATOM      6  C   UNL     1      -2.145  -1.876   0.568  0.00  0.00    +0.181 C 
ENDROOT
BRANCH   4   7
ATOM      7  O   UNL     1      -2.219  -2.326  -1.782  0.00  0.00    -0.468 OA
ATOM      8  C   UNL     1      -1.483  -2.565  -2.980  0.00  0.00    +0.253 C 
ENDBRANCH   4   7
BRANCH   6   9
ATOM      9  O   UNL     1      -3.505  -1.846   0.635  0.00  0.00    -0.435 OA
BRANCH   9  12
ATOM     10  N   UNL     1      -3.354   0.445   0.189  0.00  0.00    -0.233 NA
ATOM     11  N   UNL     1      -6.150   0.633   0.304  0.00  0.00    -0.258 NA
ATOM     12  C   UNL     1      -4.131  -0.628   0.436  0.00  0.00    +0.227 C 
ATOM     13  C   UNL     1      -5.505  -0.536   0.492  0.00  0.00    +0.210 C 
ATOM     14  C   UNL     1      -3.999   1.614   0.002  0.00  0.00    +0.178 C 
ATOM     15  C   UNL     1      -5.372   1.706   0.058  0.00  0.00    +0.132 C 
BRANCH  15  18
ATOM     16  O   UNL     1      -5.427   4.016  -0.397  0.00  0.00    -0.269 OA
ATOM     17  N   UNL     1      -7.446   2.978  -0.073  0.00  0.00    -0.324 N 
ATOM     18  C   UNL     1      -6.054   2.969  -0.146  0.00  0.00    +0.258 C 
ATOM     19  H   UNL     1      -7.940   3.819  -0.206  0.00  0.00    +0.145 HD
ATOM     20  H   UNL     1      -7.934   2.144   0.113  0.00  0.00    +0.145 HD
ENDBRANCH  15  18
ENDBRANCH   9  12
ENDBRANCH   6   9
BRANCH   1  21
ATOM     21  C   UNL     1       2.146  -1.965   0.399  0.00  0.00    -0.054 C 
BRANCH  21  22
ATOM     22  N   UNL     1       2.706  -0.649   0.124  0.00  0.00    +0.386 N 
ATOM     23  H   UNL     1       2.356  -0.319  -0.776  0.00  0.00    -0.084 HD
ATOM     24  H   UNL     1       2.426  -0.013   0.870  0.00  0.00    -0.084 HD
BRANCH  22  25
ATOM     25  C   UNL     1       4.162  -0.702   0.079  0.00  0.00    -0.081 C 
BRANCH  25  26
ATOM     26  C   UNL     1       4.728   0.677  -0.245  0.00  0.00    -0.023 C 
BRANCH  26  28
ATOM     27  O   UNL     1       8.786   1.893   0.264  0.00  0.00    -0.354 OA
ATOM     28  C   UNL     1       6.252   0.644  -0.317  0.00  0.00    +0.003 C 
ATOM     29  C   UNL     1       6.793   1.830  -1.124  0.00  0.00    +0.032 C 
ATOM     30  C   UNL     1       6.872   0.642   1.085  0.00  0.00    +0.032 C 
ATOM     31  C   UNL     1       8.316   1.859  -1.083  0.00  0.00    +0.142 C 
ATOM     32  C   UNL     1       8.391   0.737   1.001  0.00  0.00    +0.142 C 
ENDBRANCH  26  28
ENDBRANCH  25  26
ENDBRANCH  22  25
ENDBRANCH  21  22
ENDBRANCH   1  21
TORSDOF 9
