REMARK  Name = 71236992
REMARK  9 active torsions:
REMARK  status: ('A' for Active; 'I' for Inactive)
REMARK    1  A    between atoms: N_2  and  C_33
REMARK    2  A    between atoms: C_4  and  N_18
REMARK    3  A    between atoms: C_19  and  C_21
REMARK    4  A    between atoms: C_21  and  N_24
REMARK    5  A    between atoms: C_25  and  C_27
REMARK    6  A    between atoms: C_27  and  C_28
REMARK    7  A    between atoms: C_28  and  C_32
REMARK    8  A    between atoms: C_33  and  C_34
REMARK    9  A    between atoms: C_34  and  O_35
REMARK                            x       y       z     vdW  Elec       q    Type
REMARK                         _______ _______ _______ _____ _____    ______ ____
ROOT
ATOM      1  O   UNL     1      -2.356  -1.886  -1.903  0.00  0.00    -0.272 OA
ATOM      2  N   UNL     1      -3.810  -0.737  -0.505  0.00  0.00    -0.240 N 
ATOM      3  N   UNL     1      -5.192   0.071   1.245  0.00  0.00    -0.229 NA
ATOM      4  C   UNL     1      -1.356  -0.424  -0.285  0.00  0.00    +0.172 C 
ATOM      5  C   UNL     1      -1.250   1.002  -0.757  0.00  0.00    +0.004 C 
ATOM      6  C   UNL     1      -2.262   1.900  -0.358  0.00  0.00    +0.001 C 
ATOM      7  C   UNL     1      -2.538  -1.083  -0.983  0.00  0.00    +0.253 C 
ATOM      8  C   UNL     1      -3.352   1.490   0.562  0.00  0.00    +0.032 C 
ATOM      9  C   UNL     1      -4.102   0.300   0.454  0.00  0.00    +0.137 C 
ATOM     10  C   UNL     1      -0.225   1.440  -1.616  0.00  0.00    -0.002 C 
ATOM     11  C   UNL     1      -2.210   3.220  -0.856  0.00  0.00    -0.000 C 
ATOM     12  C   UNL     1      -3.724   2.375   1.599  0.00  0.00    +0.004 C 
ATOM     13  C   UNL     1      -0.191   2.753  -2.080  0.00  0.00    -0.000 C 
ATOM     14  C   UNL     1      -1.186   3.643  -1.704  0.00  0.00    -0.000 C 
ATOM     15  C   UNL     1      -4.802   2.116   2.433  0.00  0.00    +0.021 C 
ATOM     16  C   UNL     1      -5.510   0.962   2.205  0.00  0.00    +0.100 C 
ENDROOT
BRANCH   4  18
ATOM     17  O   UNL     1       0.895  -0.767   1.471  0.00  0.00    -0.273 OA
ATOM     18  N   UNL     1      -0.190  -1.238  -0.525  0.00  0.00    -0.294 N 
ATOM     19  C   UNL     1       0.853  -1.343   0.386  0.00  0.00    +0.241 C 
ATOM     20  H   UNL     1      -0.130  -1.740  -1.370  0.00  0.00    +0.150 HD
BRANCH  19  21
ATOM     21  C   UNL     1       1.937  -2.301  -0.089  0.00  0.00    +0.149 C 
ATOM     22  C   UNL     1       1.653  -3.719   0.381  0.00  0.00    +0.031 C 
BRANCH  21  24
ATOM     23  O   UNL     1       3.695  -0.396  -1.351  0.00  0.00    -0.275 OA
ATOM     24  N   UNL     1       3.200  -1.827   0.411  0.00  0.00    -0.298 N 
ATOM     25  C   UNL     1       3.983  -0.902  -0.270  0.00  0.00    +0.223 C 
ATOM     26  H   UNL     1       3.524  -2.172   1.274  0.00  0.00    +0.150 HD
BRANCH  25  27
ATOM     27  C   UNL     1       5.261  -0.583   0.484  0.00  0.00    +0.094 C 
BRANCH  27  28
ATOM     28  C   UNL     1       6.134   0.431  -0.250  0.00  0.00    +0.113 C 
BRANCH  28  32
ATOM     29  F   UNL     1       8.130   1.694  -0.111  0.00  0.00    -0.170 F 
ATOM     30  F   UNL     1       7.089   1.244   1.756  0.00  0.00    -0.170 F 
ATOM     31  F   UNL     1       8.153  -0.334   0.691  0.00  0.00    -0.170 F 
ATOM     32  C   UNL     1       7.386   0.767   0.529  0.00  0.00    +0.398 C 
ENDBRANCH  28  32
ENDBRANCH  27  28
ENDBRANCH  25  27
ENDBRANCH  21  24
ENDBRANCH  19  21
ENDBRANCH   4  18
BRANCH   2  33
ATOM     33  C   UNL     1      -4.952  -1.554  -0.923  0.00  0.00    +0.131 C 
BRANCH  33  34
ATOM     34  C   UNL     1      -5.156  -2.742   0.000  0.00  0.00    +0.159 C 
BRANCH  34  35
ATOM     35  O   UNL     1      -4.004  -3.575  -0.040  0.00  0.00    -0.380 OA
ATOM     36  H   UNL     1      -4.134  -4.334   0.550  0.00  0.00    +0.211 HD
ENDBRANCH  34  35
ENDBRANCH  33  34
ENDBRANCH   2  33
TORSDOF 9
