REMARK  Name = 23009
REMARK  4 active torsions:
REMARK  status: ('A' for Active; 'I' for Inactive)
REMARK    1  A    between atoms: C_1  and  N_2
REMARK    2  A    between atoms: C_1  and  C_10
REMARK    3  A    between atoms: C_4  and  N_9
REMARK    4  A    between atoms: C_10  and  N_12
REMARK                            x       y       z     vdW  Elec       q    Type
REMARK                         _______ _______ _______ _____ _____    ______ ____
ROOT
ATOM      1  C   UNL     1      -0.315   0.575   0.776  0.00  0.00    +0.076 C 
ENDROOT
BRANCH   1   2
ATOM      2  N   UNL     1      -1.714   0.728   0.386  0.00  0.00    -0.253 N 
ATOM      3  N   UNL     1      -3.640   1.731  -0.001  0.00  0.00    -0.223 NA
ATOM      4  C   UNL     1      -2.547  -0.254  -0.044  0.00  0.00    +0.218 C 
ATOM      5  C   UNL     1      -2.400   1.900   0.400  0.00  0.00    +0.169 C 
ATOM      6  C   UNL     1      -3.739   0.391  -0.279  0.00  0.00    +0.140 C 
BRANCH   4   9
ATOM      7  O   UNL     1      -3.027  -2.438  -0.590  0.00  0.00    -0.125 OA
ATOM      8  O   UNL     1      -0.998  -1.950   0.102  0.00  0.00    -0.125 OA
ATOM      9  N   UNL     1      -2.178  -1.596  -0.182  0.00  0.00    +0.074 N 
ENDBRANCH   4   9
ENDBRANCH   1   2
BRANCH   1  10
ATOM     10  C   UNL     1       0.630   0.763  -0.407  0.00  0.00    -0.055 C 
BRANCH  10  12
ATOM     11  O   UNL     1       4.596  -0.573  -0.090  0.00  0.00    -0.358 OA
ATOM     12  N   UNL     1       2.018   0.628   0.030  0.00  0.00    +0.391 N 
ATOM     13  C   UNL     1       2.266  -0.716   0.571  0.00  0.00    -0.045 C 
ATOM     14  C   UNL     1       2.943   0.904  -1.078  0.00  0.00    -0.045 C 
ATOM     15  C   UNL     1       3.722  -0.836   1.009  0.00  0.00    +0.119 C 
ATOM     16  C   UNL     1       4.384   0.744  -0.602  0.00  0.00    +0.119 C 
ATOM     17  H   UNL     1       2.181   1.312   0.769  0.00  0.00    -0.079 HD
ENDBRANCH  10  12
ENDBRANCH   1  10
TORSDOF 4
