REMARK  Name = 64973
REMARK  3 active torsions:
REMARK  status: ('A' for Active; 'I' for Inactive)
REMARK    1  A    between atoms: N_3  and  C_13
REMARK    2  A    between atoms: C_14  and  C_17
REMARK    3  A    between atoms: C_17  and  O_18
REMARK                            x       y       z     vdW  Elec       q    Type
REMARK                         _______ _______ _______ _____ _____    ______ ____
ROOT
ATOM      1  F   UNL     1      -1.735   2.661  -0.320  0.00  0.00    -0.199 F 
ATOM      2  O   UNL     1      -1.535  -2.649   0.323  0.00  0.00    -0.193 OA
ATOM      3  N   UNL     1      -0.395  -0.674  -0.030  0.00  0.00    -0.174 N 
ATOM      4  N   UNL     1      -2.785  -0.756   0.202  0.00  0.00    -0.304 NA
ATOM      5  N   UNL     1      -4.056   1.192   0.077  0.00  0.00    -0.330 N 
ATOM      6  C   UNL     1      -0.451   0.691  -0.194  0.00  0.00    +0.113 C 
ATOM      7  C   UNL     1      -1.570  -1.426   0.173  0.00  0.00    +0.276 C 
ATOM      8  C   UNL     1      -1.613   1.332  -0.166  0.00  0.00    +0.200 C 
ATOM      9  C   UNL     1      -2.845   0.541   0.046  0.00  0.00    +0.220 C 
ATOM     10  H   UNL     1      -4.886   0.681   0.217  0.00  0.00    +0.145 HD
ATOM     11  H   UNL     1      -4.093   2.168  -0.041  0.00  0.00    +0.145 HD
ENDROOT
BRANCH   3  13
ATOM     12  O   UNL     1       1.730  -0.839   0.987  0.00  0.00    -0.329 OA
ATOM     13  C   UNL     1       0.896  -1.351  -0.066  0.00  0.00    +0.230 C 
ATOM     14  C   UNL     1       2.907  -0.250   0.392  0.00  0.00    +0.168 C 
ATOM     15  C   UNL     1       1.600  -1.052  -1.334  0.00  0.00    +0.023 C 
ATOM     16  C   UNL     1       2.746  -0.427  -1.076  0.00  0.00    +0.005 C 
BRANCH  14  17
ATOM     17  C   UNL     1       2.991   1.208   0.808  0.00  0.00    +0.171 C 
BRANCH  17  18
ATOM     18  O   UNL     1       4.115   1.800   0.178  0.00  0.00    -0.379 OA
ATOM     19  H   UNL     1       4.177   2.733   0.438  0.00  0.00    +0.211 HD
ENDBRANCH  17  18
ENDBRANCH  14  17
ENDBRANCH   3  13
TORSDOF 3
