REMARK  Name = 9908684
REMARK  6 active torsions:
REMARK  status: ('A' for Active; 'I' for Inactive)
REMARK    1  A    between atoms: C_5  and  C_17
REMARK    2  A    between atoms: C_6  and  O_21
REMARK    3  A    between atoms: C_9  and  C_11
REMARK    4  A    between atoms: O_21  and  C_22
REMARK    5  A    between atoms: C_22  and  C_26
REMARK    6  A    between atoms: N_23  and  C_28
REMARK                            x       y       z     vdW  Elec       q    Type
REMARK                         _______ _______ _______ _____ _____    ______ ____
ROOT
ATOM      1  N   UNL     1      -1.646   1.117  -0.066  0.00  0.00    -0.188 N 
ATOM      2  N   UNL     1      -0.551   0.332  -0.229  0.00  0.00    -0.125 NA
ATOM      3  N   UNL     1      -2.922   2.877   0.245  0.00  0.00    -0.127 NA
ATOM      4  N   UNL     1      -3.731   1.765   0.122  0.00  0.00    -0.127 NA
ATOM      5  C   UNL     1       0.712   2.475   0.019  0.00  0.00    +0.035 C 
ATOM      6  C   UNL     1       0.550   1.011  -0.183  0.00  0.00    +0.239 C 
ATOM      7  C   UNL     1      -0.434   3.160   0.171  0.00  0.00    +0.041 C 
ATOM      8  C   UNL     1      -1.672   2.480   0.131  0.00  0.00    +0.187 A 
ATOM      9  C   UNL     1      -2.951   0.723  -0.062  0.00  0.00    +0.189 A 
ENDROOT
BRANCH   9  11
ATOM     10  F   UNL     1      -3.292  -1.026   2.107  0.00  0.00    -0.204 F 
ATOM     11  C   UNL     1      -3.382  -0.643  -0.238  0.00  0.00    +0.065 C 
ATOM     12  C   UNL     1      -3.539  -1.477   0.868  0.00  0.00    +0.143 C 
ATOM     13  C   UNL     1      -3.643  -1.127  -1.520  0.00  0.00    +0.005 C 
ATOM     14  C   UNL     1      -3.956  -2.797   0.693  0.00  0.00    +0.030 C 
ATOM     15  C   UNL     1      -4.060  -2.447  -1.695  0.00  0.00    +0.000 C 
ATOM     16  C   UNL     1      -4.217  -3.281  -0.589  0.00  0.00    +0.002 C 
ENDBRANCH   9  11
BRANCH   5  17
ATOM     17  C   UNL     1       2.068   3.101   0.046  0.00  0.00    +0.024 C 
ATOM     18  C   UNL     1       1.930   4.617   0.272  0.00  0.00    +0.005 C 
ATOM     19  C   UNL     1       2.790   2.851  -1.290  0.00  0.00    +0.005 C 
ATOM     20  C   UNL     1       2.906   2.494   1.186  0.00  0.00    +0.005 C 
ENDBRANCH   5  17
BRANCH   6  21
ATOM     21  O   UNL     1       1.739   0.388  -0.326  0.00  0.00    -0.451 OA
BRANCH  21  22
ATOM     22  C   UNL     1       1.584  -1.015  -0.520  0.00  0.00    +0.269 C 
BRANCH  22  26
ATOM     23  N   UNL     1       3.651  -2.035   0.429  0.00  0.00    -0.194 N 
ATOM     24  N   UNL     1       3.637  -1.749  -1.738  0.00  0.00    -0.207 NA
ATOM     25  N   UNL     1       4.849  -2.505   0.049  0.00  0.00    -0.154 NA
ATOM     26  C   UNL     1       2.958  -1.596  -0.641  0.00  0.00    +0.174 C 
ATOM     27  C   UNL     1       4.792  -2.309  -1.270  0.00  0.00    +0.218 C 
BRANCH  23  28
ATOM     28  C   UNL     1       3.269  -2.049   1.819  0.00  0.00    +0.118 C 
ATOM     29  C   UNL     1       2.561  -3.335   2.208  0.00  0.00    +0.025 C 
ENDBRANCH  23  28
ENDBRANCH  22  26
ENDBRANCH  21  22
ENDBRANCH   6  21
TORSDOF 6
