REMARK  Name = 72390
REMARK  2 active torsions:
REMARK  status: ('A' for Active; 'I' for Inactive)
REMARK    1  A    between atoms: C_4  and  C_9
REMARK    2  A    between atoms: C_9  and  O_10
REMARK                            x       y       z     vdW  Elec       q    Type
REMARK                         _______ _______ _______ _____ _____    ______ ____
ROOT
ATOM      1  S   UNK     1       1.390  -1.144   0.905  0.00  0.00    -0.055 S 
ATOM      2  O   UNK     1       2.672   0.952  -0.052  0.00  0.00    -0.263 OA
ATOM      3  N   UNK     1       0.558   0.470  -0.908  0.00  0.00    -0.287 N 
ATOM      4  C   UNK     1      -0.569  -0.409  -0.715  0.00  0.00    +0.183 C 
ATOM      5  C   UNK     1      -0.077  -1.673  -0.035  0.00  0.00    +0.098 C 
ATOM      6  C   UNK     1       1.655   0.277  -0.099  0.00  0.00    +0.274 C 
ATOM      7  H   UNK     1       0.543   1.179  -1.591  0.00  0.00    +0.151 HD
ENDROOT
BRANCH   4   9
ATOM      8  O   UNK     1      -1.256   1.169   0.982  0.00  0.00    -0.248 OA
ATOM      9  C   UNK     1      -1.551   0.351   0.122  0.00  0.00    +0.333 C 
BRANCH   9  10
ATOM     10  O   UNK     1      -2.822   0.008  -0.201  0.00  0.00    -0.479 OA
ATOM     11  H   UNK     1      -2.980  -0.628  -0.871  0.00  0.00    +0.295 HD
ENDBRANCH   9  10
ENDBRANCH   4   9
TORSDOF 2
