REMARK  Name = 10950142
REMARK  8 active torsions:
REMARK  status: ('A' for Active; 'I' for Inactive)
REMARK    1  A    between atoms: C_6  and  O_24
REMARK    2  A    between atoms: C_6  and  C_35
REMARK    3  A    between atoms: C_17  and  C_27
REMARK    4  A    between atoms: N_26  and  C_27
REMARK    5  A    between atoms: N_26  and  O_28
REMARK    6  A    between atoms: O_28  and  C_29
REMARK    7  A    between atoms: C_29  and  C_30
REMARK    8  A    between atoms: C_30  and  N_31
REMARK                            x       y       z     vdW  Elec       q    Type
REMARK                         _______ _______ _______ _____ _____    ______ ____
ROOT
ATOM      1  O   UNL     1       5.189   2.147   0.365  0.00  0.00    -0.442 OA
ATOM      2  O   UNL     1       1.150   3.139  -0.419  0.00  0.00    -0.270 OA
ATOM      3  O   UNL     1       6.539   0.604   1.279  0.00  0.00    -0.247 OA
ATOM      4  N   UNL     1       0.507   0.929  -0.194  0.00  0.00    -0.249 N 
ATOM      5  N   UNL     1      -0.473  -2.519   0.112  0.00  0.00    -0.405 NA
ATOM      6  C   UNL     1       4.608  -0.226   0.090  0.00  0.00    +0.196 C 
ATOM      7  C   UNL     1       3.170   0.207   0.014  0.00  0.00    +0.017 C 
ATOM      8  C   UNL     1       0.846  -0.405  -0.037  0.00  0.00    +0.084 C 
ATOM      9  C   UNL     1      -0.958   1.097  -0.284  0.00  0.00    +0.127 C 
ATOM     10  C   UNL     1       2.868   1.508  -0.150  0.00  0.00    +0.074 C 
ATOM     11  C   UNL     1      -1.445  -0.309  -0.163  0.00  0.00    +0.023 C 
ATOM     12  C   UNL     1      -0.381  -1.189  -0.019  0.00  0.00    +0.142 C 
ATOM     13  C   UNL     1       2.119  -0.797   0.063  0.00  0.00    +0.016 C 
ATOM     14  C   UNL     1       1.434   1.953  -0.267  0.00  0.00    +0.252 C 
ATOM     15  C   UNL     1       3.938   2.542  -0.239  0.00  0.00    +0.239 C 
ATOM     16  C   UNL     1       5.519   0.864   0.643  0.00  0.00    +0.346 C 
ATOM     17  C   UNL     1      -2.721  -0.822  -0.175  0.00  0.00    -0.014 C 
ATOM     18  C   UNL     1      -2.880  -2.211  -0.042  0.00  0.00    +0.094 C 
ATOM     19  C   UNL     1      -1.722  -3.028   0.101  0.00  0.00    +0.116 C 
ATOM     20  C   UNL     1      -4.157  -2.794  -0.046  0.00  0.00    -0.015 C 
ATOM     21  C   UNL     1      -1.905  -4.400   0.232  0.00  0.00    +0.028 C 
ATOM     22  C   UNL     1      -4.304  -4.172   0.088  0.00  0.00    -0.004 C 
ATOM     23  C   UNL     1      -3.178  -4.974   0.227  0.00  0.00    +0.002 C 
ENDROOT
BRANCH   6  24
ATOM     24  O   UNL     1       4.739  -1.306   1.018  0.00  0.00    -0.373 OA
ATOM     25  H   UNL     1       4.183  -2.047   0.732  0.00  0.00    +0.211 HD
ENDBRANCH   6  24
BRANCH   6  26
ATOM     26  C   UNL     1       5.134  -0.678  -1.274  0.00  0.00    +0.042 C 
ATOM     27  C   UNL     1       6.573  -1.143  -1.182  0.00  0.00    +0.003 C 
ENDBRANCH   6  26
BRANCH  17  28
ATOM     28  C   UNL     1      -3.842   0.098  -0.329  0.00  0.00    +0.144 C 
BRANCH  28  29
ATOM     29  N   UNL     1      -3.808   1.326   0.097  0.00  0.00    -0.079 NA
BRANCH  29  30
ATOM     30  O   UNL     1      -5.029   1.949  -0.197  0.00  0.00    -0.268 OA
BRANCH  30  31
ATOM     31  C   UNL     1      -4.968   3.286   0.276  0.00  0.00    +0.145 C 
BRANCH  31  32
ATOM     32  C   UNL     1      -6.286   3.975  -0.035  0.00  0.00    -0.051 C 
BRANCH  32  33
ATOM     33  N   UNL     1      -6.275   5.348   0.449  0.00  0.00    +0.382 N 
ATOM     34  H   UNL     1      -7.167   5.792   0.231  0.00  0.00    -0.089 HD
ATOM     35  H   UNL     1      -5.519   5.862  -0.003  0.00  0.00    -0.089 HD
ATOM     36  H   UNL     1      -6.132   5.351   1.459  0.00  0.00    -0.089 HD
ENDBRANCH  32  33
ENDBRANCH  31  32
ENDBRANCH  30  31
ENDBRANCH  29  30
ENDBRANCH  28  29
ENDBRANCH  17  28
TORSDOF 8
