REMARK  Name = 4996
REMARK  9 active torsions:
REMARK  status: ('A' for Active; 'I' for Inactive)
REMARK    1  A    between atoms: C_1  and  C_2
REMARK    2  A    between atoms: C_1  and  C_12
REMARK    3  A    between atoms: C_2  and  C_3
REMARK    4  A    between atoms: C_3  and  C_4
REMARK    5  A    between atoms: C_4  and  C_5
REMARK    6  A    between atoms: C_5  and  C_8
REMARK    7  A    between atoms: N_7  and  O_10
REMARK    8  A    between atoms: C_12  and  C_15
REMARK    9  A    between atoms: N_14  and  C_18
REMARK                            x       y       z     vdW  Elec       q    Type
REMARK                         _______ _______ _______ _____ _____    ______ ____
ROOT
ATOM      1  C   UNL     1       0.369   0.476  -0.147  0.00  0.00    +0.010 C 
ENDROOT
BRANCH   1   2
ATOM      2  C   UNL     1       1.701  -0.266  -0.297  0.00  0.00    +0.001 C 
BRANCH   2   3
ATOM      3  C   UNL     1       2.888   0.688  -0.137  0.00  0.00    +0.001 C 
BRANCH   3   4
ATOM      4  C   UNL     1       4.220  -0.058  -0.256  0.00  0.00    +0.010 C 
BRANCH   4   5
ATOM      5  C   UNL     1       5.423   0.865  -0.071  0.00  0.00    +0.087 C 
BRANCH   5   8
ATOM      6  O   UNL     1       7.323  -0.011  -1.247  0.00  0.00    -0.273 OA
ATOM      7  N   UNL     1       7.183  -0.351   1.036  0.00  0.00    -0.197 N 
ATOM      8  C   UNL     1       6.742   0.127  -0.173  0.00  0.00    +0.244 C 
ATOM      9  H   UNL     1       6.677  -0.211   1.868  0.00  0.00    +0.182 HD
BRANCH   7  10
ATOM     10  O   UNL     1       8.398  -1.049   1.012  0.00  0.00    -0.295 OA
ATOM     11  H   UNL     1       8.619  -1.342   1.910  0.00  0.00    +0.241 HD
ENDBRANCH   7  10
ENDBRANCH   5   8
ENDBRANCH   4   5
ENDBRANCH   3   4
ENDBRANCH   2   3
ENDBRANCH   1   2
BRANCH   1  12
ATOM     12  C   UNL     1      -0.834  -0.459  -0.267  0.00  0.00    +0.085 C 
BRANCH  12  15
ATOM     13  O   UNL     1      -2.259   1.424   0.219  0.00  0.00    -0.275 OA
ATOM     14  N   UNL     1      -3.219  -0.683  -0.174  0.00  0.00    -0.283 N 
ATOM     15  C   UNL     1      -2.175   0.230  -0.050  0.00  0.00    +0.226 C 
ATOM     16  H   UNL     1      -2.963  -1.611  -0.377  0.00  0.00    +0.155 HD
BRANCH  14  18
ATOM     17  N   UNL     1      -6.386   1.150   0.376  0.00  0.00    -0.241 NA
ATOM     18  C   UNL     1      -4.606  -0.430  -0.043  0.00  0.00    +0.070 C 
ATOM     19  C   UNL     1      -5.537  -1.452  -0.191  0.00  0.00    +0.018 C 
ATOM     20  C   UNL     1      -5.077   0.842   0.238  0.00  0.00    +0.113 C 
ATOM     21  C   UNL     1      -6.893  -1.174  -0.055  0.00  0.00    +0.022 C 
ATOM     22  C   UNL     1      -7.262   0.132   0.226  0.00  0.00    +0.099 C 
ENDBRANCH  14  18
ENDBRANCH  12  15
ENDBRANCH   1  12
TORSDOF 9
