REMARK  Name = 9568512
REMARK  6 active torsions:
REMARK  status: ('A' for Active; 'I' for Inactive)
REMARK    1  A    between atoms: C_1  and  N_8
REMARK    2  A    between atoms: C_2  and  C_13
REMARK    3  A    between atoms: N_12  and  C_13
REMARK    4  A    between atoms: N_12  and  N_14
REMARK    5  A    between atoms: N_14  and  C_17
REMARK    6  A    between atoms: C_17  and  N_18
REMARK                            x       y       z     vdW  Elec       q    Type
REMARK                         _______ _______ _______ _____ _____    ______ ____
ROOT
ATOM      1  C   UNL     1       2.306  -0.380   0.000  0.00  0.00    +0.050 C 
ATOM      2  C   UNL     1      -0.363   0.432   0.002  0.00  0.00    -0.003 C 
ATOM      3  C   UNL     1       1.991   0.978   0.000  0.00  0.00    +0.014 C 
ATOM      4  C   UNL     1       1.287  -1.333   0.001  0.00  0.00    +0.014 C 
ATOM      5  C   UNL     1       0.656   1.385   0.001  0.00  0.00    -0.002 C 
ATOM      6  C   UNL     1      -0.047  -0.927   0.002  0.00  0.00    -0.002 C 
ENDROOT
BRANCH   1   8
ATOM      7  O   UNL     1       4.844   1.240   0.001  0.00  0.00    -0.275 OA
ATOM      8  N   UNL     1       3.641  -0.787  -0.001  0.00  0.00    -0.284 N 
ATOM      9  C   UNL     1       4.790   0.015  -0.002  0.00  0.00    +0.227 C 
ATOM     10  C   UNL     1       6.050  -0.814  -0.003  0.00  0.00    +0.095 C 
ATOM     11  H   UNL     1       3.794  -1.760  -0.001  0.00  0.00    +0.155 HD
ENDBRANCH   1   8
BRANCH   2  12
ATOM     12  C   UNL     1      -1.754   0.855   0.002  0.00  0.00    +0.138 C 
BRANCH  12  13
ATOM     13  N   UNL     1      -2.746   0.009   0.002  0.00  0.00    -0.127 NA
BRANCH  13  14
ATOM     14  N   UNL     1      -3.975   0.578   0.000  0.00  0.00    -0.244 N 
ATOM     15  H   UNL     1      -4.056   1.560   0.000  0.00  0.00    +0.170 HD
BRANCH  14  17
ATOM     16  S   UNL     1      -6.634   0.492  -0.005  0.00  0.00    -0.018 S 
ATOM     17  C   UNL     1      -5.110  -0.194  -0.001  0.00  0.00    +0.143 C 
BRANCH  17  18
ATOM     18  N   UNL     1      -4.936  -1.552   0.001  0.00  0.00    -0.340 N 
ATOM     19  H   UNL     1      -5.719  -2.148   0.000  0.00  0.00    +0.144 HD
ATOM     20  H   UNL     1      -4.028  -1.931   0.002  0.00  0.00    +0.144 HD
ENDBRANCH  17  18
ENDBRANCH  14  17
ENDBRANCH  13  14
ENDBRANCH  12  13
ENDBRANCH   2  12
TORSDOF 6
