REMARK  Name = 50981
REMARK  5 active torsions:
REMARK  status: ('A' for Active; 'I' for Inactive)
REMARK    1  A    between atoms: C_1  and  O_2
REMARK    2  A    between atoms: C_1  and  C_4
REMARK    3  A    between atoms: C_1  and  C_12
REMARK    4  A    between atoms: C_4  and  N_5
REMARK    5  A    between atoms: C_12  and  N_15
REMARK                            x       y       z     vdW  Elec       q    Type
REMARK                         _______ _______ _______ _____ _____    ______ ____
ROOT
ATOM      1  C   UNL     1       0.006  -1.425   0.583  0.00  0.00    +0.110 C 
ENDROOT
BRANCH   1   2
ATOM      2  O   UNL     1      -0.692  -2.598   1.010  0.00  0.00    -0.385 OA
ATOM      3  H   UNL     1      -0.280  -2.943   1.818  0.00  0.00    +0.210 HD
ENDBRANCH   1   2
BRANCH   1   4
ATOM      4  C   UNL     1       1.474  -1.805   0.359  0.00  0.00    -0.046 C 
BRANCH   4   5
ATOM      5  N   UNL     1       2.265  -0.677  -0.133  0.00  0.00    +0.389 N 
ATOM      6  C   UNL     1       2.270   0.415   0.850  0.00  0.00    -0.077 C 
ATOM      7  C   UNL     1       3.633  -1.110  -0.454  0.00  0.00    -0.077 C 
ATOM      8  C   UNL     1       3.053   1.622   0.330  0.00  0.00    -0.023 C 
ATOM      9  C   UNL     1       4.460   0.047  -1.016  0.00  0.00    -0.023 C 
ATOM     10  C   UNL     1       4.475   1.234  -0.060  0.00  0.00    -0.004 C 
ATOM     11  H   UNL     1       1.838  -0.327  -0.990  0.00  0.00    -0.080 HD
ENDBRANCH   4   5
ENDBRANCH   1   4
BRANCH   1  12
ATOM     12  C   UNL     1      -0.667  -0.905  -0.693  0.00  0.00    +0.126 C 
BRANCH  12  15
ATOM     13  O   UNL     1      -1.290   2.004   1.319  0.00  0.00    -0.123 OA
ATOM     14  O   UNL     1      -1.476   2.597  -0.790  0.00  0.00    -0.123 OA
ATOM     15  N   UNL     1      -2.068  -0.541  -0.473  0.00  0.00    -0.249 N 
ATOM     16  N   UNL     1      -3.841   0.667   0.022  0.00  0.00    -0.207 NA
ATOM     17  N   UNL     1      -1.737   1.799   0.155  0.00  0.00    +0.091 N 
ATOM     18  C   UNL     1      -2.532   0.674  -0.092  0.00  0.00    +0.284 C 
ATOM     19  C   UNL     1      -3.120  -1.384  -0.616  0.00  0.00    +0.089 C 
ATOM     20  C   UNL     1      -4.214  -0.613  -0.303  0.00  0.00    +0.118 C 
ENDBRANCH  12  15
ENDBRANCH   1  12
TORSDOF 5
