REMARK  Name = 67313626
REMARK  7 active torsions:
REMARK  status: ('A' for Active; 'I' for Inactive)
REMARK    1  A    between atoms: C_1  and  C_13
REMARK    2  A    between atoms: C_2  and  C_7
REMARK    3  A    between atoms: C_7  and  N_9
REMARK    4  A    between atoms: C_13  and  O_14
REMARK    5  A    between atoms: C_13  and  C_16
REMARK    6  A    between atoms: C_16  and  N_17
REMARK    7  A    between atoms: N_17  and  C_20
REMARK                            x       y       z     vdW  Elec       q    Type
REMARK                         _______ _______ _______ _____ _____    ______ ____
ROOT
ATOM      1  C   UNL     1      -0.454  -0.798  -0.170  0.00  0.00    +0.002 C 
ATOM      2  C   UNL     1      -3.099   0.089  -0.213  0.00  0.00    -0.043 C 
ATOM      3  C   UNL     1      -1.239  -1.000  -1.305  0.00  0.00    -0.002 C 
ATOM      4  C   UNL     1      -0.992  -0.153   0.944  0.00  0.00    -0.002 C 
ATOM      5  C   UNL     1      -2.562  -0.557  -1.327  0.00  0.00    -0.007 C 
ATOM      6  C   UNL     1      -2.314   0.291   0.922  0.00  0.00    -0.007 C 
ENDROOT
BRANCH   2   7
ATOM      7  C   UNL     1      -4.513   0.563  -0.236  0.00  0.00    -0.042 C 
ATOM      8  C   UNL     1      -4.632   2.088  -0.063  0.00  0.00    -0.019 C 
BRANCH   7   9
ATOM      9  N   UNL     1      -5.342  -0.083   0.797  0.00  0.00    +0.384 N 
ATOM     10  H   UNL     1      -5.278  -1.096   0.701  0.00  0.00    -0.089 HD
ATOM     11  H   UNL     1      -6.313   0.208   0.685  0.00  0.00    -0.089 HD
ATOM     12  H   UNL     1      -5.009   0.192   1.722  0.00  0.00    -0.089 HD
ENDBRANCH   7   9
ENDBRANCH   2   7
BRANCH   1  13
ATOM     13  C   UNL     1       0.981  -1.276  -0.148  0.00  0.00    +0.112 C 
BRANCH  13  14
ATOM     14  O   UNL     1       1.102  -2.278   0.860  0.00  0.00    -0.382 OA
ATOM     15  H   UNL     1       2.017  -2.598   0.890  0.00  0.00    +0.211 HD
ENDBRANCH  13  14
BRANCH  13  16
ATOM     16  C   UNL     1       1.953  -0.123   0.129  0.00  0.00    -0.047 C 
BRANCH  16  17
ATOM     17  N   UNL     1       3.297  -0.464  -0.304  0.00  0.00    +0.388 N 
ATOM     18  H   UNL     1       3.612  -1.292   0.201  0.00  0.00    -0.084 HD
ATOM     19  H   UNL     1       3.283  -0.648  -1.308  0.00  0.00    -0.084 HD
BRANCH  17  20
ATOM     20  C   UNL     1       4.222   0.643  -0.040  0.00  0.00    -0.046 C 
ATOM     21  C   UNL     1       3.744   1.874  -0.817  0.00  0.00    -0.022 C 
ATOM     22  C   UNL     1       4.215   0.936   1.464  0.00  0.00    -0.022 C 
ATOM     23  C   UNL     1       5.632   0.248  -0.493  0.00  0.00    -0.022 C 
ENDBRANCH  17  20
ENDBRANCH  16  17
ENDBRANCH  13  16
ENDBRANCH   1  13
TORSDOF 7
