58185197
  -OEChem-10051722413D

 59 59  0     1  0  0  0  0  0999 V2000
   -4.2593   -1.3006   -2.2477 O   0  0  0  0  0  0  0  0  0  0  0  0
   -5.2952   -0.5267    0.2339 O   0  0  0  0  0  0  0  0  0  0  0  0
    2.2617   -0.8433    2.7808 O   0  0  0  0  0  0  0  0  0  0  0  0
    1.9392   -4.0804    0.4382 O   0  0  0  0  0  0  0  0  0  0  0  0
    0.1330   -4.1105    1.8132 O   0  0  0  0  0  0  0  0  0  0  0  0
   -3.7051   -1.8175   -1.0327 C   0  0  1  0  0  0  0  0  0  0  0  0
   -2.2563   -2.2265   -1.3294 C   0  0  0  0  0  0  0  0  0  0  0  0
    4.4210    0.7537    0.0653 C   0  0  0  0  0  0  0  0  0  0  0  0
    4.0191    0.0845    1.3867 C   0  0  0  0  0  0  0  0  0  0  0  0
   -3.8960   -0.7782    0.0893 C   0  0  1  0  0  0  0  0  0  0  0  0
   -1.5641   -2.9283   -0.1578 C   0  0  0  0  0  0  0  0  0  0  0  0
    4.1717   -0.0694   -1.2019 C   0  0  0  0  0  0  0  0  0  0  0  0
    2.5279   -0.2559    1.5100 C   0  0  2  0  0  0  0  0  0  0  0  0
    4.6345    0.6278   -2.4815 C   0  0  0  0  0  0  0  0  0  0  0  0
   -0.0920   -3.2276   -0.4471 C   0  0  0  0  0  0  0  0  0  0  0  0
   -3.1360    0.5063   -0.1413 C   0  0  0  0  0  0  0  0  0  0  0  0
    1.6903    0.9894    1.4041 C   0  0  0  0  0  0  0  0  0  0  0  0
   -1.5000    2.3022    0.4277 C   0  0  0  0  0  0  0  0  0  0  0  0
   -2.2156    1.0396    0.6786 C   0  0  0  0  0  0  0  0  0  0  0  0
   -0.1094    2.3551    0.3351 C   0  0  0  0  0  0  0  0  0  0  0  0
    4.4478   -0.2660   -3.6981 C   0  0  0  0  0  0  0  0  0  0  0  0
    0.7194    1.1634    0.4821 C   0  0  0  0  0  0  0  0  0  0  0  0
    0.6309   -3.8518    0.7264 C   0  0  0  0  0  0  0  0  0  0  0  0
   -2.2536    3.4668    0.2807 C   0  0  0  0  0  0  0  0  0  0  0  0
    0.5279    3.5725    0.0955 C   0  0  0  0  0  0  0  0  0  0  0  0
   -1.6164    4.6844    0.0413 C   0  0  0  0  0  0  0  0  0  0  0  0
   -0.2256    4.7371   -0.0514 C   0  0  0  0  0  0  0  0  0  0  0  0
   -4.2896   -2.7141   -0.7918 H   0  0  0  0  0  0  0  0  0  0  0  0
   -2.2484   -2.8925   -2.2024 H   0  0  0  0  0  0  0  0  0  0  0  0
   -1.6768   -1.3474   -1.6385 H   0  0  0  0  0  0  0  0  0  0  0  0
    3.9178    1.7235   -0.0288 H   0  0  0  0  0  0  0  0  0  0  0  0
    5.4937    0.9798    0.1228 H   0  0  0  0  0  0  0  0  0  0  0  0
    4.6009   -0.8371    1.5184 H   0  0  0  0  0  0  0  0  0  0  0  0
    4.3188    0.7327    2.2213 H   0  0  0  0  0  0  0  0  0  0  0  0
   -3.5740   -1.2260    1.0364 H   0  0  0  0  0  0  0  0  0  0  0  0
   -2.0925   -3.8600    0.0787 H   0  0  0  0  0  0  0  0  0  0  0  0
   -1.6175   -2.3024    0.7400 H   0  0  0  0  0  0  0  0  0  0  0  0
    3.1029   -0.2938   -1.2936 H   0  0  0  0  0  0  0  0  0  0  0  0
    4.6897   -1.0316   -1.1042 H   0  0  0  0  0  0  0  0  0  0  0  0
    2.2517   -0.9939    0.7498 H   0  0  0  0  0  0  0  0  0  0  0  0
    4.0711    1.5575   -2.6214 H   0  0  0  0  0  0  0  0  0  0  0  0
    5.6930    0.8987   -2.3951 H   0  0  0  0  0  0  0  0  0  0  0  0
    0.4275   -2.2969   -0.7016 H   0  0  0  0  0  0  0  0  0  0  0  0
   -0.0185   -3.9163   -1.2960 H   0  0  0  0  0  0  0  0  0  0  0  0
   -3.3906    1.0411   -1.0553 H   0  0  0  0  0  0  0  0  0  0  0  0
    1.8924    1.7813    2.1227 H   0  0  0  0  0  0  0  0  0  0  0  0
   -1.9409    0.5168    1.5914 H   0  0  0  0  0  0  0  0  0  0  0  0
   -5.1829   -1.0567   -2.0650 H   0  0  0  0  0  0  0  0  0  0  0  0
    3.3948   -0.5349   -3.8291 H   0  0  0  0  0  0  0  0  0  0  0  0
    4.7816    0.2515   -4.6029 H   0  0  0  0  0  0  0  0  0  0  0  0
    5.0289   -1.1886   -3.6006 H   0  0  0  0  0  0  0  0  0  0  0  0
    0.5072    0.3608   -0.2209 H   0  0  0  0  0  0  0  0  0  0  0  0
   -5.4044    0.1370    0.9364 H   0  0  0  0  0  0  0  0  0  0  0  0
    1.3225   -1.0964    2.7989 H   0  0  0  0  0  0  0  0  0  0  0  0
   -3.3385    3.4503    0.3541 H   0  0  0  0  0  0  0  0  0  0  0  0
    1.6106    3.6370    0.0141 H   0  0  0  0  0  0  0  0  0  0  0  0
   -2.2028    5.5914   -0.0722 H   0  0  0  0  0  0  0  0  0  0  0  0
    0.2703    5.6850   -0.2388 H   0  0  0  0  0  0  0  0  0  0  0  0
    2.4174   -4.4741    1.1988 H   0  0  0  0  0  0  0  0  0  0  0  0
  1  6  1  0  0  0  0
  1 48  1  0  0  0  0
  2 10  1  0  0  0  0
  2 53  1  0  0  0  0
  3 13  1  0  0  0  0
  3 54  1  0  0  0  0
  4 23  1  0  0  0  0
  4 59  1  0  0  0  0
  5 23  2  0  0  0  0
  6  7  1  0  0  0  0
  6 10  1  0  0  0  0
  6 28  1  0  0  0  0
  7 11  1  0  0  0  0
  7 29  1  0  0  0  0
  7 30  1  0  0  0  0
  8  9  1  0  0  0  0
  8 12  1  0  0  0  0
  8 31  1  0  0  0  0
  8 32  1  0  0  0  0
  9 13  1  0  0  0  0
  9 33  1  0  0  0  0
  9 34  1  0  0  0  0
 10 16  1  0  0  0  0
 10 35  1  0  0  0  0
 11 15  1  0  0  0  0
 11 36  1  0  0  0  0
 11 37  1  0  0  0  0
 12 14  1  0  0  0  0
 12 38  1  0  0  0  0
 12 39  1  0  0  0  0
 13 17  1  0  0  0  0
 13 40  1  0  0  0  0
 14 21  1  0  0  0  0
 14 41  1  0  0  0  0
 14 42  1  0  0  0  0
 15 23  1  0  0  0  0
 15 43  1  0  0  0  0
 15 44  1  0  0  0  0
 16 19  2  0  0  0  0
 16 45  1  0  0  0  0
 17 22  2  0  0  0  0
 17 46  1  0  0  0  0
 18 19  1  0  0  0  0
 18 20  1  0  0  0  0
 18 24  2  0  0  0  0
 19 47  1  0  0  0  0
 20 22  1  0  0  0  0
 20 25  2  0  0  0  0
 21 49  1  0  0  0  0
 21 50  1  0  0  0  0
 21 51  1  0  0  0  0
 22 52  1  0  0  0  0
 24 26  1  0  0  0  0
 24 55  1  0  0  0  0
 25 27  1  0  0  0  0
 25 56  1  0  0  0  0
 26 27  2  0  0  0  0
 26 57  1  0  0  0  0
 27 58  1  0  0  0  0
M  END
> <DATABASE_ID>
DB12133

> <DATABASE_NAME>
drugbank

> <ORIGINAL_SOURCE>
PUBCHEM

> <ORIGINAL_SOURCE_URL>
https://pubchem.ncbi.nlm.nih.gov/rest/pug/compound/inchikey/HEDVTGFTYROYFE-RREUNBNVSA-N/SDF?record_type=3d

> <SMILES>
CCCCC[C@@H](O)\C=C\C1=CC=CC=C1\C=C\[C@@H](O)[C@@H](O)CCCC(O)=O

> <INCHI_IDENTIFIER>
InChI=1S/C22H32O5/c1-2-3-4-10-19(23)15-13-17-8-5-6-9-18(17)14-16-21(25)20(24)11-7-12-22(26)27/h5-6,8-9,13-16,19-21,23-25H,2-4,7,10-12H2,1H3,(H,26,27)/b15-13+,16-14+/t19-,20+,21-/m1/s1

> <INCHI_KEY>
HEDVTGFTYROYFE-RREUNBNVSA-N

> <FORMULA>
C22H32O5

> <MOLECULAR_WEIGHT>
376.493

> <EXACT_MASS>
376.22497413

> <JCHEM_ACCEPTOR_COUNT>
5

> <JCHEM_ATOM_COUNT>
59

> <JCHEM_AVERAGE_POLARIZABILITY>
43.4441651097124

> <JCHEM_BIOAVAILABILITY>
1

> <JCHEM_DONOR_COUNT>
4

> <JCHEM_FORMAL_CHARGE>
0

> <JCHEM_GHOSE_FILTER>
1

> <JCHEM_IUPAC>
(5S,6R,7E)-5,6-dihydroxy-8-{2-[(1E,3R)-3-hydroxyoct-1-en-1-yl]phenyl}oct-7-enoic acid

> <ALOGPS_LOGP>
3.62

> <JCHEM_LOGP>
3.8088390853333314

> <ALOGPS_LOGS>
-4.16

> <JCHEM_MDDR_LIKE_RULE>
0

> <JCHEM_NUMBER_OF_RINGS>
1

> <JCHEM_PHYSIOLOGICAL_CHARGE>
-1

> <JCHEM_PKA>
13.62976959124574

> <JCHEM_PKA_STRONGEST_ACIDIC>
4.259502745734147

> <JCHEM_PKA_STRONGEST_BASIC>
-2.850887278378333

> <JCHEM_POLAR_SURFACE_AREA>
97.99000000000001

> <JCHEM_REFRACTIVITY>
108.84549999999997

> <JCHEM_ROTATABLE_BOND_COUNT>
13

> <JCHEM_RULE_OF_FIVE>
1

> <ALOGPS_SOLUBILITY>
2.59e-02 g/l

> <JCHEM_TRADITIONAL_IUPAC>
(5S,6R,7E)-5,6-dihydroxy-8-{2-[(1E,3R)-3-hydroxyoct-1-en-1-yl]phenyl}oct-7-enoic acid

> <JCHEM_VEBER_RULE>
0

> <DRUGBANK_ID>
DB12133

> <DRUG_GROUPS>
investigational

> <GENERIC_NAME>
BLXA4

$$$$
