REMARK  Name = 11844916
REMARK  7 active torsions:
REMARK  status: ('A' for Active; 'I' for Inactive)
REMARK    1  A    between atoms: N_2  and  C_16
REMARK    2  A    between atoms: C_5  and  O_8
REMARK    3  A    between atoms: O_8  and  C_9
REMARK    4  A    between atoms: C_9  and  C_10
REMARK    5  A    between atoms: C_10  and  C_12
REMARK    6  A    between atoms: C_16  and  C_17
REMARK    7  A    between atoms: C_20  and  N_24
REMARK                            x       y       z     vdW  Elec       q    Type
REMARK                         _______ _______ _______ _____ _____    ______ ____
ROOT
ATOM      1  O   UNL     1       1.063   2.665  -1.532  0.00  0.00    -0.269 OA
ATOM      2  N   UNL     1       1.133   1.537   0.517  0.00  0.00    -0.250 N 
ATOM      3  C   UNL     1       0.496   2.134  -0.579  0.00  0.00    +0.256 C 
ATOM      4  C   UNL     1       0.421   0.958   1.554  0.00  0.00    +0.071 C 
ATOM      5  C   UNL     1      -1.641   1.535   0.470  0.00  0.00    +0.144 C 
ATOM      6  C   UNL     1      -0.999   2.106  -0.556  0.00  0.00    +0.095 C 
ATOM      7  C   UNL     1      -0.916   0.939   1.564  0.00  0.00    +0.053 C 
ENDROOT
BRANCH   5   8
ATOM      8  O   UNL     1      -3.017   1.493   0.521  0.00  0.00    -0.475 OA
BRANCH   8   9
ATOM      9  C   UNL     1      -3.570   1.450  -0.780  0.00  0.00    +0.211 C 
BRANCH   9  10
ATOM     10  C   UNL     1      -4.889   0.684  -0.785  0.00  0.00    +0.080 C 
BRANCH  10  12
ATOM     11  S   UNL     1      -5.606  -1.298   0.996  0.00  0.00    -0.091 S 
ATOM     12  C   UNL     1      -4.714  -0.749  -0.339  0.00  0.00    +0.011 C 
ATOM     13  C   UNL     1      -3.904  -1.691  -0.888  0.00  0.00    +0.003 C 
ATOM     14  C   UNL     1      -4.012  -2.928  -0.189  0.00  0.00    +0.007 C 
ATOM     15  C   UNL     1      -4.903  -2.854   0.859  0.00  0.00    +0.035 C 
ENDBRANCH  10  12
ENDBRANCH   9  10
ENDBRANCH   8   9
ENDBRANCH   5   8
BRANCH   2  16
ATOM     16  C   UNL     1       2.589   1.509   0.598  0.00  0.00    +0.125 C 
BRANCH  16  17
ATOM     17  C   UNL     1       3.163   0.278  -0.043  0.00  0.00    -0.005 C 
ATOM     18  C   UNL     1       4.167  -0.450   0.587  0.00  0.00    -0.011 C 
ATOM     19  C   UNL     1       2.672  -0.119  -1.282  0.00  0.00    -0.003 C 
ATOM     20  C   UNL     1       4.686  -1.589  -0.030  0.00  0.00    +0.037 C 
ATOM     21  C   UNL     1       4.689  -0.012   1.919  0.00  0.00    +0.032 C 
ATOM     22  C   UNL     1       3.191  -1.258  -1.899  0.00  0.00    +0.001 C 
ATOM     23  C   UNL     1       4.197  -1.993  -1.273  0.00  0.00    +0.014 C 
BRANCH  20  24
ATOM     24  N   UNL     1       5.704  -2.348   0.589  0.00  0.00    -0.357 N 
ATOM     25  H   UNL     1       6.057  -2.074   1.466  0.00  0.00    +0.142 HD
ATOM     26  H   UNL     1       6.059  -3.150   0.143  0.00  0.00    +0.142 HD
ENDBRANCH  20  24
ENDBRANCH  16  17
ENDBRANCH   2  16
TORSDOF 7
