71605071
  -OEChem-10051722423D

 45 48  0     1  0  0  0  0  0999 V2000
   -4.8864   -0.0375   -0.1641 O   0  0  0  0  0  0  0  0  0  0  0  0
   -5.1365    2.1798   -0.7553 O   0  0  0  0  0  0  0  0  0  0  0  0
   -7.7221    2.1355   -0.0336 O   0  0  0  0  0  0  0  0  0  0  0  0
    4.8668    0.1827   -0.0114 N   0  0  0  0  0  0  0  0  0  0  0  0
    0.7898   -1.9745   -0.1281 N   0  0  0  0  0  0  0  0  0  0  0  0
    2.9915   -2.1772   -0.4128 N   0  0  0  0  0  0  0  0  0  0  0  0
    2.8754    1.4027    0.5095 N   0  0  0  0  0  0  0  0  0  0  0  0
    0.6627    0.3731    0.4823 N   0  0  0  0  0  0  0  0  0  0  0  0
    0.9488    2.6310    1.0261 N   0  0  0  0  0  0  0  0  0  0  0  0
    5.7625    1.3219    0.1833 C   0  0  0  0  0  0  0  0  0  0  0  0
    6.0175    2.3210   -0.9105 C   0  0  0  0  0  0  0  0  0  0  0  0
    7.1078    1.3829   -0.4846 C   0  0  0  0  0  0  0  0  0  0  0  0
   -0.6696   -2.3637   -0.0709 C   0  0  2  0  0  0  0  0  0  0  0  0
   -1.5587   -1.5360   -1.0190 C   0  0  0  0  0  0  0  0  0  0  0  0
   -2.9040   -1.3650   -0.2941 C   0  0  1  0  0  0  0  0  0  0  0  0
   -1.3214   -2.1407    1.2621 C   0  0  0  0  0  0  0  0  0  0  0  0
   -2.5347   -1.5938    1.1387 C   0  0  0  0  0  0  0  0  0  0  0  0
    3.4718    0.2404    0.1508 C   0  0  0  0  0  0  0  0  0  0  0  0
    1.3192   -0.7421    0.1292 C   0  0  0  0  0  0  0  0  0  0  0  0
    2.6852   -0.8889   -0.0529 C   0  0  0  0  0  0  0  0  0  0  0  0
   -3.5199    0.0052   -0.5376 C   0  0  0  0  0  0  0  0  0  0  0  0
    1.8330   -2.8021   -0.4488 C   0  0  0  0  0  0  0  0  0  0  0  0
    1.5278    1.3969    0.6510 C   0  0  0  0  0  0  0  0  0  0  0  0
   -5.5904    1.1286   -0.3238 C   0  0  0  0  0  0  0  0  0  0  0  0
   -7.0159    0.9196    0.1145 C   0  0  0  0  0  0  0  0  0  0  0  0
    5.7185    1.7018    1.1994 H   0  0  0  0  0  0  0  0  0  0  0  0
    7.3813    0.5872   -1.1665 H   0  0  0  0  0  0  0  0  0  0  0  0
    6.1081    3.3630   -0.6295 H   0  0  0  0  0  0  0  0  0  0  0  0
    5.5595    2.1542   -1.8776 H   0  0  0  0  0  0  0  0  0  0  0  0
    7.9344    1.7937    0.0819 H   0  0  0  0  0  0  0  0  0  0  0  0
   -0.7024   -3.4296   -0.3276 H   0  0  0  0  0  0  0  0  0  0  0  0
   -1.6942   -2.0553   -1.9753 H   0  0  0  0  0  0  0  0  0  0  0  0
   -1.1146   -0.5631   -1.2606 H   0  0  0  0  0  0  0  0  0  0  0  0
   -3.6042   -2.1531   -0.5998 H   0  0  0  0  0  0  0  0  0  0  0  0
    5.2460   -0.7214   -0.2740 H   0  0  0  0  0  0  0  0  0  0  0  0
   -0.8779   -2.4230    2.2065 H   0  0  0  0  0  0  0  0  0  0  0  0
   -3.1906   -1.3870    1.9726 H   0  0  0  0  0  0  0  0  0  0  0  0
   -3.4602    0.2507   -1.6051 H   0  0  0  0  0  0  0  0  0  0  0  0
   -2.9984    0.7842    0.0328 H   0  0  0  0  0  0  0  0  0  0  0  0
    1.6899   -3.8445   -0.6985 H   0  0  0  0  0  0  0  0  0  0  0  0
   -0.0526    2.6927    1.1475 H   0  0  0  0  0  0  0  0  0  0  0  0
    1.5434    3.4358    1.1675 H   0  0  0  0  0  0  0  0  0  0  0  0
   -7.0347    0.6253    1.1672 H   0  0  0  0  0  0  0  0  0  0  0  0
   -7.4833    0.1583   -0.5156 H   0  0  0  0  0  0  0  0  0  0  0  0
   -8.6364    1.9731    0.2547 H   0  0  0  0  0  0  0  0  0  0  0  0
  1 21  1  0  0  0  0
  1 24  1  0  0  0  0
  2 24  2  0  0  0  0
  3 25  1  0  0  0  0
  3 45  1  0  0  0  0
  4 10  1  0  0  0  0
  4 18  1  0  0  0  0
  4 35  1  0  0  0  0
  5 13  1  0  0  0  0
  5 19  1  0  0  0  0
  5 22  1  0  0  0  0
  6 20  1  0  0  0  0
  6 22  2  0  0  0  0
  7 18  1  0  0  0  0
  7 23  2  0  0  0  0
  8 19  2  0  0  0  0
  8 23  1  0  0  0  0
  9 23  1  0  0  0  0
  9 41  1  0  0  0  0
  9 42  1  0  0  0  0
 10 11  1  0  0  0  0
 10 12  1  0  0  0  0
 10 26  1  0  0  0  0
 11 12  1  0  0  0  0
 11 28  1  0  0  0  0
 11 29  1  0  0  0  0
 12 27  1  0  0  0  0
 12 30  1  0  0  0  0
 13 14  1  0  0  0  0
 13 16  1  0  0  0  0
 13 31  1  0  0  0  0
 14 15  1  0  0  0  0
 14 32  1  0  0  0  0
 14 33  1  0  0  0  0
 15 17  1  0  0  0  0
 15 21  1  0  0  0  0
 15 34  1  0  0  0  0
 16 17  2  0  0  0  0
 16 36  1  0  0  0  0
 17 37  1  0  0  0  0
 18 20  2  0  0  0  0
 19 20  1  0  0  0  0
 21 38  1  0  0  0  0
 21 39  1  0  0  0  0
 22 40  1  0  0  0  0
 24 25  1  0  0  0  0
 25 43  1  0  0  0  0
 25 44  1  0  0  0  0
M  END
> <DATABASE_ID>
DB12187

> <DATABASE_NAME>
drugbank

> <ORIGINAL_SOURCE>
PUBCHEM

> <ORIGINAL_SOURCE_URL>
https://pubchem.ncbi.nlm.nih.gov/rest/pug/compound/inchikey/ZBBZROWQLKCFQK-KOLCDFICSA-N/SDF?record_type=3d

> <SMILES>
NC1=NC(NC2CC2)=C2N=CN([C@@H]3C[C@H](COC(=O)CO)C=C3)C2=N1

> <INCHI_IDENTIFIER>
InChI=1S/C16H20N6O3/c17-16-20-14(19-10-2-3-10)13-15(21-16)22(8-18-13)11-4-1-9(5-11)7-25-12(24)6-23/h1,4,8-11,23H,2-3,5-7H2,(H3,17,19,20,21)/t9-,11+/m1/s1

> <INCHI_KEY>
ZBBZROWQLKCFQK-KOLCDFICSA-N

> <FORMULA>
C16H20N6O3

> <MOLECULAR_WEIGHT>
344.375

> <EXACT_MASS>
344.159688528

> <JCHEM_ACCEPTOR_COUNT>
7

> <JCHEM_ATOM_COUNT>
45

> <JCHEM_AVERAGE_POLARIZABILITY>
35.804764317063686

> <JCHEM_BIOAVAILABILITY>
1

> <JCHEM_DONOR_COUNT>
3

> <JCHEM_FORMAL_CHARGE>
0

> <JCHEM_GHOSE_FILTER>
1

> <JCHEM_IUPAC>
[(1S,4R)-4-[2-amino-6-(cyclopropylamino)-9H-purin-9-yl]cyclopent-2-en-1-yl]methyl 2-hydroxyacetate

> <ALOGPS_LOGP>
0.71

> <JCHEM_LOGP>
0.010651265666666757

> <ALOGPS_LOGS>
-2.57

> <JCHEM_MDDR_LIKE_RULE>
1

> <JCHEM_NUMBER_OF_RINGS>
4

> <JCHEM_PHYSIOLOGICAL_CHARGE>
0

> <JCHEM_PKA>
16.685086809621158

> <JCHEM_PKA_STRONGEST_ACIDIC>
13.12793779470887

> <JCHEM_PKA_STRONGEST_BASIC>
5.773719537356384

> <JCHEM_POLAR_SURFACE_AREA>
128.18

> <JCHEM_REFRACTIVITY>
93.4768

> <JCHEM_ROTATABLE_BOND_COUNT>
7

> <JCHEM_RULE_OF_FIVE>
1

> <ALOGPS_SOLUBILITY>
9.17e-01 g/l

> <JCHEM_TRADITIONAL_IUPAC>
[(1S,4R)-4-[2-amino-6-(cyclopropylamino)purin-9-yl]cyclopent-2-en-1-yl]methyl hydroxyacetate

> <JCHEM_VEBER_RULE>
0

> <DRUGBANK_ID>
DB12187

> <DRUG_GROUPS>
investigational

> <GENERIC_NAME>
Abacavir hydroxyacetate

> <INTERNATIONAL_BRANDS>
Prurisol

$$$$
