REMARK  Name = 46191454
REMARK  3 active torsions:
REMARK  status: ('A' for Active; 'I' for Inactive)
REMARK    1  A    between atoms: C_11  and  C_19
REMARK    2  A    between atoms: C_15  and  C_26
REMARK    3  A    between atoms: C_26  and  C_27
REMARK                            x       y       z     vdW  Elec       q    Type
REMARK                         _______ _______ _______ _____ _____    ______ ____
ROOT
ATOM      1  O   UNL     1      -3.747   1.811  -0.324  0.00  0.00    -0.275 OA
ATOM      2  O   UNL     1       5.103   0.474   0.504  0.00  0.00    -0.275 OA
ATOM      3  N   UNL     1      -1.507   1.225  -0.115  0.00  0.00    -0.274 N 
ATOM      4  N   UNL     1       1.643   2.970   0.195  0.00  0.00    -0.277 N 
ATOM      5  N   UNL     1       2.701   2.126   0.288  0.00  0.00    -0.158 NA
ATOM      6  N   UNL     1       2.877  -0.267   0.290  0.00  0.00    -0.268 N 
ATOM      7  C   UNL     1      -0.955   2.642  -0.054  0.00  0.00    +0.095 C 
ATOM      8  C   UNL     1       0.477   2.301   0.080  0.00  0.00    +0.068 A 
ATOM      9  C   UNL     1      -0.447   0.158  -0.021  0.00  0.00    +0.124 C 
ATOM     10  C   UNL     1       0.761   0.972   0.098  0.00  0.00    +0.046 A 
ATOM     11  C   UNL     1      -2.866   0.953  -0.246  0.00  0.00    +0.225 C 
ATOM     12  C   UNL     1      -1.462   3.394   1.177  0.00  0.00    +0.026 C 
ATOM     13  C   UNL     1      -1.222   3.408  -1.350  0.00  0.00    +0.026 C 
ATOM     14  C   UNL     1       2.145   0.902   0.228  0.00  0.00    +0.152 A 
ATOM     15  C   UNL     1       4.276  -0.427   0.421  0.00  0.00    +0.227 C 
ATOM     16  H   UNL     1       1.717   3.952   0.209  0.00  0.00    +0.189 HD
ATOM     17  H   UNL     1       2.355  -1.100   0.237  0.00  0.00    +0.156 HD
ENDROOT
BRANCH  11  19
ATOM     18  N   UNL     1      -5.231  -2.557   0.272  0.00  0.00    +0.386 N 
ATOM     19  C   UNL     1      -3.232  -0.498  -0.291  0.00  0.00    +0.073 C 
ATOM     20  C   UNL     1      -3.486  -1.023   1.121  0.00  0.00    -0.014 C 
ATOM     21  C   UNL     1      -4.475  -0.686  -1.159  0.00  0.00    -0.014 C 
ATOM     22  C   UNL     1      -4.016  -2.458   1.093  0.00  0.00    -0.077 C 
ATOM     23  C   UNL     1      -4.973  -2.131  -1.111  0.00  0.00    -0.077 C 
ATOM     24  C   UNL     1      -5.754  -3.923   0.297  0.00  0.00    -0.101 C 
ATOM     25  H   UNL     1      -5.931  -1.931   0.668  0.00  0.00    -0.080 HD
ENDBRANCH  11  19
BRANCH  15  26
ATOM     26  C   UNL     1       4.678  -1.899   0.416  0.00  0.00    +0.085 C 
BRANCH  26  27
ATOM     27  C   UNL     1       6.086  -2.157  -0.141  0.00  0.00    +0.009 C 
ATOM     28  C   UNL     1       6.177  -1.667  -1.587  0.00  0.00    +0.001 C 
ATOM     29  C   UNL     1       6.446  -3.644  -0.077  0.00  0.00    +0.001 C 
ENDBRANCH  26  27
ENDBRANCH  15  26
TORSDOF 3
