REMARK  Name = 9867812
REMARK  5 active torsions:
REMARK  status: ('A' for Active; 'I' for Inactive)
REMARK    1  A    between atoms: C_5  and  C_23
REMARK    2  A    between atoms: C_10  and  C_18
REMARK    3  A    between atoms: C_23  and  C_24
REMARK    4  A    between atoms: C_24  and  C_26
REMARK    5  A    between atoms: C_26  and  O_27
REMARK                            x       y       z     vdW  Elec       q    Type
REMARK                         _______ _______ _______ _____ _____    ______ ____
ROOT
ATOM      1 BR   UNL     1       4.665  -1.152  -3.080  0.00  0.00    -0.049 Br
ATOM      2  N   UNL     1       0.932   2.145   0.457  0.00  0.00    -0.255 N 
ATOM      3  N   UNL     1      -0.782  -0.376   0.277  0.00  0.00    -0.263 NA
ATOM      4  N   UNL     1      -0.971   2.903   1.354  0.00  0.00    -0.230 NA
ATOM      5  C   UNL     1      -1.171   0.940  -0.206  0.00  0.00    +0.158 C 
ATOM      6  C   UNL     1      -0.440   1.987   0.568  0.00  0.00    +0.138 C 
ATOM      7  C   UNL     1       1.811   1.329  -0.297  0.00  0.00    +0.058 C 
ATOM      8  C   UNL     1       1.529  -0.026  -0.560  0.00  0.00    +0.033 C 
ATOM      9  C   UNL     1       1.244   3.289   1.157  0.00  0.00    +0.054 C 
ATOM     10  C   UNL     1       0.428  -0.792   0.111  0.00  0.00    +0.095 C 
ATOM     11  C   UNL     1       0.066   3.712   1.720  0.00  0.00    +0.111 C 
ATOM     12  C   UNL     1       2.982   1.906  -0.818  0.00  0.00    +0.016 C 
ATOM     13  C   UNL     1       2.384  -0.750  -1.409  0.00  0.00    +0.009 C 
ATOM     14  C   UNL     1       2.590   3.849   1.394  0.00  0.00    +0.049 C 
ATOM     15  C   UNL     1       3.831   1.164  -1.639  0.00  0.00    +0.008 C 
ATOM     16  C   UNL     1       3.525  -0.157  -1.947  0.00  0.00    +0.035 C 
ENDROOT
BRANCH  10  18
ATOM     17  N   UNL     1       2.009  -2.309   1.084  0.00  0.00    -0.242 NA
ATOM     18  C   UNL     1       0.741  -2.142   0.664  0.00  0.00    +0.099 C 
ATOM     19  C   UNL     1      -0.243  -3.106   0.713  0.00  0.00    +0.021 C 
ATOM     20  C   UNL     1       0.102  -4.347   1.237  0.00  0.00    +0.003 C 
ATOM     21  C   UNL     1       2.307  -3.528   1.587  0.00  0.00    +0.099 C 
ATOM     22  C   UNL     1       1.399  -4.570   1.685  0.00  0.00    +0.021 C 
ENDBRANCH  10  18
BRANCH   5  23
ATOM     23  C   UNL     1      -2.685   1.059  -0.040  0.00  0.00    +0.043 C 
BRANCH  23  24
ATOM     24  C   UNL     1      -3.413  -0.042  -0.802  0.00  0.00    +0.112 C 
BRANCH  24  26
ATOM     25  O   UNL     1      -5.491   0.888   0.053  0.00  0.00    -0.250 OA
ATOM     26  C   UNL     1      -4.911   0.053  -0.627  0.00  0.00    +0.317 C 
BRANCH  26  27
ATOM     27  O   UNL     1      -5.504  -0.943  -1.350  0.00  0.00    -0.444 OA
ATOM     28  C   UNL     1      -6.934  -0.984  -1.285  0.00  0.00    +0.256 C 
ENDBRANCH  26  27
ENDBRANCH  24  26
ENDBRANCH  23  24
ENDBRANCH   5  23
TORSDOF 5
