REMARK  Name = 25128145
REMARK  5 active torsions:
REMARK  status: ('A' for Active; 'I' for Inactive)
REMARK    1  A    between atoms: C_3  and  C_23
REMARK    2  A    between atoms: C_9  and  C_10
REMARK    3  A    between atoms: C_11  and  C_19
REMARK    4  A    between atoms: C_23  and  O_24
REMARK    5  A    between atoms: O_24  and  C_27
REMARK                            x       y       z     vdW  Elec       q    Type
REMARK                         _______ _______ _______ _____ _____    ______ ____
ROOT
ATOM      1  O   UNL     1      -1.827   0.341   2.400  0.00  0.00    -0.270 OA
ATOM      2  N   UNL     1      -1.138   1.447   0.452  0.00  0.00    -0.278 N 
ATOM      3  C   UNL     1       0.500   2.426  -1.162  0.00  0.00    +0.064 C 
ATOM      4  C   UNL     1      -1.582   2.769   0.931  0.00  0.00    +0.076 C 
ATOM      5  C   UNL     1       0.033   3.824  -0.738  0.00  0.00    +0.007 C 
ATOM      6  C   UNL     1      -0.511   3.841   0.689  0.00  0.00    +0.020 C 
ATOM      7  C   UNL     1      -0.606   1.392  -0.921  0.00  0.00    +0.097 C 
ATOM      8  C   UNL     1      -2.936   3.147   0.323  0.00  0.00    +0.022 C 
ATOM      9  C   UNL     1      -1.383   0.324   1.253  0.00  0.00    +0.250 C 
ENDROOT
BRANCH   9  10
ATOM     10  C   UNL     1      -1.088  -1.000   0.695  0.00  0.00    +0.063 C 
ATOM     11  C   UNL     1      -2.045  -1.729  -0.011  0.00  0.00    +0.066 C 
ATOM     12  C   UNL     1       0.188  -1.528   0.890  0.00  0.00    +0.001 C 
ATOM     13  C   UNL     1       0.507  -2.785   0.377  0.00  0.00    -0.022 C 
ATOM     14  C   UNL     1      -1.725  -2.986  -0.524  0.00  0.00    +0.010 C 
ATOM     15  C   UNL     1      -0.449  -3.514  -0.330  0.00  0.00    -0.004 C 
ATOM     16  C   UNL     1       1.872  -3.351   0.583  0.00  0.00    +0.031 C 
BRANCH  11  19
ATOM     17  N   UNL     1      -3.763  -1.045  -1.509  0.00  0.00    -0.215 NA
ATOM     18  N   UNL     1      -4.105  -0.932   0.874  0.00  0.00    -0.193 NA
ATOM     19  C   UNL     1      -3.380  -1.205  -0.228  0.00  0.00    +0.031 C 
ATOM     20  C   UNL     1      -5.010  -0.557  -1.674  0.00  0.00    +0.164 C 
ATOM     21  C   UNL     1      -5.341  -0.448   0.636  0.00  0.00    +0.107 C 
ATOM     22  C   UNL     1      -5.852  -0.237  -0.629  0.00  0.00    +0.022 C 
ENDBRANCH  11  19
ENDBRANCH   9  10
BRANCH   3  23
ATOM     23  C   UNL     1       1.798   2.019  -0.459  0.00  0.00    +0.209 C 
BRANCH  23  24
ATOM     24  O   UNL     1       2.396   0.974  -1.201  0.00  0.00    -0.460 OA
BRANCH  24  27
ATOM     25  F   UNL     1       7.070  -0.992   0.769  0.00  0.00    -0.203 F 
ATOM     26  N   UNL     1       4.062   1.005   0.419  0.00  0.00    -0.208 NA
ATOM     27  C   UNL     1       3.577   0.462  -0.720  0.00  0.00    +0.225 C 
ATOM     28  C   UNL     1       4.198  -0.563  -1.416  0.00  0.00    +0.060 C 
ATOM     29  C   UNL     1       5.392  -1.063  -0.910  0.00  0.00    +0.036 C 
ATOM     30  C   UNL     1       5.225   0.493   0.881  0.00  0.00    +0.132 C 
ATOM     31  C   UNL     1       5.922  -0.530   0.260  0.00  0.00    +0.159 C 
ENDBRANCH  24  27
ENDBRANCH  23  24
ENDBRANCH   3  23
TORSDOF 5
