REMARK  Name = 6918848
REMARK  6 active torsions:
REMARK  status: ('A' for Active; 'I' for Inactive)
REMARK    1  A    between atoms: N_2  and  C_5
REMARK    2  A    between atoms: C_3  and  C_17
REMARK    3  A    between atoms: C_10  and  C_13
REMARK    4  A    between atoms: N_12  and  O_15
REMARK    5  A    between atoms: C_17  and  C_18
REMARK    6  A    between atoms: C_17  and  C_24
REMARK                            x       y       z     vdW  Elec       q    Type
REMARK                         _______ _______ _______ _____ _____    ______ ____
ROOT
ATOM      1  O   UNL     1       1.002   0.165   1.498  0.00  0.00    -0.274 OA
ATOM      2  N   UNL     1       0.170   0.666  -0.638  0.00  0.00    -0.284 N 
ATOM      3  C   UNL     1       1.155   0.532   0.336  0.00  0.00    +0.230 C 
ATOM      4  H   UNL     1       0.476   0.948  -1.530  0.00  0.00    +0.155 HD
ENDROOT
BRANCH   2   5
ATOM      5  C   UNL     1      -1.220   0.445  -0.495  0.00  0.00    +0.050 C 
ATOM      6  C   UNL     1      -2.050   0.621  -1.590  0.00  0.00    +0.015 C 
ATOM      7  C   UNL     1      -1.722   0.055   0.736  0.00  0.00    +0.015 C 
ATOM      8  C   UNL     1      -3.421   0.401  -1.449  0.00  0.00    +0.006 C 
ATOM      9  C   UNL     1      -3.092  -0.164   0.876  0.00  0.00    +0.006 C 
ATOM     10  C   UNL     1      -3.941   0.009  -0.216  0.00  0.00    +0.055 C 
BRANCH  10  13
ATOM     11  O   UNL     1      -6.188   0.377  -0.794  0.00  0.00    -0.268 OA
ATOM     12  N   UNL     1      -5.770  -1.117   0.912  0.00  0.00    -0.193 N 
ATOM     13  C   UNL     1      -5.370  -0.221  -0.070  0.00  0.00    +0.268 C 
ATOM     14  H   UNL     1      -5.116  -1.585   1.480  0.00  0.00    +0.183 HD
BRANCH  12  15
ATOM     15  O   UNL     1      -7.149  -1.323   1.056  0.00  0.00    -0.295 OA
ATOM     16  H   UNL     1      -7.308  -1.964   1.767  0.00  0.00    +0.241 HD
ENDBRANCH  12  15
ENDBRANCH  10  13
ENDBRANCH   2   5
BRANCH   3  17
ATOM     17  C   UNL     1       2.551   0.867  -0.223  0.00  0.00    +0.099 C 
BRANCH  17  18
ATOM     18  C   UNL     1       3.404  -0.394  -0.178  0.00  0.00    -0.014 C 
ATOM     19  C   UNL     1       4.151  -0.652   0.952  0.00  0.00    -0.004 C 
ATOM     20  C   UNL     1       3.402  -1.238  -1.269  0.00  0.00    -0.004 C 
ATOM     21  C   UNL     1       4.932  -1.806   0.994  0.00  0.00    -0.000 C 
ATOM     22  C   UNL     1       4.183  -2.393  -1.227  0.00  0.00    -0.000 C 
ATOM     23  C   UNL     1       4.948  -2.677  -0.096  0.00  0.00    -0.000 C 
ENDBRANCH  17  18
BRANCH  17  24
ATOM     24  C   UNL     1       3.194   2.078   0.515  0.00  0.00    +0.013 C 
ATOM     25  C   UNL     1       4.553   2.462  -0.087  0.00  0.00    +0.001 C 
ATOM     26  C   UNL     1       2.276   3.308   0.457  0.00  0.00    +0.001 C 
ENDBRANCH  17  24
ENDBRANCH   3  17
TORSDOF 6
