REMARK  Name = 55473
REMARK  9 active torsions:
REMARK  status: ('A' for Active; 'I' for Inactive)
REMARK    1  A    between atoms: O_1  and  C_5
REMARK    2  A    between atoms: O_1  and  C_16
REMARK    3  A    between atoms: C_2  and  C_8
REMARK    4  A    between atoms: C_8  and  N_9
REMARK    5  A    between atoms: C_16  and  C_17
REMARK    6  A    between atoms: C_17  and  C_18
REMARK    7  A    between atoms: C_18  and  N_19
REMARK    8  A    between atoms: C_24  and  C_27
REMARK    9  A    between atoms: C_27  and  O_28
REMARK                            x       y       z     vdW  Elec       q    Type
REMARK                         _______ _______ _______ _____ _____    ______ ____
ROOT
ATOM      1  O   UNL     1       0.834   2.277  -1.668  0.00  0.00    -0.475 OA
ENDROOT
BRANCH   1   5
ATOM      2  C   UNL     1      -1.725   1.764   0.896  0.00  0.00    -0.040 C 
ATOM      3  C   UNL     1      -1.097   1.797  -0.349  0.00  0.00    +0.031 C 
ATOM      4  C   UNL     1      -1.036   2.177   2.036  0.00  0.00    -0.006 C 
ATOM      5  C   UNL     1       0.221   2.244  -0.454  0.00  0.00    +0.138 C 
ATOM      6  C   UNL     1       0.281   2.624   1.932  0.00  0.00    +0.003 C 
ATOM      7  C   UNL     1       0.909   2.658   0.687  0.00  0.00    +0.037 C 
BRANCH   2   8
ATOM      8  C   UNL     1      -3.147   1.282   1.009  0.00  0.00    -0.050 C 
BRANCH   8   9
ATOM      9  N   UNL     1      -3.371   0.059   0.238  0.00  0.00    +0.390 N 
ATOM     10  C   UNL     1      -4.804  -0.124  -0.030  0.00  0.00    -0.077 C 
ATOM     11  C   UNL     1      -2.809  -1.103   0.941  0.00  0.00    -0.077 C 
ATOM     12  C   UNL     1      -5.052  -1.372  -0.878  0.00  0.00    -0.023 C 
ATOM     13  C   UNL     1      -2.991  -2.383   0.124  0.00  0.00    -0.023 C 
ATOM     14  C   UNL     1      -4.457  -2.614  -0.224  0.00  0.00    -0.004 C 
ATOM     15  H   UNL     1      -2.892   0.146  -0.659  0.00  0.00    -0.079 HD
ENDBRANCH   8   9
ENDBRANCH   2   8
ENDBRANCH   1   5
BRANCH   1  16
ATOM     16  C   UNL     1       0.421   1.308  -2.631  0.00  0.00    +0.207 C 
BRANCH  16  17
ATOM     17  C   UNL     1       1.609   0.967  -3.523  0.00  0.00    +0.069 C 
BRANCH  17  18
ATOM     18  C   UNL     1       2.782   0.377  -2.751  0.00  0.00    +0.094 C 
BRANCH  18  19
ATOM     19  N   UNL     1       2.398  -0.844  -2.082  0.00  0.00    -0.294 N 
ATOM     20  N   UNL     1       2.067  -2.211  -0.181  0.00  0.00    -0.162 N 
ATOM     21  N   UNL     1       2.826  -0.201   0.217  0.00  0.00    -0.319 NA
ATOM     22  N   UNL     1       2.190  -2.188   1.154  0.00  0.00    -0.111 NA
ATOM     23  C   UNL     1       2.447  -1.026  -0.731  0.00  0.00    +0.268 C 
ATOM     24  C   UNL     1       2.652  -0.951   1.345  0.00  0.00    +0.113 C 
ATOM     25  C   UNL     1       1.584  -3.400  -0.842  0.00  0.00    +0.145 C 
ATOM     26  H   UNL     1       2.080  -1.592  -2.637  0.00  0.00    +0.150 HD
BRANCH  24  27
ATOM     27  C   UNL     1       2.957  -0.432   2.683  0.00  0.00    +0.252 C 
BRANCH  27  28
ATOM     28  O   UNL     1       4.311  -0.685   3.082  0.00  0.00    -0.368 OA
ATOM     29  H   UNL     1       4.460  -0.324   3.970  0.00  0.00    +0.212 HD
ENDBRANCH  27  28
ENDBRANCH  24  27
ENDBRANCH  18  19
ENDBRANCH  17  18
ENDBRANCH  16  17
ENDBRANCH   1  16
TORSDOF 9
