REMARK  Name = 5282459
REMARK  7 active torsions:
REMARK  status: ('A' for Active; 'I' for Inactive)
REMARK    1  A    between atoms: N_2  and  C_24
REMARK    2  A    between atoms: C_8  and  C_10
REMARK    3  A    between atoms: C_11  and  C_12
REMARK    4  A    between atoms: C_15  and  O_18
REMARK    5  A    between atoms: C_16  and  O_20
REMARK    6  A    between atoms: C_17  and  O_22
REMARK    7  A    between atoms: C_24  and  C_31
REMARK                            x       y       z     vdW  Elec       q    Type
REMARK                         _______ _______ _______ _____ _____    ______ ____
ROOT
ATOM      1  O   UNL     1      -0.088   1.012  -2.440  0.00  0.00    -0.270 OA
ATOM      2  N   UNL     1      -3.703  -0.927   0.353  0.00  0.00    +0.395 N 
ATOM      3  N   UNL     1      -1.245  -0.438  -1.039  0.00  0.00    -0.280 N 
ATOM      4  C   UNL     1      -3.616   0.133  -0.662  0.00  0.00    -0.055 C 
ATOM      5  C   UNL     1      -2.411  -1.102   1.033  0.00  0.00    -0.055 C 
ATOM      6  C   UNL     1      -2.531  -0.187  -1.692  0.00  0.00    +0.071 C 
ATOM      7  C   UNL     1      -1.311  -1.445   0.027  0.00  0.00    +0.071 C 
ATOM      8  C   UNL     1      -0.097   0.168  -1.541  0.00  0.00    +0.249 C 
ATOM      9  H   UNL     1      -3.939  -1.802  -0.116  0.00  0.00    -0.079 HD
ENDROOT
BRANCH   8  10
ATOM     10  C   UNL     1       1.203  -0.224  -0.963  0.00  0.00    +0.058 C 
ATOM     11  C   UNL     1       2.189   0.682  -0.941  0.00  0.00    +0.005 C 
BRANCH  11  12
ATOM     12  C   UNL     1       3.541   0.440  -0.408  0.00  0.00    +0.006 C 
ATOM     13  C   UNL     1       4.351   1.517  -0.045  0.00  0.00    +0.040 C 
ATOM     14  C   UNL     1       4.012  -0.865  -0.266  0.00  0.00    +0.040 C 
ATOM     15  C   UNL     1       5.292  -1.094   0.238  0.00  0.00    +0.175 C 
ATOM     16  C   UNL     1       5.631   1.288   0.460  0.00  0.00    +0.175 C 
ATOM     17  C   UNL     1       6.101  -0.018   0.601  0.00  0.00    +0.206 C 
BRANCH  15  18
ATOM     18  O   UNL     1       5.740  -2.374   0.372  0.00  0.00    -0.468 OA
ATOM     19  C   UNL     1       4.850  -3.416  -0.022  0.00  0.00    +0.253 C 
ENDBRANCH  15  18
BRANCH  16  20
ATOM     20  O   UNL     1       6.411   2.348   0.811  0.00  0.00    -0.468 OA
ATOM     21  C   UNL     1       5.854   3.649   0.635  0.00  0.00    +0.253 C 
ENDBRANCH  16  20
BRANCH  17  22
ATOM     22  O   UNL     1       7.352  -0.241   1.095  0.00  0.00    -0.465 OA
ATOM     23  C   UNL     1       8.419  -0.305   0.151  0.00  0.00    +0.253 C 
ENDBRANCH  17  22
ENDBRANCH  11  12
ENDBRANCH   8  10
BRANCH   2  24
ATOM     24  C   UNL     1      -4.757  -0.626   1.321  0.00  0.00    +0.010 C 
BRANCH  24  31
ATOM     25  O   UNL     1      -6.308  -2.094   0.268  0.00  0.00    -0.277 OA
ATOM     26  N   UNL     1      -6.950   0.110   0.527  0.00  0.00    -0.281 N 
ATOM     27  C   UNL     1      -8.259  -0.038  -0.093  0.00  0.00    +0.093 C 
ATOM     28  C   UNL     1      -6.732   1.484   0.967  0.00  0.00    +0.093 C 
ATOM     29  C   UNL     1      -8.995   1.245   0.261  0.00  0.00    +0.023 C 
ATOM     30  C   UNL     1      -7.871   2.271   0.334  0.00  0.00    +0.023 C 
ATOM     31  C   UNL     1      -6.072  -0.950   0.658  0.00  0.00    +0.205 C 
ENDBRANCH  24  31
ENDBRANCH   2  24
TORSDOF 7
