REMARK  Name = 25227436
REMARK  7 active torsions:
REMARK  status: ('A' for Active; 'I' for Inactive)
REMARK    1  A    between atoms: C_5  and  C_19
REMARK    2  A    between atoms: C_5  and  N_33
REMARK    3  A    between atoms: N_18  and  C_21
REMARK    4  A    between atoms: C_21  and  C_23
REMARK    5  A    between atoms: C_21  and  C_29
REMARK    6  A    between atoms: C_29  and  C_30
REMARK    7  A    between atoms: C_30  and  O_31
REMARK                            x       y       z     vdW  Elec       q    Type
REMARK                         _______ _______ _______ _____ _____    ______ ____
ROOT
ATOM      1  N   UNL     1      -2.014  -0.583  -0.211  0.00  0.00    -0.296 N 
ATOM      2  N   UNL     1      -2.925   1.602  -0.471  0.00  0.00    -0.233 NA
ATOM      3  N   UNL     1      -6.603   0.090   0.244  0.00  0.00    -0.300 N 
ATOM      4  N   UNL     1      -5.306   2.061  -0.254  0.00  0.00    -0.233 NA
ATOM      5  C   UNL     1       0.326  -2.303  -0.191  0.00  0.00    +0.025 C 
ATOM      6  C   UNL     1      -0.905  -2.598   0.674  0.00  0.00    +0.010 C 
ATOM      7  C   UNL     1      -0.077  -1.498  -1.433  0.00  0.00    +0.010 C 
ATOM      8  C   UNL     1      -1.702  -1.334   1.009  0.00  0.00    +0.090 C 
ATOM      9  C   UNL     1      -0.877  -0.243  -1.077  0.00  0.00    +0.090 C 
ATOM     10  C   UNL     1      -3.113   0.285  -0.222  0.00  0.00    +0.116 C 
ATOM     11  C   UNL     1      -4.400  -0.192   0.019  0.00  0.00    +0.131 C 
ATOM     12  C   UNL     1      -5.427   0.744  -0.013  0.00  0.00    +0.117 C 
ATOM     13  C   UNL     1      -4.994  -1.447   0.308  0.00  0.00    +0.004 C 
ATOM     14  C   UNL     1      -4.019   2.397  -0.472  0.00  0.00    +0.252 C 
ATOM     15  C   UNL     1      -6.351  -1.244   0.440  0.00  0.00    +0.059 C 
ATOM     16  H   UNL     1      -7.491   0.512   0.283  0.00  0.00    +0.153 HD
ENDROOT
BRANCH   5  19
ATOM     17  O   UNL     1       1.198  -1.269   1.784  0.00  0.00    -0.277 OA
ATOM     18  N   UNL     1       2.503  -1.292  -0.144  0.00  0.00    -0.304 N 
ATOM     19  C   UNL     1       1.375  -1.575   0.607  0.00  0.00    +0.204 C 
ATOM     20  H   UNL     1       2.528  -1.591  -1.082  0.00  0.00    +0.150 HD
BRANCH  18  21
ATOM     21  C   UNL     1       3.645  -0.580   0.381  0.00  0.00    +0.096 C 
BRANCH  21  23
ATOM     22 CL   UNL     1       2.800   5.366  -0.095  0.00  0.00    -0.082 Cl
ATOM     23  C   UNL     1       3.433   0.914   0.262  0.00  0.00    -0.004 C 
ATOM     24  C   UNL     1       3.937   1.771   1.240  0.00  0.00    -0.002 C 
ATOM     25  C   UNL     1       2.733   1.435  -0.827  0.00  0.00    -0.002 C 
ATOM     26  C   UNL     1       3.742   3.148   1.130  0.00  0.00    +0.011 C 
ATOM     27  C   UNL     1       2.538   2.811  -0.938  0.00  0.00    +0.011 C 
ATOM     28  C   UNL     1       3.042   3.668   0.041  0.00  0.00    +0.058 C 
ENDBRANCH  21  23
BRANCH  21  29
ATOM     29  C   UNL     1       4.937  -1.074  -0.290  0.00  0.00    +0.056 C 
BRANCH  29  30
ATOM     30  C   UNL     1       5.156  -2.576  -0.142  0.00  0.00    +0.139 C 
BRANCH  30  31
ATOM     31  O   UNL     1       6.380  -2.923  -0.776  0.00  0.00    -0.382 OA
ATOM     32  H   UNL     1       6.531  -3.878  -0.688  0.00  0.00    +0.210 HD
ENDBRANCH  30  31
ENDBRANCH  29  30
ENDBRANCH  21  29
ENDBRANCH  18  21
ENDBRANCH   5  19
BRANCH   5  33
ATOM     33  N   UNL     1       0.965  -3.560  -0.584  0.00  0.00    +0.388 N 
ATOM     34  H   UNL     1       0.311  -4.117  -1.134  0.00  0.00    -0.088 HD
ATOM     35  H   UNL     1       1.235  -4.080   0.251  0.00  0.00    -0.088 HD
ATOM     36  H   UNL     1       1.795  -3.360  -1.142  0.00  0.00    -0.088 HD
ENDBRANCH   5  33
TORSDOF 7
