REMARK  Name = 7114
REMARK  2 active torsions:
REMARK  status: ('A' for Active; 'I' for Inactive)
REMARK    1  A    between atoms: C_1  and  C_7
REMARK    2  A    between atoms: C_4  and  N_15
REMARK                            x       y       z     vdW  Elec       q    Type
REMARK                         _______ _______ _______ _____ _____    ______ ____
ROOT
ATOM      1  C   UNL     1      -0.344   0.000  -0.002  0.00  0.00    +0.000 C 
ATOM      2  C   UNL     1       0.353   1.208  -0.002  0.00  0.00    +0.002 C 
ATOM      3  C   UNL     1       0.353  -1.208  -0.003  0.00  0.00    +0.002 C 
ATOM      4  C   UNL     1       2.446   0.000  -0.002  0.00  0.00    +0.143 C 
ATOM      5  C   UNL     1       1.748   1.208  -0.002  0.00  0.00    +0.024 C 
ATOM      6  C   UNL     1       1.748  -1.208  -0.002  0.00  0.00    +0.024 C 
ENDROOT
BRANCH   1   7
ATOM      7  C   UNL     1      -1.791   0.000  -0.001  0.00  0.00    +0.000 C 
ATOM      8  C   UNL     1      -2.487  -0.001   1.208  0.00  0.00    +0.000 C 
ATOM      9  C   UNL     1      -2.490   0.001  -1.208  0.00  0.00    +0.000 C 
ATOM     10  C   UNL     1      -3.882  -0.001   1.210  0.00  0.00    +0.000 C 
ATOM     11  C   UNL     1      -3.885   0.001  -1.206  0.00  0.00    +0.000 C 
ATOM     12  C   UNL     1      -4.581   0.000   0.003  0.00  0.00    +0.000 C 
ENDBRANCH   1   7
BRANCH   4  15
ATOM     13  O   UNL     1       4.474   1.097   0.004  0.00  0.00    -0.126 OA
ATOM     14  O   UNL     1       4.473  -1.098   0.001  0.00  0.00    -0.126 OA
ATOM     15  N   UNL     1       3.865   0.000   0.001  0.00  0.00    +0.058 N 
ENDBRANCH   4  15
TORSDOF 2
