REMARK  Name = 4165
REMARK  2 active torsions:
REMARK  status: ('A' for Active; 'I' for Inactive)
REMARK    1  A    between atoms: C_11  and  S_14
REMARK    2  A    between atoms: S_14  and  N_17
REMARK                            x       y       z     vdW  Elec       q    Type
REMARK                         _______ _______ _______ _____ _____    ______ ____
ROOT
ATOM      1  S   UNL     1      -2.347  -1.259  -0.019  0.00  0.00    +0.008 S 
ATOM      2  O   UNL     1      -2.179  -2.159  -1.143  0.00  0.00    -0.169 OA
ATOM      3  O   UNL     1      -2.494  -1.753   1.336  0.00  0.00    -0.169 OA
ATOM      4  C   UNL     1      -3.737  -0.216  -0.377  0.00  0.00    +0.156 C 
ATOM      5  C   UNL     1      -3.623   1.104   0.357  0.00  0.00    +0.030 C 
ATOM      6  C   UNL     1      -2.435   1.909  -0.161  0.00  0.00    +0.029 C 
ATOM      7  C   UNL     1      -0.953  -0.182  -0.007  0.00  0.00    +0.103 C 
ATOM      8  C   UNL     1      -1.105   1.208  -0.058  0.00  0.00    -0.005 C 
ATOM      9  C   UNL     1       0.309  -0.781   0.054  0.00  0.00    +0.038 C 
ATOM     10  C   UNL     1       0.060   1.991  -0.068  0.00  0.00    -0.006 C 
ATOM     11  C   UNL     1       1.449   0.018   0.057  0.00  0.00    +0.119 C 
ATOM     12  C   UNL     1       1.326   1.403  -0.006  0.00  0.00    -0.003 C 
ATOM     13  C   UNL     1       2.528   2.290  -0.013  0.00  0.00    +0.032 C 
ENDROOT
BRANCH  11  14
ATOM     14  S   UNL     1       3.019  -0.752   0.134  0.00  0.00    +0.057 S 
ATOM     15  O   UNL     1       3.966   0.200   0.693  0.00  0.00    -0.153 OA
ATOM     16  O   UNL     1       2.858  -2.062   0.747  0.00  0.00    -0.153 OA
BRANCH  14  17
ATOM     17  N   UNL     1       3.357  -0.959  -1.527  0.00  0.00    -0.203 NA
ATOM     18  H   UNL     1       4.267  -1.409  -1.635  0.00  0.00    +0.144 HD
ATOM     19  H   UNL     1       3.371  -0.049  -1.988  0.00  0.00    +0.144 HD
ENDBRANCH  14  17
ENDBRANCH  11  14
TORSDOF 2
