REMARK  Name = 175540
REMARK  9 active torsions:
REMARK  status: ('A' for Active; 'I' for Inactive)
REMARK    1  A    between atoms: O_1  and  C_2
REMARK    2  A    between atoms: O_1  and  C_14
REMARK    3  A    between atoms: C_3  and  C_8
REMARK    4  A    between atoms: C_8  and  C_11
REMARK    5  A    between atoms: C_14  and  C_15
REMARK    6  A    between atoms: C_15  and  O_16
REMARK    7  A    between atoms: C_15  and  C_18
REMARK    8  A    between atoms: C_18  and  N_19
REMARK    9  A    between atoms: N_19  and  C_22
REMARK                            x       y       z     vdW  Elec       q    Type
REMARK                         _______ _______ _______ _____ _____    ______ ____
ROOT
ATOM      1  O   UNL     1       1.108   1.783   0.301  0.00  0.00    -0.473 OA
ENDROOT
BRANCH   1   2
ATOM      2  C   UNL     1      -0.209   1.411   0.278  0.00  0.00    +0.139 C 
ATOM      3  C   UNL     1      -2.885   0.654   0.234  0.00  0.00    -0.013 C 
ATOM      4  C   UNL     1      -0.800   0.899   1.429  0.00  0.00    +0.037 C 
ATOM      5  C   UNL     1      -0.945   1.548  -0.894  0.00  0.00    +0.037 C 
ATOM      6  C   UNL     1      -2.142   0.519   1.407  0.00  0.00    -0.001 C 
ATOM      7  C   UNL     1      -2.287   1.168  -0.916  0.00  0.00    -0.001 C 
BRANCH   3   8
ATOM      8  C   UNL     1      -4.320   0.248   0.210  0.00  0.00    +0.111 C 
BRANCH   8  11
ATOM      9  O   UNL     1      -3.630  -1.996  -0.401  0.00  0.00    -0.275 OA
ATOM     10  N   UNL     1      -5.877  -1.536  -0.262  0.00  0.00    -0.329 N 
ATOM     11  C   UNL     1      -4.542  -1.203  -0.183  0.00  0.00    +0.224 C 
ATOM     12  H   UNL     1      -6.142  -2.452  -0.508  0.00  0.00    +0.145 HD
ATOM     13  H   UNL     1      -6.566  -0.859  -0.071  0.00  0.00    +0.145 HD
ENDBRANCH   8  11
ENDBRANCH   3   8
ENDBRANCH   1   2
BRANCH   1  14
ATOM     14  C   UNL     1       1.827   1.666  -0.923  0.00  0.00    +0.232 C 
BRANCH  14  15
ATOM     15  C   UNL     1       3.297   1.399  -0.608  0.00  0.00    +0.133 C 
BRANCH  15  16
ATOM     16  O   UNL     1       3.817   2.511   0.127  0.00  0.00    -0.383 OA
ATOM     17  H   UNL     1       4.752   2.354   0.334  0.00  0.00    +0.210 HD
ENDBRANCH  15  16
BRANCH  15  18
ATOM     18  C   UNL     1       3.518   0.133   0.222  0.00  0.00    -0.048 C 
BRANCH  18  19
ATOM     19  N   UNL     1       3.074  -1.065  -0.477  0.00  0.00    +0.387 N 
ATOM     20  H   UNL     1       3.565  -1.133  -1.369  0.00  0.00    -0.084 HD
ATOM     21  H   UNL     1       2.067  -0.998  -0.629  0.00  0.00    -0.084 HD
BRANCH  19  22
ATOM     22  C   UNL     1       3.347  -2.260   0.309  0.00  0.00    -0.062 C 
ATOM     23  C   UNL     1       2.804  -3.484  -0.421  0.00  0.00    -0.023 C 
ATOM     24  C   UNL     1       4.845  -2.394   0.565  0.00  0.00    -0.023 C 
ENDBRANCH  19  22
ENDBRANCH  18  19
ENDBRANCH  15  18
ENDBRANCH  14  15
ENDBRANCH   1  14
TORSDOF 9
