REMARK  Name = 21022
REMARK  7 active torsions:
REMARK  status: ('A' for Active; 'I' for Inactive)
REMARK    1  A    between atoms: C_4  and  C_22
REMARK    2  A    between atoms: C_6  and  C_20
REMARK    3  A    between atoms: C_13  and  O_16
REMARK    4  A    between atoms: C_14  and  O_18
REMARK    5  A    between atoms: C_22  and  C_24
REMARK    6  A    between atoms: C_31  and  O_35
REMARK    7  A    between atoms: C_32  and  O_37
REMARK                            x       y       z     vdW  Elec       q    Type
REMARK                         _______ _______ _______ _____ _____    ______ ____
ROOT
ATOM      1  N   UNL     1       2.742  -2.428   0.430  0.00  0.00    +0.394 N 
ATOM      2  C   UNL     1       2.398  -1.185  -0.292  0.00  0.00    -0.030 C 
ATOM      3  C   UNL     1       1.025  -0.716   0.245  0.00  0.00    +0.005 C 
ATOM      4  C   UNL     1      -0.017  -1.813   0.348  0.00  0.00    -0.058 C 
ATOM      5  C   UNL     1       1.796  -3.501   0.088  0.00  0.00    -0.054 C 
ATOM      6  C   UNL     1       0.339  -3.110   0.237  0.00  0.00    -0.073 C 
ATOM      7  C   UNL     1       4.119  -2.845   0.159  0.00  0.00    -0.072 C 
ATOM      8  C   UNL     1       3.464  -0.098  -0.170  0.00  0.00    -0.042 C 
ATOM      9  C   UNL     1       5.082  -1.814   0.745  0.00  0.00    +0.003 C 
ATOM     10  C   UNL     1       4.753  -0.414   0.300  0.00  0.00    -0.027 C 
ATOM     11  C   UNL     1       3.209   1.216  -0.596  0.00  0.00    +0.033 C 
ATOM     12  C   UNL     1       5.731   0.586   0.398  0.00  0.00    +0.035 C 
ATOM     13  C   UNL     1       4.193   2.203  -0.509  0.00  0.00    +0.172 C 
ATOM     14  C   UNL     1       5.451   1.889  -0.006  0.00  0.00    +0.172 C 
ATOM     15  H   UNL     1       2.670  -2.237   1.429  0.00  0.00    -0.079 HD
ENDROOT
BRANCH  13  16
ATOM     16  O   UNL     1       3.909   3.469  -0.923  0.00  0.00    -0.468 OA
ATOM     17  C   UNL     1       3.378   4.365   0.051  0.00  0.00    +0.253 C 
ENDBRANCH  13  16
BRANCH  14  18
ATOM     18  O   UNL     1       6.418   2.844   0.090  0.00  0.00    -0.468 OA
ATOM     19  C   UNL     1       7.680   2.438   0.617  0.00  0.00    +0.253 C 
ENDBRANCH  14  18
BRANCH   6  20
ATOM     20  C   UNL     1      -0.611  -4.276   0.235  0.00  0.00    +0.019 C 
ATOM     21  C   UNL     1      -0.854  -4.798   1.636  0.00  0.00    +0.005 C 
ENDBRANCH   6  20
BRANCH   4  22
ATOM     22  C   UNL     1      -1.416  -1.310   0.578  0.00  0.00    +0.004 C 
BRANCH  22  24
ATOM     23  N   UNL     1      -1.705  -1.124  -1.807  0.00  0.00    +0.388 N 
ATOM     24  C   UNL     1      -1.869  -0.372  -0.548  0.00  0.00    -0.035 C 
ATOM     25  C   UNL     1      -3.280   0.165  -0.348  0.00  0.00    -0.043 C 
ATOM     26  C   UNL     1      -2.252  -0.385  -2.940  0.00  0.00    -0.076 C 
ATOM     27  C   UNL     1      -4.173   0.235  -1.436  0.00  0.00    -0.027 C 
ATOM     28  C   UNL     1      -3.767  -0.278  -2.794  0.00  0.00    +0.003 C 
ATOM     29  C   UNL     1      -3.695   0.674   0.894  0.00  0.00    +0.033 C 
ATOM     30  C   UNL     1      -5.467   0.745  -1.254  0.00  0.00    +0.035 C 
ATOM     31  C   UNL     1      -4.981   1.191   1.063  0.00  0.00    +0.172 C 
ATOM     32  C   UNL     1      -5.868   1.220  -0.007  0.00  0.00    +0.172 C 
ATOM     33  H   UNL     1      -2.191  -2.017  -1.726  0.00  0.00    -0.084 HD
ATOM     34  H   UNL     1      -0.708  -1.268  -1.968  0.00  0.00    -0.084 HD
BRANCH  31  35
ATOM     35  O   UNL     1      -5.354   1.667   2.284  0.00  0.00    -0.468 OA
ATOM     36  C   UNL     1      -5.107   3.047   2.545  0.00  0.00    +0.253 C 
ENDBRANCH  31  35
BRANCH  32  37
ATOM     37  O   UNL     1      -7.127   1.718   0.147  0.00  0.00    -0.468 OA
ATOM     38  C   UNL     1      -8.145   0.797   0.536  0.00  0.00    +0.253 C 
ENDBRANCH  32  37
ENDBRANCH  22  24
ENDBRANCH   4  22
TORSDOF 7
