REMARK  Name = 5281417
REMARK  8 active torsions:
REMARK  status: ('A' for Active; 'I' for Inactive)
REMARK    1  A    between atoms: C_2  and  O_7
REMARK    2  A    between atoms: C_3  and  O_9
REMARK    3  A    between atoms: C_4  and  O_11
REMARK    4  A    between atoms: C_5  and  C_27
REMARK    5  A    between atoms: C_6  and  O_13
REMARK    6  A    between atoms: O_13  and  C_16
REMARK    7  A    between atoms: C_18  and  O_25
REMARK    8  A    between atoms: C_27  and  O_28
REMARK                            x       y       z     vdW  Elec       q    Type
REMARK                         _______ _______ _______ _____ _____    ______ ____
ROOT
ATOM      1  O   UNL     1       1.753  -0.494   0.489  0.00  0.00    -0.316 OA
ATOM      2  C   UNL     1       4.175   0.414  -0.759  0.00  0.00    +0.173 C 
ATOM      3  C   UNL     1       4.096  -0.901   0.017  0.00  0.00    +0.169 C 
ATOM      4  C   UNL     1       3.066   1.376  -0.333  0.00  0.00    +0.210 C 
ATOM      5  C   UNL     1       2.673  -1.465  -0.014  0.00  0.00    +0.177 C 
ATOM      6  C   UNL     1       1.704   0.681  -0.315  0.00  0.00    +0.318 C 
ENDROOT
BRANCH   2   7
ATOM      7  O   UNL     1       5.447   1.007  -0.494  0.00  0.00    -0.379 OA
ATOM      8  H   UNL     1       6.151   0.397  -0.765  0.00  0.00    +0.211 HD
ENDBRANCH   2   7
BRANCH   3   9
ATOM      9  O   UNL     1       4.990  -1.847  -0.565  0.00  0.00    -0.379 OA
ATOM     10  H   UNL     1       5.892  -1.492  -0.546  0.00  0.00    +0.211 HD
ENDBRANCH   3   9
BRANCH   4  11
ATOM     11  O   UNL     1       3.002   2.463  -1.256  0.00  0.00    -0.377 OA
ATOM     12  H   UNL     1       3.859   2.917  -1.281  0.00  0.00    +0.211 HD
ENDBRANCH   4  11
BRANCH   6  13
ATOM     13  O   UNL     1       0.752   1.596   0.226  0.00  0.00    -0.447 OA
BRANCH  13  16
ATOM     14  O   UNL     1      -4.466  -0.218   0.643  0.00  0.00    -0.421 OA
ATOM     15  O   UNL     1      -6.361  -1.031  -0.355  0.00  0.00    -0.244 OA
ATOM     16  C   UNL     1      -0.537   1.149   0.329  0.00  0.00    +0.175 C 
ATOM     17  C   UNL     1      -1.212   0.752  -0.826  0.00  0.00    +0.043 C 
ATOM     18  C   UNL     1      -1.162   1.091   1.574  0.00  0.00    +0.171 C 
ATOM     19  C   UNL     1      -2.528   0.292  -0.738  0.00  0.00    +0.038 C 
ATOM     20  C   UNL     1      -3.140   0.240   0.512  0.00  0.00    +0.152 C 
ATOM     21  C   UNL     1      -2.474   0.634   1.671  0.00  0.00    +0.077 C 
ATOM     22  C   UNL     1      -3.281  -0.134  -1.905  0.00  0.00    +0.010 C 
ATOM     23  C   UNL     1      -4.537  -0.566  -1.773  0.00  0.00    +0.082 C 
ATOM     24  C   UNL     1      -5.207  -0.630  -0.460  0.00  0.00    +0.346 C 
BRANCH  18  25
ATOM     25  O   UNL     1      -0.501   1.477   2.701  0.00  0.00    -0.503 OA
ATOM     26  H   UNL     1       0.381   1.786   2.644  0.00  0.00    +0.292 HD
ENDBRANCH  18  25
ENDBRANCH  13  16
ENDBRANCH   6  13
BRANCH   5  27
ATOM     27  C   UNL     1       2.542  -2.715   0.851  0.00  0.00    +0.169 C 
BRANCH  27  28
ATOM     28  O   UNL     1       1.204  -3.172   0.783  0.00  0.00    -0.379 OA
ATOM     29  H   UNL     1       1.106  -3.967   1.329  0.00  0.00    +0.211 HD
ENDBRANCH  27  28
ENDBRANCH   5  27
TORSDOF 8
