REMARK  Name = 7618
REMARK  9 active torsions:
REMARK  status: ('A' for Active; 'I' for Inactive)
REMARK    1  A    between atoms: N_1  and  C_3
REMARK    2  A    between atoms: N_1  and  C_7
REMARK    3  A    between atoms: N_1  and  C_11
REMARK    4  A    between atoms: C_3  and  C_4
REMARK    5  A    between atoms: C_4  and  O_5
REMARK    6  A    between atoms: C_7  and  C_8
REMARK    7  A    between atoms: C_8  and  O_9
REMARK    8  A    between atoms: C_11  and  C_12
REMARK    9  A    between atoms: C_12  and  O_13
REMARK                            x       y       z     vdW  Elec       q    Type
REMARK                         _______ _______ _______ _____ _____    ______ ____
ROOT
ATOM      1  N   UNL     1      -0.004   0.006   0.236  0.00  0.00    +0.392 N 
ATOM      2  H   UNL     1       0.004   0.013   1.256  0.00  0.00    -0.079 HD
ENDROOT
BRANCH   1   3
ATOM      3  C   UNL     1      -1.067   0.899  -0.226  0.00  0.00    -0.045 C 
BRANCH   3   4
ATOM      4  C   UNL     1      -2.417   0.442   0.302  0.00  0.00    +0.115 C 
BRANCH   4   5
ATOM      5  O   UNL     1      -3.416   1.345  -0.156  0.00  0.00    -0.384 OA
ATOM      6  H   UNL     1      -4.283   1.063   0.175  0.00  0.00    +0.210 HD
ENDBRANCH   4   5
ENDBRANCH   3   4
ENDBRANCH   1   3
BRANCH   1   7
ATOM      7  C   UNL     1       1.298   0.474  -0.240  0.00  0.00    -0.045 C 
BRANCH   7   8
ATOM      8  C   UNL     1       1.608   1.855   0.315  0.00  0.00    +0.115 C 
BRANCH   8   9
ATOM      9  O   UNL     1       2.885   2.261  -0.158  0.00  0.00    -0.384 OA
ATOM     10  H   UNL     1       3.094   3.142   0.190  0.00  0.00    +0.210 HD
ENDBRANCH   8   9
ENDBRANCH   7   8
ENDBRANCH   1   7
BRANCH   1  11
ATOM     11  C   UNL     1      -0.252  -1.362  -0.217  0.00  0.00    -0.045 C 
BRANCH  11  12
ATOM     12  C   UNL     1       0.827  -2.301   0.296  0.00  0.00    +0.115 C 
BRANCH  12  13
ATOM     13  O   UNL     1       0.537  -3.619  -0.152  0.00  0.00    -0.384 OA
ATOM     14  H   UNL     1       1.220  -4.228   0.170  0.00  0.00    +0.210 HD
ENDBRANCH  12  13
ENDBRANCH  11  12
ENDBRANCH   1  11
TORSDOF 9
