REMARK  Name = 55223
REMARK  7 active torsions:
REMARK  status: ('A' for Active; 'I' for Inactive)
REMARK    1  A    between atoms: O_1  and  C_2
REMARK    2  A    between atoms: O_1  and  C_12
REMARK    3  A    between atoms: C_3  and  C_11
REMARK    4  A    between atoms: C_5  and  O_8
REMARK    5  A    between atoms: C_12  and  C_13
REMARK    6  A    between atoms: C_16  and  C_20
REMARK    7  A    between atoms: C_20  and  O_21
REMARK                            x       y       z     vdW  Elec       q    Type
REMARK                         _______ _______ _______ _____ _____    ______ ____
ROOT
ATOM      1  O   UNL     1       1.040  -0.763  -0.538  0.00  0.00    -0.470 OA
ENDROOT
BRANCH   1   2
ATOM      2  C   UNL     1       2.370  -0.601  -0.251  0.00  0.00    +0.145 C 
ATOM      3  C   UNL     1       2.945   0.665  -0.236  0.00  0.00    +0.110 C 
ATOM      4  C   UNL     1       3.137  -1.729   0.025  0.00  0.00    +0.037 C 
ATOM      5  C   UNL     1       4.302   0.806   0.057  0.00  0.00    +0.140 C 
ATOM      6  C   UNL     1       4.493  -1.588   0.319  0.00  0.00    +0.006 C 
ATOM      7  C   UNL     1       5.076  -0.321   0.335  0.00  0.00    +0.037 C 
BRANCH   5   8
ATOM      8  O   UNL     1       4.891   2.035   0.080  0.00  0.00    -0.505 OA
ATOM      9  H   UNL     1       4.384   2.801  -0.104  0.00  0.00    +0.292 HD
ENDBRANCH   5   8
BRANCH   3  11
ATOM     10  O   UNL     1       0.935   1.782  -0.792  0.00  0.00    -0.283 OA
ATOM     11  C   UNL     1       2.136   1.843  -0.526  0.00  0.00    +0.240 C 
ENDBRANCH   3  11
ENDBRANCH   1   2
BRANCH   1  12
ATOM     12  C   UNL     1       0.237  -1.371   0.467  0.00  0.00    +0.232 C 
BRANCH  12  13
ATOM     13  C   UNL     1      -1.167  -0.880   0.342  0.00  0.00    +0.021 C 
ATOM     14  C   UNL     1      -1.570   0.260   1.036  0.00  0.00    -0.000 C 
ATOM     15  C   UNL     1      -2.074  -1.561  -0.469  0.00  0.00    -0.000 C 
ATOM     16  C   UNL     1      -3.790   0.039   0.109  0.00  0.00    +0.075 C 
ATOM     17  C   UNL     1      -2.882   0.720   0.920  0.00  0.00    +0.006 C 
ATOM     18  C   UNL     1      -3.386  -1.102  -0.585  0.00  0.00    +0.006 C 
BRANCH  16  20
ATOM     19  O   UNL     1      -5.623   1.510   0.557  0.00  0.00    -0.245 OA
ATOM     20  C   UNL     1      -5.159   0.516  -0.011  0.00  0.00    +0.338 C 
BRANCH  20  21
ATOM     21  O   UNL     1      -5.910  -0.260  -0.840  0.00  0.00    -0.477 OA
ATOM     22  H   UNL     1      -5.527  -1.007  -1.256  0.00  0.00    +0.295 HD
ENDBRANCH  20  21
ENDBRANCH  16  20
ENDBRANCH  12  13
ENDBRANCH   1  12
TORSDOF 7
