REMARK  Name = 4417
REMARK  11 active torsions:
REMARK  status: ('A' for Active; 'I' for Inactive)
REMARK    1  A    between atoms: C_1  and  C_3
REMARK    2  A    between atoms: C_1  and  C_13
REMARK    3  A    between atoms: C_1  and  C_19
REMARK    4  A    between atoms: C_3  and  O_4
REMARK    5  A    between atoms: O_4  and  C_5
REMARK    6  A    between atoms: C_5  and  C_6
REMARK    7  A    between atoms: C_6  and  N_7
REMARK    8  A    between atoms: N_7  and  C_9
REMARK    9  A    between atoms: N_7  and  C_11
REMARK   10  A    between atoms: C_13  and  C_15
REMARK   11  A    between atoms: C_19  and  C_20
REMARK                            x       y       z     vdW  Elec       q    Type
REMARK                         _______ _______ _______ _____ _____    ______ ____
ROOT
ATOM      1  C   UNL     1      -0.874  -1.141   0.666  0.00  0.00    +0.106 C 
ENDROOT
BRANCH   1   3
ATOM      2  O   UNL     1       1.367  -1.351   1.591  0.00  0.00    -0.250 OA
ATOM      3  C   UNL     1       0.648  -1.158   0.620  0.00  0.00    +0.317 C 
BRANCH   3   4
ATOM      4  O   UNL     1       1.071  -0.946  -0.661  0.00  0.00    -0.451 OA
BRANCH   4   5
ATOM      5  C   UNL     1       2.489  -0.957  -0.850  0.00  0.00    +0.186 C 
BRANCH   5   6
ATOM      6  C   UNL     1       3.018   0.456  -0.665  0.00  0.00    -0.029 C 
BRANCH   6   7
ATOM      7  N   UNL     1       4.463   0.490  -0.832  0.00  0.00    +0.389 N 
ATOM      8  H   UNL     1       4.705  -0.121  -1.612  0.00  0.00    -0.080 HD
BRANCH   7   9
ATOM      9  C   UNL     1       4.917   1.848  -1.144  0.00  0.00    -0.077 C 
ATOM     10  C   UNL     1       4.612   2.804  -0.004  0.00  0.00    -0.025 C 
ENDBRANCH   7   9
BRANCH   7  11
ATOM     11  C   UNL     1       5.135  -0.003   0.373  0.00  0.00    -0.077 C 
ATOM     12  C   UNL     1       6.643  -0.037   0.186  0.00  0.00    -0.025 C 
ENDBRANCH   7  11
ENDBRANCH   6   7
ENDBRANCH   5   6
ENDBRANCH   4   5
ENDBRANCH   3   4
ENDBRANCH   1   3
BRANCH   1  13
ATOM     13  C   UNL     1      -1.402  -2.511   1.125  0.00  0.00    +0.041 C 
BRANCH  13  15
ATOM     14  O   UNL     1      -1.491  -3.478  -1.090  0.00  0.00    -0.356 OA
ATOM     15  C   UNL     1      -0.941  -3.644   0.228  0.00  0.00    +0.116 C 
ATOM     16  C   UNL     1      -1.390  -5.015   0.704  0.00  0.00    +0.032 C 
ATOM     17  C   UNL     1      -1.400  -5.793  -0.587  0.00  0.00    +0.035 C 
ATOM     18  C   UNL     1      -1.915  -4.763  -1.570  0.00  0.00    +0.142 C 
ENDBRANCH  13  15
ENDBRANCH   1  13
BRANCH   1  19
ATOM     19  C   UNL     1      -1.346  -0.033   1.625  0.00  0.00    +0.038 C 
BRANCH  19  20
ATOM     20  C   UNL     1      -1.310   1.342   1.001  0.00  0.00    -0.022 C 
ATOM     21  C   UNL     1      -2.409   1.875   0.309  0.00  0.00    -0.004 C 
ATOM     22  C   UNL     1      -0.130   2.075   1.137  0.00  0.00    -0.004 C 
ATOM     23  C   UNL     1      -2.311   3.171  -0.253  0.00  0.00    -0.000 C 
ATOM     24  C   UNL     1      -3.604   1.152   0.163  0.00  0.00    -0.000 C 
ATOM     25  C   UNL     1      -0.034   3.349   0.584  0.00  0.00    -0.000 C 
ATOM     26  C   UNL     1      -1.117   3.894  -0.106  0.00  0.00    -0.000 C 
ATOM     27  C   UNL     1      -3.411   3.704  -0.944  0.00  0.00    -0.000 C 
ATOM     28  C   UNL     1      -4.687   1.698  -0.528  0.00  0.00    -0.000 C 
ATOM     29  C   UNL     1      -4.590   2.971  -1.080  0.00  0.00    -0.000 C 
ENDBRANCH  19  20
ENDBRANCH   1  19
TORSDOF 11
