REMARK  Name = 68093
REMARK  6 active torsions:
REMARK  status: ('A' for Active; 'I' for Inactive)
REMARK    1  A    between atoms: C_1  and  O_11
REMARK    2  A    between atoms: C_2  and  C_8
REMARK    3  A    between atoms: C_3  and  O_15
REMARK    4  A    between atoms: C_8  and  O_9
REMARK    5  A    between atoms: O_11  and  C_13
REMARK    6  A    between atoms: O_15  and  C_17
REMARK                            x       y       z     vdW  Elec       q    Type
REMARK                         _______ _______ _______ _____ _____    ______ ____
ROOT
ATOM      1  C   UNL     1       0.188   0.077   0.037  0.00  0.00    +0.189 C 
ATOM      2  C   UNL     1       1.394   0.767   0.163  0.00  0.00    +0.113 C 
ATOM      3  C   UNL     1      -0.937   0.726  -0.473  0.00  0.00    +0.183 C 
ATOM      4  C   UNL     1       1.475   2.106  -0.221  0.00  0.00    +0.010 C 
ATOM      5  C   UNL     1      -0.856   2.065  -0.857  0.00  0.00    +0.041 C 
ATOM      6  C   UNL     1       0.350   2.755  -0.731  0.00  0.00    +0.004 C 
ENDROOT
BRANCH   2   8
ATOM      7  O   UNL     1       2.579  -0.809   1.517  0.00  0.00    -0.245 OA
ATOM      8  C   UNL     1       2.580   0.110   0.694  0.00  0.00    +0.341 C 
BRANCH   8   9
ATOM      9  O   UNL     1       3.731   0.622   0.178  0.00  0.00    -0.477 OA
ATOM     10  H   UNL     1       3.694   1.320  -0.446  0.00  0.00    +0.295 HD
ENDBRANCH   8   9
ENDBRANCH   2   8
BRANCH   1  11
ATOM     11  O   UNL     1       0.102  -1.232   0.410  0.00  0.00    -0.421 OA
BRANCH  11  13
ATOM     12  O   UNL     1       0.704  -1.846  -1.768  0.00  0.00    -0.250 OA
ATOM     13  C   UNL     1       0.395  -2.139  -0.620  0.00  0.00    +0.322 C 
ATOM     14  C   UNL     1       0.273  -3.545  -0.113  0.00  0.00    +0.122 C 
ENDBRANCH  11  13
ENDBRANCH   1  11
BRANCH   3  15
ATOM     15  O   UNL     1      -2.121   0.065  -0.602  0.00  0.00    -0.421 OA
BRANCH  15  17
ATOM     16  O   UNL     1      -2.686   0.741   1.567  0.00  0.00    -0.250 OA
ATOM     17  C   UNL     1      -2.949   0.147   0.530  0.00  0.00    +0.322 C 
ATOM     18  C   UNL     1      -4.221  -0.610   0.290  0.00  0.00    +0.122 C 
ENDBRANCH  15  17
ENDBRANCH   3  15
TORSDOF 6
