REMARK  Name = 68555
REMARK  9 active torsions:
REMARK  status: ('A' for Active; 'I' for Inactive)
REMARK    1  A    between atoms: C_1  and  C_19
REMARK    2  A    between atoms: C_2  and  O_7
REMARK    3  A    between atoms: C_4  and  O_13
REMARK    4  A    between atoms: O_7  and  C_9
REMARK    5  A    between atoms: C_9  and  C_10
REMARK    6  A    between atoms: O_13  and  C_15
REMARK    7  A    between atoms: C_15  and  C_16
REMARK    8  A    between atoms: C_19  and  C_20
REMARK    9  A    between atoms: C_20  and  N_21
REMARK                            x       y       z     vdW  Elec       q    Type
REMARK                         _______ _______ _______ _____ _____    ______ ____
ROOT
ATOM      1  C   UNL     1      -2.246  -0.990  -0.404  0.00  0.00    -0.021 C 
ATOM      2  C   UNL     1      -0.069   0.057  -0.357  0.00  0.00    +0.182 C 
ATOM      3  C   UNL     1      -1.404   0.063  -0.762  0.00  0.00    +0.036 C 
ATOM      4  C   UNL     1       0.391  -1.001   0.396  0.00  0.00    +0.183 C 
ATOM      5  C   UNL     1      -1.754  -2.049   0.359  0.00  0.00    -0.001 C 
ATOM      6  C   UNL     1      -0.419  -2.054   0.764  0.00  0.00    +0.040 C 
ENDROOT
BRANCH   2   7
ATOM      7  O   UNL     1       0.744   1.090  -0.714  0.00  0.00    -0.421 OA
BRANCH   7   9
ATOM      8  O   UNL     1       0.134   2.188   1.258  0.00  0.00    -0.250 OA
ATOM      9  C   UNL     1       0.765   2.153   0.209  0.00  0.00    +0.321 C 
BRANCH   9  10
ATOM     10  C   UNL     1       1.698   3.247  -0.283  0.00  0.00    +0.099 C 
ATOM     11  C   UNL     1       2.321   3.965   0.908  0.00  0.00    +0.012 C 
ATOM     12  C   UNL     1       0.952   4.227  -1.185  0.00  0.00    +0.012 C 
ENDBRANCH   9  10
ENDBRANCH   7   9
ENDBRANCH   2   7
BRANCH   4  13
ATOM     13  O   UNL     1       1.725  -1.019   0.807  0.00  0.00    -0.421 OA
BRANCH  13  15
ATOM     14  O   UNL     1       2.237  -2.147  -1.175  0.00  0.00    -0.250 OA
ATOM     15  C   UNL     1       2.567  -1.650  -0.106  0.00  0.00    +0.321 C 
BRANCH  15  16
ATOM     16  C   UNL     1       3.986  -1.613   0.437  0.00  0.00    +0.099 C 
ATOM     17  C   UNL     1       4.680  -0.337  -0.025  0.00  0.00    +0.012 C 
ATOM     18  C   UNL     1       4.765  -2.850  -0.005  0.00  0.00    +0.012 C 
ENDBRANCH  15  16
ENDBRANCH  13  15
ENDBRANCH   4  13
BRANCH   1  19
ATOM     19  C   UNL     1      -3.673  -0.984  -0.837  0.00  0.00    +0.003 C 
BRANCH  19  20
ATOM     20  C   UNL     1      -4.584  -0.290   0.186  0.00  0.00    -0.077 C 
BRANCH  20  21
ATOM     21  N   UNL     1      -5.980  -0.313  -0.236  0.00  0.00    +0.383 N 
ATOM     22  C   UNL     1      -6.835   0.309   0.765  0.00  0.00    -0.106 C 
ATOM     23  H   UNL     1      -6.273  -1.281  -0.370  0.00  0.00    -0.085 HD
ATOM     24  H   UNL     1      -6.066   0.209  -1.108  0.00  0.00    -0.085 HD
ENDBRANCH  20  21
ENDBRANCH  19  20
ENDBRANCH   1  19
TORSDOF 9
