REMARK  Name = 10219
REMARK  7 active torsions:
REMARK  status: ('A' for Active; 'I' for Inactive)
REMARK    1  A    between atoms: C_2  and  C_22
REMARK    2  A    between atoms: C_3  and  C_20
REMARK    3  A    between atoms: C_13  and  O_16
REMARK    4  A    between atoms: C_14  and  O_18
REMARK    5  A    between atoms: C_22  and  C_24
REMARK    6  A    between atoms: C_31  and  O_35
REMARK    7  A    between atoms: C_32  and  O_37
REMARK                            x       y       z     vdW  Elec       q    Type
REMARK                         _______ _______ _______ _____ _____    ______ ____
ROOT
ATOM      1  N   UNL     1       2.716   2.495  -0.385  0.00  0.00    +0.391 N 
ATOM      2  C   UNL     1      -0.043   1.922   0.379  0.00  0.00    -0.005 C 
ATOM      3  C   UNL     1       0.360   3.253  -0.288  0.00  0.00    -0.021 C 
ATOM      4  C   UNL     1       2.426   1.248   0.365  0.00  0.00    -0.035 C 
ATOM      5  C   UNL     1       0.979   0.824   0.032  0.00  0.00    -0.017 C 
ATOM      6  C   UNL     1       1.828   3.587   0.030  0.00  0.00    -0.077 C 
ATOM      7  C   UNL     1       4.121   2.883  -0.232  0.00  0.00    -0.072 C 
ATOM      8  C   UNL     1       3.442   0.139   0.086  0.00  0.00    -0.042 C 
ATOM      9  C   UNL     1       5.001   1.853  -0.935  0.00  0.00    +0.003 C 
ATOM     10  C   UNL     1       4.681   0.445  -0.512  0.00  0.00    -0.027 C 
ATOM     11  C   UNL     1       3.210  -1.184   0.497  0.00  0.00    +0.033 C 
ATOM     12  C   UNL     1       5.617  -0.572  -0.754  0.00  0.00    +0.035 C 
ATOM     13  C   UNL     1       4.153  -2.187   0.263  0.00  0.00    +0.172 C 
ATOM     14  C   UNL     1       5.353  -1.883  -0.370  0.00  0.00    +0.172 C 
ATOM     15  H   UNL     1       2.542   2.308  -1.372  0.00  0.00    -0.079 HD
ENDROOT
BRANCH  13  16
ATOM     16  O   UNL     1       3.887  -3.462   0.666  0.00  0.00    -0.468 OA
ATOM     17  C   UNL     1       4.293  -3.823   1.984  0.00  0.00    +0.253 C 
ENDBRANCH  13  16
BRANCH  14  18
ATOM     18  O   UNL     1       6.279  -2.853  -0.608  0.00  0.00    -0.468 OA
ATOM     19  C   UNL     1       6.184  -3.549  -1.849  0.00  0.00    +0.253 C 
ENDBRANCH  14  18
BRANCH   3  20
ATOM     20  C   UNL     1      -0.535   4.418   0.145  0.00  0.00    -0.002 C 
ATOM     21  C   UNL     1      -0.184   5.688  -0.603  0.00  0.00    -0.000 C 
ENDBRANCH   3  20
BRANCH   2  22
ATOM     22  C   UNL     1      -1.448   1.464  -0.022  0.00  0.00    -0.017 C 
BRANCH  22  24
ATOM     23  N   UNL     1      -1.693   0.505   2.174  0.00  0.00    +0.388 N 
ATOM     24  C   UNL     1      -1.859   0.199   0.740  0.00  0.00    -0.039 C 
ATOM     25  C   UNL     1      -3.258  -0.286   0.386  0.00  0.00    -0.043 C 
ATOM     26  C   UNL     1      -2.203  -0.577   3.009  0.00  0.00    -0.076 C 
ATOM     27  C   UNL     1      -4.132  -0.732   1.399  0.00  0.00    -0.027 C 
ATOM     28  C   UNL     1      -3.717  -0.676   2.847  0.00  0.00    +0.003 C 
ATOM     29  C   UNL     1      -3.680  -0.375  -0.950  0.00  0.00    +0.033 C 
ATOM     30  C   UNL     1      -5.415  -1.192   1.069  0.00  0.00    +0.035 C 
ATOM     31  C   UNL     1      -4.955  -0.847  -1.270  0.00  0.00    +0.172 C 
ATOM     32  C   UNL     1      -5.824  -1.248  -0.261  0.00  0.00    +0.172 C 
ATOM     33  H   UNL     1      -2.203   1.361   2.392  0.00  0.00    -0.084 HD
ATOM     34  H   UNL     1      -0.698   0.619   2.366  0.00  0.00    -0.084 HD
BRANCH  31  35
ATOM     35  O   UNL     1      -5.335  -0.911  -2.577  0.00  0.00    -0.468 OA
ATOM     36  C   UNL     1      -5.057  -2.124  -3.274  0.00  0.00    +0.253 C 
ENDBRANCH  31  35
BRANCH  32  37
ATOM     37  O   UNL     1      -7.072  -1.705  -0.560  0.00  0.00    -0.468 OA
ATOM     38  C   UNL     1      -8.119  -0.738  -0.622  0.00  0.00    +0.253 C 
ENDBRANCH  32  37
ENDBRANCH  22  24
ENDBRANCH   2  22
TORSDOF 7
