REMARK  Name = 68933
REMARK  3 active torsions:
REMARK  status: ('A' for Active; 'I' for Inactive)
REMARK    1  A    between atoms: S_1  and  N_4
REMARK    2  A    between atoms: S_1  and  C_13
REMARK    3  A    between atoms: C_16  and  N_19
REMARK                            x       y       z     vdW  Elec       q    Type
REMARK                         _______ _______ _______ _____ _____    ______ ____
ROOT
ATOM      1  S   UNL     1      -0.696  -2.221   0.186  0.00  0.00    +0.081 S 
ATOM      2  O   UNL     1      -1.574  -3.174  -0.482  0.00  0.00    -0.149 OA
ATOM      3  O   UNL     1      -0.268  -2.498   1.552  0.00  0.00    -0.149 OA
ENDROOT
BRANCH   1   4
ATOM      4  N   UNL     1       0.687  -1.976  -0.813  0.00  0.00    -0.158 N 
ATOM      5  N   UNL     1       1.560   0.125  -1.438  0.00  0.00    -0.180 NA
ATOM      6  N   UNL     1       2.223  -0.918   0.631  0.00  0.00    -0.202 NA
ATOM      7  C   UNL     1       1.541  -0.856  -0.523  0.00  0.00    +0.106 C 
ATOM      8  C   UNL     1       3.129   1.226   0.018  0.00  0.00    +0.001 C 
ATOM      9  C   UNL     1       2.371   1.159  -1.133  0.00  0.00    +0.104 C 
ATOM     10  C   UNL     1       3.014   0.148   0.872  0.00  0.00    +0.161 C 
ATOM     11  C   UNL     1       4.009   2.381   0.318  0.00  0.00    +0.030 C 
ATOM     12  H   UNL     1       0.886  -2.585  -1.560  0.00  0.00    +0.186 HD
ENDBRANCH   1   4
BRANCH   1  13
ATOM     13  C   UNL     1      -1.479  -0.661   0.151  0.00  0.00    +0.126 C 
ATOM     14  C   UNL     1      -2.430  -0.380  -0.829  0.00  0.00    +0.021 C 
ATOM     15  C   UNL     1      -1.154   0.304   1.105  0.00  0.00    +0.021 C 
ATOM     16  C   UNL     1      -2.732   1.831   0.097  0.00  0.00    +0.042 C 
ATOM     17  C   UNL     1      -3.057   0.867  -0.857  0.00  0.00    +0.015 C 
ATOM     18  C   UNL     1      -1.780   1.550   1.077  0.00  0.00    +0.015 C 
BRANCH  16  19
ATOM     19  N   UNL     1      -3.365   3.091   0.069  0.00  0.00    -0.357 N 
ATOM     20  H   UNL     1      -4.036   3.290  -0.623  0.00  0.00    +0.142 HD
ATOM     21  H   UNL     1      -3.135   3.772   0.742  0.00  0.00    +0.142 HD
ENDBRANCH  16  19
ENDBRANCH   1  13
TORSDOF 3
