REMARK  Name = 22530
REMARK  2 active torsions:
REMARK  status: ('A' for Active; 'I' for Inactive)
REMARK    1  A    between atoms: N_1  and  C_16
REMARK    2  A    between atoms: C_16  and  C_17
REMARK                            x       y       z     vdW  Elec       q    Type
REMARK                         _______ _______ _______ _____ _____    ______ ____
ROOT
ATOM      1  N   UNL     1       0.069   0.243   0.876  0.00  0.00    -0.327 N 
ATOM      2  N   UNL     1      -2.918  -2.161  -0.592  0.00  0.00    +0.388 N 
ATOM      3  C   UNL     1      -0.914  -0.653   0.582  0.00  0.00    +0.029 A 
ATOM      4  C   UNL     1      -1.937   0.003  -0.066  0.00  0.00    -0.030 A 
ATOM      5  C   UNL     1      -0.887  -2.107   0.873  0.00  0.00    +0.021 C 
ATOM      6  C   UNL     1      -3.177  -0.702  -0.505  0.00  0.00    -0.049 C 
ATOM      7  C   UNL     1      -2.300  -2.692   0.645  0.00  0.00    -0.071 C 
ATOM      8  C   UNL     1      -1.563   1.372  -0.165  0.00  0.00    +0.011 A 
ATOM      9  C   UNL     1      -0.302   1.495   0.431  0.00  0.00    +0.060 A 
ATOM     10  C   UNL     1      -2.173   2.525  -0.701  0.00  0.00    +0.001 C 
ATOM     11  C   UNL     1       0.377   2.716   0.513  0.00  0.00    +0.017 C 
ATOM     12  C   UNL     1      -4.161  -2.872  -0.890  0.00  0.00    -0.100 C 
ATOM     13  C   UNL     1      -1.504   3.751  -0.625  0.00  0.00    +0.000 C 
ATOM     14  C   UNL     1      -0.249   3.843  -0.028  0.00  0.00    +0.001 C 
ATOM     15  H   UNL     1      -2.252  -2.312  -1.349  0.00  0.00    -0.079 HD
ENDROOT
BRANCH   1  16
ATOM     16  C   UNL     1       1.310  -0.066   1.556  0.00  0.00    +0.132 C 
BRANCH  16  17
ATOM     17  C   UNL     1       2.392  -0.439   0.580  0.00  0.00    +0.000 C 
ATOM     18  C   UNL     1       3.215   0.550   0.059  0.00  0.00    -0.002 C 
ATOM     19  C   UNL     1       2.554  -1.768   0.213  0.00  0.00    -0.002 C 
ATOM     20  C   UNL     1       4.219   0.204  -0.845  0.00  0.00    -0.000 C 
ATOM     21  C   UNL     1       3.558  -2.115  -0.691  0.00  0.00    -0.000 C 
ATOM     22  C   UNL     1       4.391  -1.128  -1.220  0.00  0.00    -0.000 C 
ENDBRANCH  16  17
ENDBRANCH   1  16
TORSDOF 2
