REMARK  Name = 10473088
REMARK  17 active torsions:
REMARK  status: ('A' for Active; 'I' for Inactive)
REMARK    1  A    between atoms: C_1  and  C_17
REMARK    2  A    between atoms: C_2  and  C_4
REMARK    3  A    between atoms: C_3  and  C_6
REMARK    4  A    between atoms: C_5  and  C_7
REMARK    5  A    between atoms: C_7  and  O_8
REMARK    6  A    between atoms: C_7  and  C_10
REMARK    7  A    between atoms: C_10  and  C_11
REMARK    8  A    between atoms: C_11  and  C_12
REMARK    9  A    between atoms: C_12  and  C_14
REMARK   10  A    between atoms: C_14  and  O_15
REMARK   11  A    between atoms: C_17  and  O_18
REMARK   12  A    between atoms: C_17  and  C_20
REMARK   13  A    between atoms: C_20  and  C_21
REMARK   14  A    between atoms: C_22  and  C_24
REMARK   15  A    between atoms: C_23  and  C_25
REMARK   16  A    between atoms: C_25  and  O_26
REMARK   17  A    between atoms: C_25  and  C_28
REMARK                            x       y       z     vdW  Elec       q    Type
REMARK                         _______ _______ _______ _____ _____    ______ ____
ROOT
ATOM      1  C   UNL     1      -3.907  -1.395  -0.081  0.00  0.00    +0.003 C 
ATOM      2  C   UNL     1      -2.635  -1.659   0.261  0.00  0.00    -0.002 C 
ENDROOT
BRANCH   2   4
ATOM      3  C   UNL     1      -0.273  -2.036  -0.473  0.00  0.00    -0.000 C 
ATOM      4  C   UNL     1      -1.569  -1.776  -0.711  0.00  0.00    -0.000 C 
BRANCH   3   6
ATOM      5  C   UNL     1       2.065  -2.416  -1.105  0.00  0.00    +0.003 C 
ATOM      6  C   UNL     1       0.793  -2.153  -1.446  0.00  0.00    -0.002 C 
BRANCH   5   7
ATOM      7  C   UNL     1       2.614  -2.633   0.285  0.00  0.00    +0.132 C 
BRANCH   7   8
ATOM      8  O   UNL     1       3.651  -3.615   0.225  0.00  0.00    -0.380 OA
ATOM      9  H   UNL     1       4.010  -3.761   1.114  0.00  0.00    +0.211 HD
ENDBRANCH   7   8
BRANCH   7  10
ATOM     10  C   UNL     1       3.167  -1.421   1.054  0.00  0.00    +0.034 C 
BRANCH  10  11
ATOM     11  C   UNL     1       4.329  -0.699   0.353  0.00  0.00    +0.014 C 
BRANCH  11  12
ATOM     12  C   UNL     1       4.831   0.500   1.153  0.00  0.00    +0.109 C 
BRANCH  12  14
ATOM     13  O   UNL     1       6.381   0.923  -0.652  0.00  0.00    -0.250 OA
ATOM     14  C   UNL     1       5.915   1.260   0.429  0.00  0.00    +0.314 C 
BRANCH  14  15
ATOM     15  O   UNL     1       6.318   2.365   1.103  0.00  0.00    -0.480 OA
ATOM     16  H   UNL     1       5.928   2.578   1.928  0.00  0.00    +0.295 HD
ENDBRANCH  14  15
ENDBRANCH  12  14
ENDBRANCH  11  12
ENDBRANCH  10  11
ENDBRANCH   7  10
ENDBRANCH   5   7
ENDBRANCH   3   6
ENDBRANCH   2   4
BRANCH   1  17
ATOM     17  C   UNL     1      -5.076  -1.284   0.868  0.00  0.00    +0.137 C 
BRANCH  17  18
ATOM     18  O   UNL     1      -6.284  -1.755   0.273  0.00  0.00    -0.380 OA
ATOM     19  H   UNL     1      -7.012  -1.669   0.908  0.00  0.00    +0.211 HD
ENDBRANCH  17  18
BRANCH  17  20
ATOM     20  C   UNL     1      -5.284   0.145   1.399  0.00  0.00    +0.060 C 
BRANCH  20  21
ATOM     21  C   UNL     1      -5.575   1.153   0.319  0.00  0.00    -0.023 C 
ATOM     22  C   UNL     1      -4.629   1.892  -0.281  0.00  0.00    -0.005 C 
BRANCH  22  24
ATOM     23  C   UNL     1      -2.230   2.527  -0.536  0.00  0.00    +0.003 C 
ATOM     24  C   UNL     1      -3.220   1.817   0.027  0.00  0.00    -0.003 C 
BRANCH  23  25
ATOM     25  C   UNL     1      -0.761   2.450  -0.215  0.00  0.00    +0.132 C 
BRANCH  25  26
ATOM     26  O   UNL     1      -0.333   3.707   0.310  0.00  0.00    -0.380 OA
ATOM     27  H   UNL     1       0.613   3.664   0.520  0.00  0.00    +0.211 HD
ENDBRANCH  25  26
BRANCH  25  28
ATOM     28  C   UNL     1       0.110   2.095  -1.426  0.00  0.00    +0.034 C 
ATOM     29  C   UNL     1       1.603   2.008  -1.134  0.00  0.00    +0.003 C 
ENDBRANCH  25  28
ENDBRANCH  23  25
ENDBRANCH  22  24
ENDBRANCH  20  21
ENDBRANCH  17  20
ENDBRANCH   1  17
TORSDOF 17
