REMARK  Name = 176265
REMARK  2 active torsions:
REMARK  status: ('A' for Active; 'I' for Inactive)
REMARK    1  A    between atoms: C_1  and  N_8
REMARK    2  A    between atoms: C_1  and  C_16
REMARK                            x       y       z     vdW  Elec       q    Type
REMARK                         _______ _______ _______ _____ _____    ______ ____
ROOT
ATOM      1  C   UNL     1       0.420  -0.433  -0.137  0.00  0.00    -0.017 C 
ATOM      2  C   UNL     1       1.178  -1.121   1.062  0.00  0.00    -0.013 C 
ATOM      3  C   UNL     1       1.009  -0.979  -1.471  0.00  0.00    -0.014 C 
ATOM      4  C   UNL     1       2.701  -0.919   0.936  0.00  0.00    -0.002 C 
ATOM      5  C   UNL     1       2.533  -0.848  -1.581  0.00  0.00    -0.002 C 
ATOM      6  C   UNL     1       3.259  -1.444  -0.382  0.00  0.00    -0.000 C 
ATOM      7  C   UNL     1       0.860  -2.621   1.228  0.00  0.00    -0.002 C 
ENDROOT
BRANCH   1   8
ATOM      8  N   UNL     1      -0.988  -0.829  -0.126  0.00  0.00    +0.392 N 
ATOM      9  C   UNL     1      -1.633  -0.401   1.124  0.00  0.00    -0.077 C 
ATOM     10  C   UNL     1      -1.686  -0.281  -1.298  0.00  0.00    -0.077 C 
ATOM     11  C   UNL     1      -3.094  -0.851   1.173  0.00  0.00    -0.023 C 
ATOM     12  C   UNL     1      -3.149  -0.727  -1.328  0.00  0.00    -0.023 C 
ATOM     13  C   UNL     1      -3.870  -0.348  -0.039  0.00  0.00    -0.004 C 
ATOM     14  H   UNL     1      -1.043  -1.847  -0.175  0.00  0.00    -0.079 HD
ENDBRANCH   1   8
BRANCH   1  16
ATOM     15  S   UNL     1       0.600   1.834   1.530  0.00  0.00    -0.093 S 
ATOM     16  C   UNL     1       0.456   1.125  -0.015  0.00  0.00    -0.011 C 
ATOM     17  C   UNL     1       0.385   2.053  -1.021  0.00  0.00    +0.001 C 
ATOM     18  C   UNL     1       0.450   3.383  -0.514  0.00  0.00    +0.007 C 
ATOM     19  C   UNL     1       0.569   3.408   0.858  0.00  0.00    +0.035 C 
ENDBRANCH   1  16
TORSDOF 2
