REMARK  Name = 123868
REMARK  4 active torsions:
REMARK  status: ('A' for Active; 'I' for Inactive)
REMARK    1  A    between atoms: N_1  and  N_3
REMARK    2  A    between atoms: N_1  and  C_7
REMARK    3  A    between atoms: C_7  and  C_8
REMARK    4  A    between atoms: C_8  and  C_11
REMARK                            x       y       z     vdW  Elec       q    Type
REMARK                         _______ _______ _______ _____ _____    ______ ____
ROOT
ATOM      1  N   UNL     1       0.960  -0.697   0.035  0.00  0.00    -0.352 NA
ATOM      2  H   UNL     1       0.945  -1.262   0.883  0.00  0.00    +0.103 HD
ENDROOT
BRANCH   1   3
ATOM      3  N   UNL     1       2.213   0.023   0.001  0.00  0.00    +0.392 N 
ATOM      4  C   UNL     1       3.277  -1.065  -0.053  0.00  0.00    -0.071 C 
ATOM      5  C   UNL     1       2.370   0.842   1.264  0.00  0.00    -0.071 C 
ATOM      6  C   UNL     1       2.282   0.865  -1.254  0.00  0.00    -0.071 C 
ENDBRANCH   1   3
BRANCH   1   7
ATOM      7  C   UNL     1      -0.241   0.132   0.025  0.00  0.00    +0.064 C 
BRANCH   7   8
ATOM      8  C   UNL     1      -1.489  -0.741  -0.014  0.00  0.00    +0.129 C 
BRANCH   8  11
ATOM      9  O   UNL     1      -3.870  -0.668   0.013  0.00  0.00    -0.246 OA
ATOM     10  O   UNL     1      -2.685   1.283  -0.013  0.00  0.00    -0.246 OA
ATOM     11  C   UNL     1      -2.817   0.025  -0.004  0.00  0.00    +0.366 C 
ENDBRANCH   8  11
ENDBRANCH   7   8
ENDBRANCH   1   7
TORSDOF 4
