4134
  -OEChem-10061700003D

 53 54  0     0  0  0  0  0  0999 V2000
    0.8437   -0.1946    0.4230 O   0  0  0  0  0  0  0  0  0  0  0  0
   -1.3248   -0.3675    1.9725 O   0  0  0  0  0  0  0  0  0  0  0  0
   -0.2628   -1.9049   -0.6442 O   0  0  0  0  0  0  0  0  0  0  0  0
    4.5406   -0.3866   -0.0475 N   0  3  0  0  0  0  0  0  0  0  0  0
    3.2176    0.1572    0.4721 C   0  0  0  0  0  0  0  0  0  0  0  0
    4.7509   -1.7988    0.4795 C   0  0  0  0  0  0  0  0  0  0  0  0
    5.6775    0.5067    0.4275 C   0  0  0  0  0  0  0  0  0  0  0  0
    4.5166   -0.4114   -1.5690 C   0  0  0  0  0  0  0  0  0  0  0  0
    2.0855   -0.7179   -0.0290 C   0  0  0  0  0  0  0  0  0  0  0  0
    6.0675   -2.3336   -0.0402 C   0  0  0  0  0  0  0  0  0  0  0  0
    5.4629    1.9088   -0.0994 C   0  0  0  0  0  0  0  0  0  0  0  0
   -1.5454   -0.2014    0.5569 C   0  0  0  0  0  0  0  0  0  0  0  0
   -0.2789   -0.8902    0.0424 C   0  0  0  0  0  0  0  0  0  0  0  0
   -1.5875    1.2896    0.2144 C   0  0  0  0  0  0  0  0  0  0  0  0
   -2.8445   -0.8943    0.1387 C   0  0  0  0  0  0  0  0  0  0  0  0
   -2.0809    2.1670    1.1523 C   0  0  0  0  0  0  0  0  0  0  0  0
   -3.2050   -0.8712   -1.1888 C   0  0  0  0  0  0  0  0  0  0  0  0
   -1.1298    1.6954   -1.0180 C   0  0  0  0  0  0  0  0  0  0  0  0
   -3.6013   -1.5140    1.1061 C   0  0  0  0  0  0  0  0  0  0  0  0
   -2.1190    3.5260    0.8403 C   0  0  0  0  0  0  0  0  0  0  0  0
   -4.3887   -1.5028   -1.5703 C   0  0  0  0  0  0  0  0  0  0  0  0
   -1.1679    3.0545   -1.3299 C   0  0  0  0  0  0  0  0  0  0  0  0
   -4.7850   -2.1458    0.7247 C   0  0  0  0  0  0  0  0  0  0  0  0
   -1.6626    3.9698   -0.4006 C   0  0  0  0  0  0  0  0  0  0  0  0
   -5.1787   -2.1401   -0.6136 C   0  0  0  0  0  0  0  0  0  0  0  0
    3.0559    1.1738    0.1033 H   0  0  0  0  0  0  0  0  0  0  0  0
    3.2552    0.1856    1.5674 H   0  0  0  0  0  0  0  0  0  0  0  0
    3.9586   -2.4532    0.1108 H   0  0  0  0  0  0  0  0  0  0  0  0
    4.7288   -1.7676    1.5743 H   0  0  0  0  0  0  0  0  0  0  0  0
    5.7003    0.4849    1.5226 H   0  0  0  0  0  0  0  0  0  0  0  0
    6.6250    0.1338    0.0310 H   0  0  0  0  0  0  0  0  0  0  0  0
    3.9692    0.4602   -1.9422 H   0  0  0  0  0  0  0  0  0  0  0  0
    5.5411   -0.3865   -1.9537 H   0  0  0  0  0  0  0  0  0  0  0  0
    4.0215   -1.3250   -1.9137 H   0  0  0  0  0  0  0  0  0  0  0  0
    2.0466   -0.7571   -1.1215 H   0  0  0  0  0  0  0  0  0  0  0  0
    2.1494   -1.7334    0.3682 H   0  0  0  0  0  0  0  0  0  0  0  0
    6.1446   -3.3907    0.2436 H   0  0  0  0  0  0  0  0  0  0  0  0
    6.1687   -2.3085   -1.1276 H   0  0  0  0  0  0  0  0  0  0  0  0
    6.9363   -1.8515    0.4155 H   0  0  0  0  0  0  0  0  0  0  0  0
    6.3535    2.5040    0.1384 H   0  0  0  0  0  0  0  0  0  0  0  0
    5.3424    1.9727   -1.1831 H   0  0  0  0  0  0  0  0  0  0  0  0
    4.6344    2.4288    0.3885 H   0  0  0  0  0  0  0  0  0  0  0  0
   -2.4547    1.8418    2.1178 H   0  0  0  0  0  0  0  0  0  0  0  0
   -2.6002   -0.4057   -1.9578 H   0  0  0  0  0  0  0  0  0  0  0  0
   -0.7371    1.0046   -1.7569 H   0  0  0  0  0  0  0  0  0  0  0  0
   -3.3289   -1.5379    2.1555 H   0  0  0  0  0  0  0  0  0  0  0  0
   -0.6128    0.2347    2.2504 H   0  0  0  0  0  0  0  0  0  0  0  0
   -2.5074    4.2384    1.5623 H   0  0  0  0  0  0  0  0  0  0  0  0
   -4.6926   -1.5035   -2.6130 H   0  0  0  0  0  0  0  0  0  0  0  0
   -0.8118    3.4004   -2.2959 H   0  0  0  0  0  0  0  0  0  0  0  0
   -5.4007   -2.6422    1.4691 H   0  0  0  0  0  0  0  0  0  0  0  0
   -1.6929    5.0279   -0.6438 H   0  0  0  0  0  0  0  0  0  0  0  0
   -6.0997   -2.6331   -0.9108 H   0  0  0  0  0  0  0  0  0  0  0  0
  1  9  1  0  0  0  0
  1 13  1  0  0  0  0
  2 12  1  0  0  0  0
  2 47  1  0  0  0  0
  3 13  2  0  0  0  0
  4  5  1  0  0  0  0
  4  6  1  0  0  0  0
  4  7  1  0  0  0  0
  4  8  1  0  0  0  0
  5  9  1  0  0  0  0
  5 26  1  0  0  0  0
  5 27  1  0  0  0  0
  6 10  1  0  0  0  0
  6 28  1  0  0  0  0
  6 29  1  0  0  0  0
  7 11  1  0  0  0  0
  7 30  1  0  0  0  0
  7 31  1  0  0  0  0
  8 32  1  0  0  0  0
  8 33  1  0  0  0  0
  8 34  1  0  0  0  0
  9 35  1  0  0  0  0
  9 36  1  0  0  0  0
 10 37  1  0  0  0  0
 10 38  1  0  0  0  0
 10 39  1  0  0  0  0
 11 40  1  0  0  0  0
 11 41  1  0  0  0  0
 11 42  1  0  0  0  0
 12 13  1  0  0  0  0
 12 14  1  0  0  0  0
 12 15  1  0  0  0  0
 14 16  2  0  0  0  0
 14 18  1  0  0  0  0
 15 17  2  0  0  0  0
 15 19  1  0  0  0  0
 16 20  1  0  0  0  0
 16 43  1  0  0  0  0
 17 21  1  0  0  0  0
 17 44  1  0  0  0  0
 18 22  2  0  0  0  0
 18 45  1  0  0  0  0
 19 23  2  0  0  0  0
 19 46  1  0  0  0  0
 20 24  2  0  0  0  0
 20 48  1  0  0  0  0
 21 25  2  0  0  0  0
 21 49  1  0  0  0  0
 22 24  1  0  0  0  0
 22 50  1  0  0  0  0
 23 25  1  0  0  0  0
 23 51  1  0  0  0  0
 24 52  1  0  0  0  0
 25 53  1  0  0  0  0
M  CHG  1   4   1
M  END
> <DATABASE_ID>
DB13181

> <DATABASE_NAME>
drugbank

> <ORIGINAL_SOURCE>
PUBCHEM

> <ORIGINAL_SOURCE_URL>
https://pubchem.ncbi.nlm.nih.gov/rest/pug/compound/inchikey/HDAMOICMOAXFLJ-UHFFFAOYSA-N/SDF?record_type=3d

> <SMILES>
CC[N+](C)(CC)CCOC(=O)C(O)(C1=CC=CC=C1)C1=CC=CC=C1

> <INCHI_IDENTIFIER>
InChI=1S/C21H28NO3/c1-4-22(3,5-2)16-17-25-20(23)21(24,18-12-8-6-9-13-18)19-14-10-7-11-15-19/h6-15,24H,4-5,16-17H2,1-3H3/q+1

> <INCHI_KEY>
HDAMOICMOAXFLJ-UHFFFAOYSA-N

> <FORMULA>
C21H28NO3

> <MOLECULAR_WEIGHT>
342.458

> <EXACT_MASS>
342.206370186

> <JCHEM_ACCEPTOR_COUNT>
2

> <JCHEM_ATOM_COUNT>
53

> <JCHEM_AVERAGE_POLARIZABILITY>
38.74240026560335

> <JCHEM_BIOAVAILABILITY>
1

> <JCHEM_DONOR_COUNT>
1

> <JCHEM_FORMAL_CHARGE>
1

> <JCHEM_GHOSE_FILTER>
0

> <JCHEM_IUPAC>
diethyl({2-[(2-hydroxy-2,2-diphenylacetyl)oxy]ethyl})methylazanium

> <ALOGPS_LOGP>
-0.18

> <JCHEM_LOGP>
-0.7266350408050785

> <ALOGPS_LOGS>
-5.82

> <JCHEM_MDDR_LIKE_RULE>
0

> <JCHEM_NUMBER_OF_RINGS>
2

> <JCHEM_PHYSIOLOGICAL_CHARGE>
1

> <JCHEM_PKA_STRONGEST_ACIDIC>
11.04880279726734

> <JCHEM_PKA_STRONGEST_BASIC>
-4.527053656475265

> <JCHEM_POLAR_SURFACE_AREA>
46.53

> <JCHEM_REFRACTIVITY>
111.6811

> <JCHEM_ROTATABLE_BOND_COUNT>
9

> <JCHEM_RULE_OF_FIVE>
1

> <ALOGPS_SOLUBILITY>
5.70e-04 g/l

> <JCHEM_TRADITIONAL_IUPAC>
diethyl({2-[(2-hydroxy-2,2-diphenylacetyl)oxy]ethyl})methylazanium

> <JCHEM_VEBER_RULE>
0

> <DRUGBANK_ID>
DB13181

> <DRUG_GROUPS>
experimental

> <GENERIC_NAME>
Methylbenactyzium

> <SALTS>
Methylbenactyzium bromide

$$$$
