REMARK  Name = 8590
REMARK  8 active torsions:
REMARK  status: ('A' for Active; 'I' for Inactive)
REMARK    1  A    between atoms: C_4  and  C_6
REMARK    2  A    between atoms: C_5  and  C_15
REMARK    3  A    between atoms: C_6  and  C_7
REMARK    4  A    between atoms: C_6  and  C_13
REMARK    5  A    between atoms: C_15  and  C_16
REMARK    6  A    between atoms: C_16  and  N_17
REMARK    7  A    between atoms: N_17  and  C_19
REMARK    8  A    between atoms: N_17  and  C_21
REMARK                            x       y       z     vdW  Elec       q    Type
REMARK                         _______ _______ _______ _____ _____    ______ ____
ROOT
ATOM      1  O   UNL     1       0.572  -0.965   1.826  0.00  0.00    -0.316 OA
ATOM      2  N   UNL     1      -0.199  -0.105  -0.093  0.00  0.00    -0.317 NA
ATOM      3  N   UNL     1      -0.687  -1.542   1.619  0.00  0.00    -0.011 NA
ATOM      4  C   UNL     1      -1.077  -0.986   0.468  0.00  0.00    +0.107 C 
ATOM      5  C   UNL     1       0.748  -0.152   0.773  0.00  0.00    +0.291 C 
ENDROOT
BRANCH   4   6
ATOM      6  C   UNL     1      -2.369  -1.303  -0.149  0.00  0.00    +0.123 C 
BRANCH   6   7
ATOM      7  C   UNL     1      -3.215  -0.019  -0.110  0.00  0.00    -0.008 C 
ATOM      8  C   UNL     1      -3.857   0.302   1.060  0.00  0.00    -0.003 C 
ATOM      9  C   UNL     1      -3.289   0.747  -1.246  0.00  0.00    -0.003 C 
ATOM     10  C   UNL     1      -4.624   1.467   1.095  0.00  0.00    -0.000 C 
ATOM     11  C   UNL     1      -4.056   1.912  -1.210  0.00  0.00    -0.000 C 
ATOM     12  C   UNL     1      -4.723   2.272  -0.039  0.00  0.00    -0.000 C 
ENDBRANCH   6   7
BRANCH   6  13
ATOM     13  C   UNL     1      -2.313  -1.961  -1.566  0.00  0.00    +0.020 C 
ATOM     14  C   UNL     1      -1.454  -3.220  -1.574  0.00  0.00    +0.001 C 
ENDBRANCH   6  13
ENDBRANCH   4   6
BRANCH   5  15
ATOM     15  C   UNL     1       2.055   0.601   0.761  0.00  0.00    +0.080 C 
BRANCH  15  16
ATOM     16  C   UNL     1       3.147  -0.188   0.035  0.00  0.00    -0.066 C 
BRANCH  16  17
ATOM     17  N   UNL     1       4.416   0.537   0.047  0.00  0.00    +0.387 N 
ATOM     18  H   UNL     1       4.686   0.701   1.017  0.00  0.00    -0.080 HD
BRANCH  17  19
ATOM     19  C   UNL     1       5.463  -0.253  -0.598  0.00  0.00    -0.077 C 
ATOM     20  C   UNL     1       5.628  -1.603   0.080  0.00  0.00    -0.025 C 
ENDBRANCH  17  19
BRANCH  17  21
ATOM     21  C   UNL     1       4.271   1.832  -0.617  0.00  0.00    -0.077 C 
ATOM     22  C   UNL     1       5.564   2.627  -0.560  0.00  0.00    -0.025 C 
ENDBRANCH  17  21
ENDBRANCH  16  17
ENDBRANCH  15  16
ENDBRANCH   5  15
TORSDOF 8
