REMARK  Name = 17507
REMARK  3 active torsions:
REMARK  status: ('A' for Active; 'I' for Inactive)
REMARK    1  A    between atoms: C_1  and  S_7
REMARK    2  A    between atoms: C_2  and  O_11
REMARK    3  A    between atoms: C_4  and  O_13
REMARK                            x       y       z     vdW  Elec       q    Type
REMARK                         _______ _______ _______ _____ _____    ______ ____
ROOT
ATOM      1  C   UNL     1       0.230  -0.068  -0.041  0.00  0.00    +0.149 C 
ATOM      2  C   UNL     1      -0.111   1.284  -0.005  0.00  0.00    +0.151 C 
ATOM      3  C   UNL     1      -0.770  -1.039  -0.037  0.00  0.00    +0.059 C 
ATOM      4  C   UNL     1      -2.112  -0.659   0.001  0.00  0.00    +0.135 C 
ATOM      5  C   UNL     1      -1.453   1.665   0.034  0.00  0.00    +0.041 C 
ATOM      6  C   UNL     1      -2.453   0.693   0.037  0.00  0.00    +0.040 C 
ENDROOT
BRANCH   1   7
ATOM      7  S   UNL     1       1.905  -0.570  -0.089  0.00  0.00    +0.045 S 
ATOM      8  O   UNL     1       2.502  -0.206   1.387  0.00  0.00    -0.065 OA
ATOM      9  O   UNL     1       1.933  -2.019  -0.215  0.00  0.00    -0.065 OA
ATOM     10  O   UNL     1       2.569   0.275  -1.068  0.00  0.00    -0.065 OA
ENDBRANCH   1   7
BRANCH   2  11
ATOM     11  O   UNL     1       0.850   2.251  -0.007  0.00  0.00    -0.504 OA
ATOM     12  H   UNL     1       1.755   2.011  -0.033  0.00  0.00    +0.292 HD
ENDBRANCH   2  11
BRANCH   4  13
ATOM     13  O   UNL     1      -3.089  -1.608   0.004  0.00  0.00    -0.505 OA
ATOM     14  H   UNL     1      -2.860  -2.516  -0.020  0.00  0.00    +0.292 HD
ENDBRANCH   4  13
TORSDOF 3
