REMARK  Name = 15684
REMARK  2 active torsions:
REMARK  status: ('A' for Active; 'I' for Inactive)
REMARK    1  A    between atoms: C_3  and  C_9
REMARK    2  A    between atoms: C_9  and  O_10
REMARK                            x       y       z     vdW  Elec       q    Type
REMARK                         _______ _______ _______ _____ _____    ______ ____
ROOT
ATOM      1 CL   UNL     1      -1.300   2.343   0.101  0.00  0.00    -0.082 Cl
ATOM      2 CL   UNL     1       3.582   0.109  -0.271  0.00  0.00    -0.082 Cl
ATOM      3  C   UNL     1      -0.875  -0.343   0.259  0.00  0.00    +0.018 C 
ATOM      4  C   UNL     1      -0.317   0.925   0.099  0.00  0.00    +0.057 C 
ATOM      5  C   UNL     1      -0.055  -1.471   0.255  0.00  0.00    -0.000 C 
ATOM      6  C   UNL     1       1.061   1.065  -0.064  0.00  0.00    +0.023 C 
ATOM      7  C   UNL     1       1.323  -1.331   0.091  0.00  0.00    +0.011 C 
ATOM      8  C   UNL     1       1.881  -0.063  -0.069  0.00  0.00    +0.058 C 
ENDROOT
BRANCH   3   9
ATOM      9  C   UNL     1      -2.346  -0.535   0.437  0.00  0.00    +0.164 C 
BRANCH   9  10
ATOM     10  O   UNL     1      -2.956  -0.698  -0.837  0.00  0.00    -0.377 OA
ATOM     11  H   UNL     1      -3.911  -0.824  -0.724  0.00  0.00    +0.211 HD
ENDBRANCH   9  10
ENDBRANCH   3   9
TORSDOF 2
