REMARK  Name = 107841
REMARK  8 active torsions:
REMARK  status: ('A' for Active; 'I' for Inactive)
REMARK    1  A    between atoms: C_4  and  C_24
REMARK    2  A    between atoms: C_12  and  N_18
REMARK    3  A    between atoms: C_19  and  O_21
REMARK    4  A    between atoms: O_21  and  C_22
REMARK    5  A    between atoms: C_24  and  C_25
REMARK    6  A    between atoms: C_25  and  N_26
REMARK    7  A    between atoms: N_26  and  C_28
REMARK    8  A    between atoms: N_26  and  C_30
REMARK                            x       y       z     vdW  Elec       q    Type
REMARK                         _______ _______ _______ _____ _____    ______ ____
ROOT
ATOM      1  S   UNL     1       1.099  -3.572   1.218  0.00  0.00    -0.084 S 
ATOM      2  O   UNL     1       1.800   0.586  -2.229  0.00  0.00    -0.274 OA
ATOM      3  N   UNL     1       1.296  -0.837  -0.441  0.00  0.00    -0.236 N 
ATOM      4  C   UNL     1       1.403   0.411  -1.077  0.00  0.00    +0.231 C 
ATOM      5  C   UNL     1       0.002  -1.292   0.015  0.00  0.00    +0.065 C 
ATOM      6  C   UNL     1       2.465  -1.680  -0.339  0.00  0.00    +0.064 C 
ATOM      7  C   UNL     1      -0.196  -2.469   0.748  0.00  0.00    +0.044 C 
ATOM      8  C   UNL     1       2.477  -2.912   0.330  0.00  0.00    +0.043 C 
ATOM      9  C   UNL     1      -1.152  -0.545  -0.321  0.00  0.00    +0.030 C 
ATOM     10  C   UNL     1       3.689  -1.247  -0.901  0.00  0.00    +0.016 C 
ATOM     11  C   UNL     1      -1.492  -2.845   1.158  0.00  0.00    +0.009 C 
ATOM     12  C   UNL     1      -2.433  -0.925   0.086  0.00  0.00    +0.054 C 
ATOM     13  C   UNL     1       3.654  -3.688   0.379  0.00  0.00    +0.008 C 
ATOM     14  C   UNL     1      -2.604  -2.076   0.834  0.00  0.00    +0.015 C 
ATOM     15  C   UNL     1       4.852  -2.020  -0.847  0.00  0.00    +0.001 C 
ATOM     16  C   UNL     1       4.833  -3.249  -0.212  0.00  0.00    +0.001 C 
ENDROOT
BRANCH  12  18
ATOM     17  O   UNL     1      -5.355  -1.288   0.685  0.00  0.00    -0.226 OA
ATOM     18  N   UNL     1      -3.538  -0.148  -0.264  0.00  0.00    -0.250 N 
ATOM     19  C   UNL     1      -4.880  -0.361   0.040  0.00  0.00    +0.405 C 
ATOM     20  H   UNL     1      -3.344   0.656  -0.797  0.00  0.00    +0.158 HD
BRANCH  19  21
ATOM     21  O   UNL     1      -5.632   0.647  -0.501  0.00  0.00    -0.434 OA
BRANCH  21  22
ATOM     22  C   UNL     1      -7.045   0.570  -0.275  0.00  0.00    +0.210 C 
ATOM     23  C   UNL     1      -7.716   1.754  -0.937  0.00  0.00    +0.051 C 
ENDBRANCH  21  22
ENDBRANCH  19  21
ENDBRANCH  12  18
BRANCH   4  24
ATOM     24  C   UNL     1       1.056   1.588  -0.190  0.00  0.00    +0.063 C 
BRANCH  24  25
ATOM     25  C   UNL     1       2.264   2.496  -0.090  0.00  0.00    -0.068 C 
BRANCH  25  26
ATOM     26  N   UNL     1       1.945   3.641   0.752  0.00  0.00    +0.387 N 
ATOM     27  H   UNL     1       1.367   3.314   1.527  0.00  0.00    -0.080 HD
BRANCH  26  28
ATOM     28  C   UNL     1       3.166   4.235   1.301  0.00  0.00    -0.077 C 
ATOM     29  C   UNL     1       4.061   4.771   0.197  0.00  0.00    -0.025 C 
ENDBRANCH  26  28
BRANCH  26  30
ATOM     30  C   UNL     1       1.190   4.643  -0.003  0.00  0.00    -0.077 C 
ATOM     31  C   UNL     1       0.792   5.812   0.882  0.00  0.00    -0.025 C 
ENDBRANCH  26  30
ENDBRANCH  25  26
ENDBRANCH  24  25
ENDBRANCH   4  24
TORSDOF 8
