REMARK  Name = 71132
REMARK  3 active torsions:
REMARK  status: ('A' for Active; 'I' for Inactive)
REMARK    1  A    between atoms: C_1  and  C_3
REMARK    2  A    between atoms: C_1  and  C_12
REMARK    3  A    between atoms: C_1  and  O_18
REMARK                            x       y       z     vdW  Elec       q    Type
REMARK                         _______ _______ _______ _____ _____    ______ ____
ROOT
ATOM      1  C   UNL     1       0.633   1.552   0.220  0.00  0.00    +0.190 C 
ENDROOT
BRANCH   1   3
ATOM      2  O   UNL     1      -1.551   0.900   0.976  0.00  0.00    -0.455 OA
ATOM      3  C   UNL     1      -0.628   0.836  -0.019  0.00  0.00    +0.154 C 
ATOM      4  C   UNL     1      -2.399  -0.346  -0.707  0.00  0.00    +0.037 C 
ATOM      5  C   UNL     1      -1.097   0.085  -1.072  0.00  0.00    +0.039 C 
ATOM      6  C   UNL     1      -2.631   0.181   0.559  0.00  0.00    +0.145 C 
ATOM      7  C   UNL     1      -3.406  -1.123  -1.306  0.00  0.00    +0.003 C 
ATOM      8  C   UNL     1      -3.807  -0.011   1.282  0.00  0.00    +0.037 C 
ATOM      9  C   UNL     1      -4.600  -1.334  -0.603  0.00  0.00    +0.000 C 
ATOM     10  C   UNL     1      -4.795  -0.787   0.668  0.00  0.00    +0.003 C 
ENDBRANCH   1   3
BRANCH   1  12
ATOM     11 CL   UNL     1       5.538  -1.901   0.012  0.00  0.00    -0.082 Cl
ATOM     12  C   UNL     1       1.886   0.668   0.167  0.00  0.00    +0.012 C 
ATOM     13  C   UNL     1       2.278   0.017   1.312  0.00  0.00    -0.001 C 
ATOM     14  C   UNL     1       2.565   0.566  -1.024  0.00  0.00    -0.001 C 
ATOM     15  C   UNL     1       3.418  -0.785   1.263  0.00  0.00    +0.011 C 
ATOM     16  C   UNL     1       3.705  -0.237  -1.072  0.00  0.00    +0.011 C 
ATOM     17  C   UNL     1       4.131  -0.912   0.071  0.00  0.00    +0.058 C 
ENDBRANCH   1  12
BRANCH   1  18
ATOM     18  O   UNL     1       0.761   2.633  -0.728  0.00  0.00    -0.373 OA
ATOM     19  H   UNL     1      -0.033   3.190  -0.692  0.00  0.00    +0.211 HD
ENDBRANCH   1  18
TORSDOF 3
