REMARK  Name = 9571062
REMARK  6 active torsions:
REMARK  status: ('A' for Active; 'I' for Inactive)
REMARK    1  A    between atoms: N_3  and  C_18
REMARK    2  A    between atoms: N_4  and  N_8
REMARK    3  A    between atoms: N_8  and  C_9
REMARK    4  A    between atoms: C_9  and  C_11
REMARK    5  A    between atoms: C_13  and  N_17
REMARK    6  A    between atoms: C_18  and  O_19
REMARK                            x       y       z     vdW  Elec       q    Type
REMARK                         _______ _______ _______ _____ _____    ______ ____
ROOT
ATOM      1  O   UNL     1      -3.938   2.412  -0.136  0.00  0.00    -0.272 OA
ATOM      2  O   UNL     1      -3.019  -2.103  -0.193  0.00  0.00    -0.250 OA
ATOM      3  N   UNL     1      -3.873   0.076  -0.181  0.00  0.00    -0.184 N 
ATOM      4  N   UNL     1      -1.674  -0.187  -0.120  0.00  0.00    -0.181 N 
ATOM      5  C   UNL     1      -1.823   1.238  -0.099  0.00  0.00    +0.200 C 
ATOM      6  C   UNL     1      -3.336   1.347  -0.139  0.00  0.00    +0.256 C 
ATOM      7  C   UNL     1      -2.878  -0.887  -0.166  0.00  0.00    +0.330 C 
ENDROOT
BRANCH   4   8
ATOM      8  N   UNL     1      -0.476  -0.791  -0.096  0.00  0.00    -0.118 NA
BRANCH   8   9
ATOM      9  C   UNL     1       0.520   0.034  -0.054  0.00  0.00    +0.176 C 
BRANCH   9  11
ATOM     10  O   UNL     1       2.853   0.522   0.020  0.00  0.00    -0.436 OA
ATOM     11  C   UNL     1       1.899  -0.425  -0.022  0.00  0.00    +0.144 C 
ATOM     12  C   UNL     1       2.409  -1.681  -0.029  0.00  0.00    +0.040 C 
ATOM     13  C   UNL     1       4.032  -0.152   0.042  0.00  0.00    +0.289 C 
ATOM     14  C   UNL     1       3.813  -1.510   0.013  0.00  0.00    +0.066 C 
BRANCH  13  17
ATOM     15  O   UNL     1       6.323   0.101   0.113  0.00  0.00    -0.123 OA
ATOM     16  O   UNL     1       5.072   1.905   0.106  0.00  0.00    -0.123 OA
ATOM     17  N   UNL     1       5.179   0.643   0.089  0.00  0.00    +0.093 N 
ENDBRANCH  13  17
ENDBRANCH   9  11
ENDBRANCH   8   9
ENDBRANCH   4   8
BRANCH   3  18
ATOM     18  C   UNL     1      -5.293  -0.210  -0.235  0.00  0.00    +0.246 C 
BRANCH  18  19
ATOM     19  O   UNL     1      -5.789  -0.332   1.084  0.00  0.00    -0.364 OA
ATOM     20  H   UNL     1      -6.739  -0.524   1.056  0.00  0.00    +0.212 HD
ENDBRANCH  18  19
ENDBRANCH   3  18
TORSDOF 6
