REMARK  Name = 3752
REMARK  1 active torsions:
REMARK  status: ('A' for Active; 'I' for Inactive)
REMARK    1  A    between atoms: C_6  and  C_15
REMARK                            x       y       z     vdW  Elec       q    Type
REMARK                         _______ _______ _______ _____ _____    ______ ____
ROOT
ATOM      1  N   UNL     1       1.200  -0.117  -1.200  0.00  0.00    -0.260 NA
ATOM      2  N   UNL     1       1.200  -0.112   1.200  0.00  0.00    -0.260 NA
ATOM      3  N   UNL     1       3.265  -0.344   0.001  0.00  0.00    -0.247 NA
ATOM      4  N   UNL     1       3.234  -0.346  -2.344  0.00  0.00    -0.282 N 
ATOM      5  N   UNL     1       3.233  -0.336   2.345  0.00  0.00    -0.282 N 
ATOM      6  C   UNL     1       0.612  -0.049   0.000  0.00  0.00    +0.164 C 
ATOM      7  C   UNL     1       2.532  -0.265  -1.121  0.00  0.00    +0.217 C 
ATOM      8  C   UNL     1       2.532  -0.260   1.123  0.00  0.00    +0.217 C 
ATOM      9  H   UNL     1       2.745  -0.293  -3.197  0.00  0.00    +0.156 HD
ATOM     10  H   UNL     1       4.212  -0.455  -2.344  0.00  0.00    +0.156 HD
ATOM     11  H   UNL     1       2.744  -0.280   3.198  0.00  0.00    +0.156 HD
ATOM     12  H   UNL     1       4.212  -0.445   2.346  0.00  0.00    +0.156 HD
ENDROOT
BRANCH   6  15
ATOM     13 CL   UNL     1      -0.498   2.829  -0.004  0.00  0.00    -0.081 Cl
ATOM     14 CL   UNL     1      -3.989  -2.342   0.004  0.00  0.00    -0.082 Cl
ATOM     15  C   UNL     1      -0.830   0.112   0.000  0.00  0.00    +0.099 C 
ATOM     16  C   UNL     1      -1.429   1.372  -0.003  0.00  0.00    +0.069 C 
ATOM     17  C   UNL     1      -1.621  -1.036   0.002  0.00  0.00    +0.024 C 
ATOM     18  C   UNL     1      -3.012  -0.925   0.002  0.00  0.00    +0.058 C 
ATOM     19  C   UNL     1      -2.820   1.483  -0.003  0.00  0.00    +0.013 C 
ATOM     20  C   UNL     1      -3.611   0.334  -0.001  0.00  0.00    +0.012 C 
ENDBRANCH   6  15
TORSDOF 1
