REMARK  Name = 39985
REMARK  6 active torsions:
REMARK  status: ('A' for Active; 'I' for Inactive)
REMARK    1  A    between atoms: C_1  and  O_7
REMARK    2  A    between atoms: C_2  and  O_14
REMARK    3  A    between atoms: O_7  and  C_8
REMARK    4  A    between atoms: C_8  and  C_11
REMARK    5  A    between atoms: C_11  and  O_12
REMARK    6  A    between atoms: O_14  and  C_17
REMARK                            x       y       z     vdW  Elec       q    Type
REMARK                         _______ _______ _______ _____ _____    ______ ____
ROOT
ATOM      1  C   UNL     1       1.877  -1.258   0.097  0.00  0.00    +0.139 C 
ATOM      2  C   UNL     1      -0.883  -1.565  -0.005  0.00  0.00    +0.146 C 
ATOM      3  C   UNL     1       1.114  -0.370  -0.653  0.00  0.00    +0.040 C 
ATOM      4  C   UNL     1       1.275  -2.297   0.796  0.00  0.00    +0.040 C 
ATOM      5  C   UNL     1      -0.271  -0.524  -0.704  0.00  0.00    +0.041 C 
ATOM      6  C   UNL     1      -0.111  -2.451   0.745  0.00  0.00    +0.041 C 
ENDROOT
BRANCH   1   7
ATOM      7  O   UNL     1       3.239  -1.105   0.148  0.00  0.00    -0.468 OA
BRANCH   7   8
ATOM      8  C   UNL     1       3.729   0.120   0.668  0.00  0.00    +0.263 C 
ATOM      9  C   UNL     1       4.589  -0.192   1.880  0.00  0.00    +0.060 C 
BRANCH   8  11
ATOM     10  O   UNL     1       4.739   0.362  -1.527  0.00  0.00    -0.246 OA
ATOM     11  C   UNL     1       4.529   0.821  -0.412  0.00  0.00    +0.358 C 
BRANCH  11  12
ATOM     12  O   UNL     1       4.946   2.039   0.042  0.00  0.00    -0.442 OA
ATOM     13  C   UNL     1       5.693   2.823  -0.893  0.00  0.00    +0.256 C 
ENDBRANCH  11  12
ENDBRANCH   8  11
ENDBRANCH   7   8
ENDBRANCH   1   7
BRANCH   2  14
ATOM     14  O   UNL     1      -2.235  -1.717  -0.057  0.00  0.00    -0.453 OA
BRANCH  14  17
ATOM     15 CL   UNL     1      -4.030  -1.084  -2.383  0.00  0.00    -0.079 Cl
ATOM     16 CL   UNL     1      -5.510   3.107   0.661  0.00  0.00    -0.082 Cl
ATOM     17  C   UNL     1      -3.016  -0.583   0.091  0.00  0.00    +0.156 C 
ATOM     18  C   UNL     1      -3.882  -0.191  -0.915  0.00  0.00    +0.093 C 
ATOM     19  C   UNL     1      -2.902   0.136   1.269  0.00  0.00    +0.039 C 
ATOM     20  C   UNL     1      -4.658   0.955  -0.738  0.00  0.00    +0.026 C 
ATOM     21  C   UNL     1      -3.677   1.282   1.446  0.00  0.00    +0.015 C 
ATOM     22  C   UNL     1      -4.555   1.692   0.442  0.00  0.00    +0.059 C 
ENDBRANCH  14  17
ENDBRANCH   2  14
TORSDOF 6
