REMARK  Name = 5219
REMARK  2 active torsions:
REMARK  status: ('A' for Active; 'I' for Inactive)
REMARK    1  A    between atoms: N_2  and  N_9
REMARK    2  A    between atoms: N_4  and  C_6
REMARK                            x       y       z     vdW  Elec       q    Type
REMARK                         _______ _______ _______ _____ _____    ______ ____
ROOT
ATOM      1  O   UNL     1       2.742   1.033  -0.282  0.00  0.00    -0.347 OA
ATOM      2  N   UNL     1       0.674   0.123   0.111  0.00  0.00    -0.136 N 
ATOM      3  N   UNL     1       1.332   1.366  -0.248  0.00  0.00    +0.090 NA
ATOM      4  C   UNL     1       1.528  -0.806   0.272  0.00  0.00    +0.156 C 
ATOM      5  C   UNL     1       2.878  -0.281   0.031  0.00  0.00    +0.252 C 
ENDROOT
BRANCH   2   7
ATOM      6  O   UNL     1      -3.562  -0.134  -0.299  0.00  0.00    -0.351 OA
ATOM      7  N   UNL     1      -0.771  -0.018   0.265  0.00  0.00    -0.182 NA
ATOM      8  C   UNL     1      -1.560   1.196   0.028  0.00  0.00    +0.126 C 
ATOM      9  C   UNL     1      -1.375  -1.178  -0.400  0.00  0.00    +0.126 C 
ATOM     10  C   UNL     1      -3.019   0.975   0.416  0.00  0.00    +0.161 C 
ATOM     11  C   UNL     1      -2.839  -1.327   0.001  0.00  0.00    +0.161 C 
ENDBRANCH   2   7
BRANCH   5  12
ATOM     12  N   UNL     1       3.971  -0.948   0.105  0.00  0.00    -0.231 NA
ATOM     13  H   UNL     1       4.831  -0.505  -0.075  0.00  0.00    +0.173 HD
ENDBRANCH   5  12
TORSDOF 2
