REMARK  Name = 14190
REMARK  11 active torsions:
REMARK  status: ('A' for Active; 'I' for Inactive)
REMARK    1  A    between atoms: S_1  and  S_2
REMARK    2  A    between atoms: S_1  and  C_16
REMARK    3  A    between atoms: S_2  and  C_3
REMARK    4  A    between atoms: C_3  and  C_5
REMARK    5  A    between atoms: C_6  and  C_13
REMARK    6  A    between atoms: C_7  and  O_11
REMARK    7  A    between atoms: C_13  and  O_14
REMARK    8  A    between atoms: C_16  and  C_18
REMARK    9  A    between atoms: C_19  and  C_26
REMARK   10  A    between atoms: C_20  and  O_24
REMARK   11  A    between atoms: C_26  and  O_27
REMARK                            x       y       z     vdW  Elec       q    Type
REMARK                         _______ _______ _______ _____ _____    ______ ____
ROOT
ATOM      1  S   UNL     1      -0.978   1.986   0.309  0.00  0.00    -0.077 S 
ENDROOT
BRANCH   1   2
ATOM      2  S   UNL     1       0.988   1.977  -0.286  0.00  0.00    -0.077 S 
BRANCH   2   3
ATOM      3  C   UNL     1       1.699   0.724   0.809  0.00  0.00    +0.096 C 
BRANCH   3   5
ATOM      4  N   UNL     1       5.421   1.173   1.109  0.00  0.00    -0.245 NA
ATOM      5  C   UNL     1       3.169   0.525   0.565  0.00  0.00    +0.010 C 
ATOM      6  C   UNL     1       3.632  -0.405  -0.348  0.00  0.00    +0.040 C 
ATOM      7  C   UNL     1       5.002  -0.548  -0.536  0.00  0.00    +0.145 C 
ATOM      8  C   UNL     1       5.847   0.257   0.210  0.00  0.00    +0.093 C 
ATOM      9  C   UNL     1       4.083   1.284   1.264  0.00  0.00    +0.095 C 
ATOM     10  C   UNL     1       7.327   0.142   0.048  0.00  0.00    +0.055 C 
BRANCH   7  11
ATOM     11  O   UNL     1       5.495  -1.452  -1.423  0.00  0.00    -0.505 OA
ATOM     12  H   UNL     1       4.910  -1.988  -1.920  0.00  0.00    +0.292 HD
ENDBRANCH   7  11
BRANCH   6  13
ATOM     13  C   UNL     1       2.677  -1.250  -1.129  0.00  0.00    +0.166 C 
BRANCH  13  14
ATOM     14  O   UNL     1       2.413  -2.446  -0.408  0.00  0.00    -0.377 OA
ATOM     15  H   UNL     1       1.794  -2.997  -0.912  0.00  0.00    +0.211 HD
ENDBRANCH  13  14
ENDBRANCH   6  13
ENDBRANCH   3   5
ENDBRANCH   2   3
ENDBRANCH   1   2
BRANCH   1  16
ATOM     16  C   UNL     1      -1.694   0.726  -0.790  0.00  0.00    +0.096 C 
BRANCH  16  18
ATOM     17  N   UNL     1      -5.414   1.172  -1.125  0.00  0.00    -0.245 NA
ATOM     18  C   UNL     1      -3.153   0.529  -0.561  0.00  0.00    +0.010 C 
ATOM     19  C   UNL     1      -3.637  -0.401   0.352  0.00  0.00    +0.040 C 
ATOM     20  C   UNL     1      -5.009  -0.545   0.528  0.00  0.00    +0.145 C 
ATOM     21  C   UNL     1      -5.848   0.258  -0.228  0.00  0.00    +0.093 C 
ATOM     22  C   UNL     1      -4.074   1.284  -1.268  0.00  0.00    +0.095 C 
ATOM     23  C   UNL     1      -7.329   0.143  -0.079  0.00  0.00    +0.055 C 
BRANCH  20  24
ATOM     24  O   UNL     1      -5.510  -1.447   1.413  0.00  0.00    -0.505 OA
ATOM     25  H   UNL     1      -4.929  -1.982   1.916  0.00  0.00    +0.292 HD
ENDBRANCH  20  24
BRANCH  19  26
ATOM     26  C   UNL     1      -2.690  -1.244   1.144  0.00  0.00    +0.166 C 
BRANCH  26  27
ATOM     27  O   UNL     1      -2.418  -2.442   0.428  0.00  0.00    -0.377 OA
ATOM     28  H   UNL     1      -1.804  -2.992   0.940  0.00  0.00    +0.211 HD
ENDBRANCH  26  27
ENDBRANCH  19  26
ENDBRANCH  16  18
ENDBRANCH   1  16
TORSDOF 11
