REMARK  Name = 3033860
REMARK  4 active torsions:
REMARK  status: ('A' for Active; 'I' for Inactive)
REMARK    1  A    between atoms: C_5  and  C_6
REMARK    2  A    between atoms: C_5  and  N_17
REMARK    3  A    between atoms: C_12  and  C_26
REMARK    4  A    between atoms: C_15  and  N_34
REMARK                            x       y       z     vdW  Elec       q    Type
REMARK                         _______ _______ _______ _____ _____    ______ ____
ROOT
ATOM      1  O   UNL     1      -1.195   2.355  -1.560  0.00  0.00    -0.267 OA
ATOM      2  N   UNL     1      -0.211   1.091   0.189  0.00  0.00    -0.209 N 
ATOM      3  N   UNL     1      -2.084   0.165   1.032  0.00  0.00    -0.387 NA
ATOM      4  N   UNL     1       0.850  -1.350   1.590  0.00  0.00    -0.261 NA
ATOM      5  C   UNL     1      -2.427   0.959  -0.033  0.00  0.00    +0.180 C 
ATOM      6  C   UNL     1      -0.794   0.291   1.118  0.00  0.00    +0.194 C 
ATOM      7  C   UNL     1       1.172   1.366   0.080  0.00  0.00    +0.062 C 
ATOM      8  C   UNL     1      -1.215   1.605  -0.603  0.00  0.00    +0.285 C 
ATOM      9  C   UNL     1       2.154   0.430   0.467  0.00  0.00    +0.033 C 
ATOM     10  C   UNL     1       0.016  -0.337   2.204  0.00  0.00    +0.200 C 
ATOM     11  C   UNL     1       1.817  -0.987   0.815  0.00  0.00    +0.079 C 
ATOM     12  C   UNL     1       1.597   2.613  -0.409  0.00  0.00    +0.017 C 
ATOM     13  C   UNL     1       3.515   0.781   0.431  0.00  0.00    +0.027 C 
ATOM     14  C   UNL     1       3.909   2.035  -0.028  0.00  0.00    +0.143 C 
ATOM     15  C   UNL     1       2.953   2.944  -0.461  0.00  0.00    +0.025 C 
ENDROOT
BRANCH  11  17
ATOM     16 CL   UNL     1       0.880  -2.156  -1.887  0.00  0.00    -0.082 Cl
ATOM     17  C   UNL     1       2.629  -2.080   0.206  0.00  0.00    +0.028 C 
ATOM     18  C   UNL     1       2.279  -2.661  -1.008  0.00  0.00    +0.059 C 
ATOM     19  C   UNL     1       3.761  -2.507   0.894  0.00  0.00    +0.002 C 
ATOM     20  C   UNL     1       3.069  -3.679  -1.541  0.00  0.00    +0.011 C 
ATOM     21  C   UNL     1       4.551  -3.525   0.361  0.00  0.00    +0.000 C 
ATOM     22  C   UNL     1       4.205  -4.112  -0.856  0.00  0.00    +0.001 C 
ENDBRANCH  11  17
BRANCH  14  25
ATOM     23  O   UNL     1       5.615   3.505  -0.508  0.00  0.00    -0.126 OA
ATOM     24  O   UNL     1       6.129   1.535   0.324  0.00  0.00    -0.126 OA
ATOM     25  N   UNL     1       5.287   2.376  -0.073  0.00  0.00    +0.058 N 
ENDBRANCH  14  25
BRANCH   5  26
ATOM     26  C   UNL     1      -3.655   1.156  -0.516  0.00  0.00    +0.137 C 
BRANCH  26  27
ATOM     27  N   UNL     1      -4.817   0.622  -0.076  0.00  0.00    -0.271 NA
ATOM     28  N   UNL     1      -7.316  -0.720   0.166  0.00  0.00    +0.387 N 
ATOM     29  C   UNL     1      -4.876  -0.692   0.557  0.00  0.00    +0.050 C 
ATOM     30  C   UNL     1      -6.054   1.397  -0.023  0.00  0.00    +0.050 C 
ATOM     31  C   UNL     1      -6.068  -1.483   0.016  0.00  0.00    -0.060 C 
ATOM     32  C   UNL     1      -7.221   0.560  -0.551  0.00  0.00    -0.060 C 
ATOM     33  C   UNL     1      -8.455  -1.497  -0.318  0.00  0.00    -0.101 C 
ATOM     34  H   UNL     1      -7.459  -0.526   1.157  0.00  0.00    -0.080 HD
ENDBRANCH  26  27
ENDBRANCH   5  26
TORSDOF 4
