REMARK  Name = 33672
REMARK  8 active torsions:
REMARK  status: ('A' for Active; 'I' for Inactive)
REMARK    1  A    between atoms: N_2  and  CA_11
REMARK    2  A    between atoms: C_3  and  C_19
REMARK    3  A    between atoms: CA_10  and  C_16
REMARK    4  A    between atoms: C_16  and  O_17
REMARK    5  A    between atoms: C_19  and  C_20
REMARK    6  A    between atoms: C_19  and  C_27
REMARK    7  A    between atoms: C_27  and  O_28
REMARK    8  A    between atoms: O_28  and  C_29
REMARK                            x       y       z     vdW  Elec       q    Type
REMARK                         _______ _______ _______ _____ _____    ______ ____
ROOT
ATOM      1  O   UNL     1       0.336  -1.585  -1.689  0.00  0.00    -0.274 OA
ATOM      2  N   UNL     1      -0.892  -1.361   0.265  0.00  0.00    -0.296 N 
ATOM      3  C   UNL     1       0.280  -1.310  -0.491  0.00  0.00    +0.237 C 
ATOM      4  H   UNL     1      -0.846  -1.124   1.220  0.00  0.00    +0.150 HD
ENDROOT
BRANCH   2  11
ATOM      5  S   UNL     1      -3.228  -0.385   2.002  0.00  0.00    -0.118 S 
ATOM      6  O   UNL     1      -2.383  -0.204  -2.318  0.00  0.00    -0.273 OA
ATOM      7  N   UNL     1      -3.862  -0.536  -0.509  0.00  0.00    -0.260 N 
ATOM      8  C   UNL     1      -3.444  -1.468   0.542  0.00  0.00    +0.151 C 
ATOM      9  C   UNL     1      -4.573   0.756   1.402  0.00  0.00    +0.068 C 
ATOM     10  CA  UNL     1      -4.392   0.759  -0.131  0.00  0.00    +0.184 C 
ATOM     11  CA  UNL     1      -2.192  -1.753  -0.298  0.00  0.00    +0.178 C 
ATOM     12  C   UNL     1      -2.770  -0.738  -1.304  0.00  0.00    +0.247 C 
ATOM     13  C   UNL     1      -4.344   2.148   1.994  0.00  0.00    +0.013 C 
ATOM     14  C   UNL     1      -5.918   0.194   1.883  0.00  0.00    +0.013 C 
BRANCH  10  16
ATOM     15  OXT UNL     1      -6.142   0.153  -1.679  0.00  0.00    -0.248 OA
ATOM     16  C   UNL     1      -5.643   0.972  -0.922  0.00  0.00    +0.333 C 
BRANCH  16  17
ATOM     17  O   UNL     1      -6.152   2.206  -0.689  0.00  0.00    -0.479 OA
ATOM     18  H   UNL     1      -5.719   2.787  -0.095  0.00  0.00    +0.295 HD
ENDBRANCH  16  17
ENDBRANCH  10  16
ENDBRANCH   2  11
BRANCH   3  19
ATOM     19  C   UNL     1       1.510  -0.895   0.316  0.00  0.00    +0.198 C 
BRANCH  19  20
ATOM     20  C   UNL     1       2.527  -2.023   0.305  0.00  0.00    -0.003 C 
ATOM     21  C   UNL     1       2.476  -2.982   1.297  0.00  0.00    -0.003 C 
ATOM     22  C   UNL     1       3.476  -2.059  -0.699  0.00  0.00    -0.003 C 
ATOM     23  C   UNL     1       3.410  -4.018   1.286  0.00  0.00    -0.000 C 
ATOM     24  C   UNL     1       4.411  -3.095  -0.710  0.00  0.00    -0.000 C 
ATOM     25  C   UNL     1       4.377  -4.074   0.283  0.00  0.00    -0.000 C 
ENDBRANCH  19  20
BRANCH  19  27
ATOM     26  O   UNL     1       1.707   1.095  -1.081  0.00  0.00    -0.249 OA
ATOM     27  C   UNL     1       2.110   0.430  -0.134  0.00  0.00    +0.334 C 
BRANCH  27  28
ATOM     28  O   UNL     1       3.150   0.777   0.729  0.00  0.00    -0.424 OA
BRANCH  28  29
ATOM     29  C   UNL     1       3.762   1.985   0.390  0.00  0.00    +0.148 C 
ATOM     30  C   UNL     1       3.271   3.151   0.933  0.00  0.00    +0.038 C 
ATOM     31  C   UNL     1       4.834   1.964  -0.475  0.00  0.00    +0.038 C 
ATOM     32  C   UNL     1       3.882   4.359   0.594  0.00  0.00    +0.003 C 
ATOM     33  C   UNL     1       5.446   3.171  -0.814  0.00  0.00    +0.003 C 
ATOM     34  C   UNL     1       4.970   4.368  -0.279  0.00  0.00    +0.000 C 
ENDBRANCH  28  29
ENDBRANCH  27  28
ENDBRANCH  19  27
ENDBRANCH   3  19
TORSDOF 8
