REMARK  Name = 65782
REMARK  13 active torsions:
REMARK  status: ('A' for Active; 'I' for Inactive)
REMARK    1  A    between atoms: O_1  and  C_3
REMARK    2  A    between atoms: O_1  and  C_15
REMARK    3  A    between atoms: C_3  and  C_4
REMARK    4  A    between atoms: C_4  and  C_5
REMARK    5  A    between atoms: C_5  and  C_7
REMARK    6  A    between atoms: C_7  and  O_8
REMARK    7  A    between atoms: O_8  and  C_9
REMARK    8  A    between atoms: C_9  and  C_10
REMARK    9  A    between atoms: C_10  and  N_11
REMARK   10  A    between atoms: C_15  and  C_17
REMARK   11  A    between atoms: C_18  and  C_25
REMARK   12  A    between atoms: C_19  and  O_23
REMARK   13  A    between atoms: C_25  and  O_26
REMARK                            x       y       z     vdW  Elec       q    Type
REMARK                         _______ _______ _______ _____ _____    ______ ____
ROOT
ATOM      1  O   UNL     1       1.462  -1.455   0.785  0.00  0.00    -0.443 OA
ENDROOT
BRANCH   1   3
ATOM      2  O   UNL     1       3.186  -2.945   0.421  0.00  0.00    -0.250 OA
ATOM      3  C   UNL     1       2.770  -1.851   0.777  0.00  0.00    +0.318 C 
BRANCH   3   4
ATOM      4  C   UNL     1       3.629  -0.708   1.273  0.00  0.00    +0.121 C 
BRANCH   4   5
ATOM      5  C   UNL     1       4.164   0.165   0.140  0.00  0.00    +0.121 C 
BRANCH   5   7
ATOM      6  O   UNL     1       2.874   0.693  -1.857  0.00  0.00    -0.250 OA
ATOM      7  C   UNL     1       3.062   0.831  -0.656  0.00  0.00    +0.317 C 
BRANCH   7   8
ATOM      8  O   UNL     1       2.321   1.613   0.185  0.00  0.00    -0.451 OA
BRANCH   8   9
ATOM      9  C   UNL     1       1.238   2.321  -0.426  0.00  0.00    +0.186 C 
BRANCH   9  10
ATOM     10  C   UNL     1       0.523   3.136   0.640  0.00  0.00    -0.029 C 
BRANCH  10  11
ATOM     11  N   UNL     1      -0.579   3.888   0.060  0.00  0.00    +0.387 N 
ATOM     12  C   UNL     1      -0.934   5.027   0.910  0.00  0.00    -0.101 C 
ATOM     13  C   UNL     1      -1.746   3.025  -0.142  0.00  0.00    -0.101 C 
ATOM     14  H   UNL     1      -0.275   4.242  -0.848  0.00  0.00    -0.080 HD
ENDBRANCH  10  11
ENDBRANCH   9  10
ENDBRANCH   8   9
ENDBRANCH   7   8
ENDBRANCH   5   7
ENDBRANCH   4   5
ENDBRANCH   3   4
ENDBRANCH   1   3
BRANCH   1  15
ATOM     15  C   UNL     1       0.521  -2.433   0.331  0.00  0.00    +0.236 C 
BRANCH  15  17
ATOM     16  N   UNL     1      -2.867  -1.500   1.701  0.00  0.00    -0.245 NA
ATOM     17  C   UNL     1      -0.861  -1.851   0.399  0.00  0.00    +0.042 C 
ATOM     18  C   UNL     1      -1.425  -1.163  -0.670  0.00  0.00    +0.043 C 
ATOM     19  C   UNL     1      -2.710  -0.644  -0.554  0.00  0.00    +0.145 C 
ATOM     20  C   UNL     1      -3.383  -0.838   0.641  0.00  0.00    +0.093 C 
ATOM     21  C   UNL     1      -1.617  -1.991   1.552  0.00  0.00    +0.098 C 
ATOM     22  C   UNL     1      -4.765  -0.300   0.818  0.00  0.00    +0.055 C 
BRANCH  19  23
ATOM     23  O   UNL     1      -3.285   0.034  -1.582  0.00  0.00    -0.505 OA
ATOM     24  H   UNL     1      -2.816   0.156  -2.384  0.00  0.00    +0.292 HD
ENDBRANCH  19  23
BRANCH  18  25
ATOM     25  C   UNL     1      -0.657  -0.981  -1.939  0.00  0.00    +0.167 C 
BRANCH  25  26
ATOM     26  O   UNL     1      -0.922  -2.073  -2.809  0.00  0.00    -0.377 OA
ATOM     27  H   UNL     1      -0.425  -1.957  -3.634  0.00  0.00    +0.211 HD
ENDBRANCH  25  26
ENDBRANCH  18  25
ENDBRANCH  15  17
ENDBRANCH   1  15
TORSDOF 13
