REMARK  Name = 6445230
REMARK  7 active torsions:
REMARK  status: ('A' for Active; 'I' for Inactive)
REMARK    1  A    between atoms: N_2  and  C_35
REMARK    2  A    between atoms: C_4  and  O_31
REMARK    3  A    between atoms: C_10  and  N_21
REMARK    4  A    between atoms: C_17  and  O_33
REMARK    5  A    between atoms: C_23  and  C_24
REMARK    6  A    between atoms: C_25  and  C_27
REMARK    7  A    between atoms: C_35  and  C_36
REMARK                            x       y       z     vdW  Elec       q    Type
REMARK                         _______ _______ _______ _____ _____    ______ ____
ROOT
ATOM      1  O   UNL     1      -0.652   1.029  -2.026  0.00  0.00    -0.474 OA
ATOM      2  N   UNL     1       4.108   0.439  -0.056  0.00  0.00    +0.390 N 
ATOM      3  C   UNL     1       1.316   1.008  -0.623  0.00  0.00    +0.079 C 
ATOM      4  C   UNL     1       1.857   0.941   0.811  0.00  0.00    +0.078 C 
ATOM      5  C   UNL     1       3.020  -0.108   0.797  0.00  0.00    -0.028 C 
ATOM      6  C   UNL     1      -0.043   1.700  -0.860  0.00  0.00    +0.190 C 
ATOM      7  C   UNL     1       2.427   1.525  -1.569  0.00  0.00    -0.013 C 
ATOM      8  C   UNL     1       0.905  -0.349  -1.079  0.00  0.00    +0.016 C 
ATOM      9  C   UNL     1       0.750   0.652   1.837  0.00  0.00    +0.027 C 
ATOM     10  C   UNL     1      -1.048   1.590   0.316  0.00  0.00    +0.116 C 
ATOM     11  C   UNL     1       2.526  -1.539   0.381  0.00  0.00    +0.008 C 
ATOM     12  C   UNL     1       3.724   0.702  -1.447  0.00  0.00    -0.077 C 
ATOM     13  C   UNL     1      -0.389   1.668   1.695  0.00  0.00    +0.026 C 
ATOM     14  C   UNL     1       1.474  -1.549  -0.696  0.00  0.00    -0.025 C 
ATOM     15  C   UNL     1      -0.175  -0.259  -1.934  0.00  0.00    +0.168 C 
ATOM     16  C   UNL     1       0.956  -2.703  -1.283  0.00  0.00    -0.001 C 
ATOM     17  C   UNL     1      -0.690  -1.383  -2.538  0.00  0.00    +0.167 C 
ATOM     18  C   UNL     1      -0.106  -2.616  -2.210  0.00  0.00    +0.039 C 
ATOM     19  H   UNL     1       4.290   1.353   0.359  0.00  0.00    -0.080 HD
ENDROOT
BRANCH  10  21
ATOM     20  O   UNL     1      -4.302   3.251  -0.073  0.00  0.00    -0.270 OA
ATOM     21  N   UNL     1      -2.070   2.608   0.193  0.00  0.00    -0.272 N 
ATOM     22  C   UNL     1      -1.601   3.995   0.210  0.00  0.00    +0.115 C 
ATOM     23  C   UNL     1      -3.446   2.370   0.030  0.00  0.00    +0.249 C 
BRANCH  23  24
ATOM     24  C   UNL     1      -3.848   0.934  -0.046  0.00  0.00    +0.058 C 
ATOM     25  C   UNL     1      -4.208   0.283   1.072  0.00  0.00    +0.008 C 
BRANCH  25  27
ATOM     26  O   UNL     1      -5.192  -3.149   0.577  0.00  0.00    -0.447 OA
ATOM     27  C   UNL     1      -4.646  -1.088   1.179  0.00  0.00    +0.041 C 
ATOM     28  C   UNL     1      -5.021  -1.764   2.340  0.00  0.00    +0.044 C 
ATOM     29  C   UNL     1      -4.758  -1.941   0.131  0.00  0.00    +0.180 C 
ATOM     30  C   UNL     1      -5.350  -3.033   1.922  0.00  0.00    +0.180 C 
ENDBRANCH  25  27
ENDBRANCH  23  24
ENDBRANCH  10  21
BRANCH   4  31
ATOM     31  O   UNL     1       2.401   2.223   1.169  0.00  0.00    -0.388 OA
ATOM     32  H   UNL     1       3.110   2.458   0.550  0.00  0.00    +0.210 HD
ENDBRANCH   4  31
BRANCH  17  33
ATOM     33  O   UNL     1      -1.741  -1.316  -3.390  0.00  0.00    -0.503 OA
ATOM     34  H   UNL     1      -2.122  -0.486  -3.600  0.00  0.00    +0.292 HD
ENDBRANCH  17  33
BRANCH   2  35
ATOM     35  C   UNL     1       5.351  -0.320   0.023  0.00  0.00    -0.077 C 
BRANCH  35  36
ATOM     36  C   UNL     1       5.755  -0.556   1.442  0.00  0.00    -0.021 C 
ATOM     37  C   UNL     1       5.696  -1.947   1.988  0.00  0.00    -0.002 C 
ATOM     38  C   UNL     1       7.022  -1.299   1.718  0.00  0.00    -0.002 C 
ENDBRANCH  35  36
ENDBRANCH   2  35
TORSDOF 7
