REMARK  Name = 72135
REMARK  4 active torsions:
REMARK  status: ('A' for Active; 'I' for Inactive)
REMARK    1  A    between atoms: C_6  and  C_12
REMARK    2  A    between atoms: C_6  and  C_17
REMARK    3  A    between atoms: C_12  and  C_14
REMARK    4  A    between atoms: C_14  and  C_15
REMARK                            x       y       z     vdW  Elec       q    Type
REMARK                         _______ _______ _______ _____ _____    ______ ____
ROOT
ATOM      1  O   UNL     1       0.448   1.649  -1.277  0.00  0.00    -0.274 OA
ATOM      2  O   UNL     1      -0.996  -2.299   1.052  0.00  0.00    -0.274 OA
ATOM      3  O   UNL     1      -3.754   1.321   0.520  0.00  0.00    -0.252 OA
ATOM      4  N   UNL     1      -1.643   1.450  -0.371  0.00  0.00    -0.239 N 
ATOM      5  N   UNL     1      -2.346  -0.475   0.767  0.00  0.00    -0.239 N 
ATOM      6  C   UNL     1      -0.075  -0.439  -0.183  0.00  0.00    +0.156 C 
ATOM      7  C   UNL     1      -0.376   0.972  -0.659  0.00  0.00    +0.240 C 
ATOM      8  C   UNL     1      -1.157  -1.163   0.602  0.00  0.00    +0.240 C 
ATOM      9  C   UNL     1      -2.656   0.800   0.318  0.00  0.00    +0.312 C 
ATOM     10  H   UNL     1      -1.849   2.357  -0.693  0.00  0.00    +0.159 HD
ATOM     11  H   UNL     1      -3.056  -0.946   1.262  0.00  0.00    +0.159 HD
ENDROOT
BRANCH   6  12
ATOM     12  C   UNL     1       1.199  -0.406   0.672  0.00  0.00    +0.020 C 
ATOM     13  C   UNL     1       0.966   0.462   1.911  0.00  0.00    +0.001 C 
BRANCH  12  14
ATOM     14  C   UNL     1       2.419   0.120  -0.107  0.00  0.00    +0.001 C 
BRANCH  14  15
ATOM     15  C   UNL     1       3.716   0.102   0.705  0.00  0.00    +0.000 C 
ATOM     16  C   UNL     1       4.900   0.562  -0.131  0.00  0.00    +0.000 C 
ENDBRANCH  14  15
ENDBRANCH  12  14
ENDBRANCH   6  12
BRANCH   6  17
ATOM     17  C   UNL     1       0.139  -1.248  -1.432  0.00  0.00    -0.010 C 
ATOM     18  C   UNL     1      -0.783  -1.408  -2.387  0.00  0.00    -0.004 C 
ENDBRANCH   6  17
TORSDOF 4
