REMARK  Name = 42552846
REMARK  3 active torsions:
REMARK  status: ('A' for Active; 'I' for Inactive)
REMARK    1  A    between atoms: C_1  and  C_10
REMARK    2  A    between atoms: C_4  and  C_9
REMARK    3  A    between atoms: C_10  and  N_11
REMARK                            x       y       z     vdW  Elec       q    Type
REMARK                         _______ _______ _______ _____ _____    ______ ____
ROOT
ATOM      1  C   UNL     1      -1.692   0.000  -0.281  0.00  0.00    -0.044 C 
ATOM      2  C   UNL     1      -0.998  -1.208  -0.217  0.00  0.00    -0.006 C 
ATOM      3  C   UNL     1      -0.998   1.208  -0.217  0.00  0.00    -0.006 C 
ATOM      4  C   UNL     1       1.086   0.000  -0.025  0.00  0.00    +0.080 C 
ATOM      5  C   UNL     1       0.391  -1.208  -0.089  0.00  0.00    +0.006 C 
ATOM      6  C   UNL     1       0.391   1.208  -0.089  0.00  0.00    +0.006 C 
ENDROOT
BRANCH   4   9
ATOM      7  O   UNL     1       3.169   1.129   0.166  0.00  0.00    -0.241 OA
ATOM      8  O   UNL     1       3.168  -1.129   0.167  0.00  0.00    -0.241 OA
ATOM      9  C   UNL     1       2.551   0.000   0.110  0.00  0.00    +0.388 C 
ENDBRANCH   4   9
BRANCH   1  10
ATOM     10  C   UNL     1      -3.178  -0.001  -0.416  0.00  0.00    -0.059 C 
BRANCH  10  11
ATOM     11  N   UNL     1      -3.890   0.001   0.892  0.00  0.00    +0.383 N 
ATOM     12  H   UNL     1      -4.897   0.000   0.730  0.00  0.00    -0.089 HD
ATOM     13  H   UNL     1      -3.630   0.834   1.420  0.00  0.00    -0.089 HD
ATOM     14  H   UNL     1      -3.630  -0.832   1.421  0.00  0.00    -0.089 HD
ENDBRANCH  10  11
ENDBRANCH   1  10
TORSDOF 3
