REMARK  Name = 72141
REMARK  5 active torsions:
REMARK  status: ('A' for Active; 'I' for Inactive)
REMARK    1  A    between atoms: C_1  and  C_2
REMARK    2  A    between atoms: C_1  and  C_9
REMARK    3  A    between atoms: C_1  and  C_15
REMARK    4  A    between atoms: C_15  and  C_16
REMARK    5  A    between atoms: C_16  and  N_17
REMARK                            x       y       z     vdW  Elec       q    Type
REMARK                         _______ _______ _______ _____ _____    ______ ____
ROOT
ATOM      1  C   UNL     1       0.354   0.521  -0.687  0.00  0.00    +0.042 C 
ENDROOT
BRANCH   1   2
ATOM      2  C   UNL     1      -0.366  -0.774  -0.334  0.00  0.00    -0.019 C 
ATOM      3  C   UNL     1      -0.894  -1.540  -1.352  0.00  0.00    -0.004 C 
ATOM      4  C   UNL     1      -0.467  -1.139   0.992  0.00  0.00    -0.004 C 
ATOM      5  C   UNL     1      -1.554  -2.726  -1.029  0.00  0.00    -0.005 C 
ATOM      6  C   UNL     1      -1.127  -2.325   1.315  0.00  0.00    -0.005 C 
ATOM      7  C   UNL     1      -1.671  -3.118   0.304  0.00  0.00    -0.022 C 
ATOM      8  C   UNL     1      -2.375  -4.386   0.649  0.00  0.00    +0.031 C 
ENDBRANCH   1   2
BRANCH   1   9
ATOM      9  C   UNL     1       1.831   0.453  -0.307  0.00  0.00    -0.019 C 
ATOM     10  C   UNL     1       2.704  -0.196  -1.154  0.00  0.00    -0.004 C 
ATOM     11  C   UNL     1       2.241   1.042   0.869  0.00  0.00    -0.004 C 
ATOM     12  C   UNL     1       4.053  -0.258  -0.807  0.00  0.00    -0.000 C 
ATOM     13  C   UNL     1       3.591   0.980   1.216  0.00  0.00    -0.000 C 
ATOM     14  C   UNL     1       4.497   0.329   0.378  0.00  0.00    -0.000 C 
ENDBRANCH   1   9
BRANCH   1  15
ATOM     15  C   UNL     1      -0.354   1.794  -0.152  0.00  0.00    -0.014 C 
BRANCH  15  16
ATOM     16  C   UNL     1      -1.816   1.885  -0.602  0.00  0.00    -0.077 C 
BRANCH  16  17
ATOM     17  N   UNL     1      -2.427   3.105  -0.085  0.00  0.00    +0.384 N 
ATOM     18  C   UNL     1      -2.427   3.100   1.379  0.00  0.00    -0.101 C 
ATOM     19  C   UNL     1      -3.792   3.252  -0.592  0.00  0.00    -0.101 C 
ATOM     20  H   UNL     1      -1.875   3.900  -0.406  0.00  0.00    -0.080 HD
ENDBRANCH  16  17
ENDBRANCH  15  16
ENDBRANCH   1  15
TORSDOF 5
