REMARK  Name = 160134
REMARK  8 active torsions:
REMARK  status: ('A' for Active; 'I' for Inactive)
REMARK    1  A    between atoms: C_1  and  C_5
REMARK    2  A    between atoms: C_1  and  O_15
REMARK    3  A    between atoms: C_5  and  O_6
REMARK    4  A    between atoms: O_6  and  C_7
REMARK    5  A    between atoms: C_7  and  C_8
REMARK    6  A    between atoms: C_8  and  C_9
REMARK    7  A    between atoms: C_9  and  C_12
REMARK    8  A    between atoms: O_15  and  C_17
REMARK                            x       y       z     vdW  Elec       q    Type
REMARK                         _______ _______ _______ _____ _____    ______ ____
ROOT
ATOM      1  C   UNL     1      -1.683   2.077   0.737  0.00  0.00    +0.221 C 
ATOM      2  C   UNL     1      -1.007   3.145   1.592  0.00  0.00    +0.055 C 
ATOM      3  C   UNL     1      -3.163   2.396   0.535  0.00  0.00    +0.055 C 
ENDROOT
BRANCH   1   5
ATOM      4  O   UNL     1      -1.510   2.151  -1.689  0.00  0.00    -0.246 OA
ATOM      5  C   UNL     1      -0.963   1.987  -0.605  0.00  0.00    +0.353 C 
BRANCH   5   6
ATOM      6  O   UNL     1       0.373   1.739  -0.429  0.00  0.00    -0.446 OA
BRANCH   6   7
ATOM      7  C   UNL     1       1.156   1.672  -1.614  0.00  0.00    +0.209 C 
BRANCH   7   8
ATOM      8  C   UNL     1       2.604   1.391  -1.229  0.00  0.00    +0.057 C 
BRANCH   8   9
ATOM      9  C   UNL     1       2.772   0.067  -0.485  0.00  0.00    +0.089 C 
BRANCH   9  12
ATOM     10  O   UNL     1       5.122   0.540  -0.377  0.00  0.00    -0.275 OA
ATOM     11  N   UNL     1       4.420  -1.448   0.586  0.00  0.00    -0.276 N 
ATOM     12  C   UNL     1       4.213  -0.245  -0.098  0.00  0.00    +0.226 C 
ATOM     13  C   UNL     1       5.741  -1.877   1.029  0.00  0.00    +0.115 C 
ATOM     14  C   UNL     1       3.328  -2.364   0.907  0.00  0.00    +0.115 C 
ENDBRANCH   9  12
ENDBRANCH   8   9
ENDBRANCH   7   8
ENDBRANCH   6   7
ENDBRANCH   5   6
ENDBRANCH   1   5
BRANCH   1  15
ATOM     15  O   UNL     1      -1.585   0.837   1.424  0.00  0.00    -0.472 OA
BRANCH  15  17
ATOM     16 CL   UNL     1      -3.869  -3.858  -1.263  0.00  0.00    -0.082 Cl
ATOM     17  C   UNL     1      -2.118  -0.260   0.798  0.00  0.00    +0.139 C 
ATOM     18  C   UNL     1      -3.449  -0.597   1.016  0.00  0.00    +0.038 C 
ATOM     19  C   UNL     1      -1.322  -1.022  -0.050  0.00  0.00    +0.038 C 
ATOM     20  C   UNL     1      -3.992  -1.712   0.377  0.00  0.00    +0.015 C 
ATOM     21  C   UNL     1      -1.865  -2.137  -0.688  0.00  0.00    +0.015 C 
ATOM     22  C   UNL     1      -3.200  -2.482  -0.475  0.00  0.00    +0.058 C 
ENDBRANCH  15  17
ENDBRANCH   1  15
TORSDOF 8
