66248
  -OEChem-10061700203D

 54 56  0     1  0  0  0  0  0999 V2000
    0.6750   -0.0473   -1.2446 O   0  0  0  0  0  0  0  0  0  0  0  0
   -0.0346    1.8502   -0.1563 O   0  0  0  0  0  0  0  0  0  0  0  0
   -1.8272    0.0920   -2.1648 O   0  0  0  0  0  0  0  0  0  0  0  0
    4.0334    0.3555    0.1180 N   0  3  0  0  0  0  0  0  0  0  0  0
    2.5109    0.5859    0.2082 C   0  0  0  0  0  0  0  0  0  0  0  0
    4.3010   -0.1250   -1.3219 C   0  0  0  0  0  0  0  0  0  0  0  0
    2.0043    0.4359   -1.2156 C   0  0  1  0  0  0  0  0  0  0  0  0
    2.9478   -0.5823   -1.8205 C   0  0  0  0  0  0  0  0  0  0  0  0
    4.7913    1.6437    0.3947 C   0  0  0  0  0  0  0  0  0  0  0  0
    4.4657   -0.7054    1.1202 C   0  0  0  0  0  0  0  0  0  0  0  0
    6.2757    1.3896    0.2488 C   0  0  0  0  0  0  0  0  0  0  0  0
    4.2179   -0.1960    2.5231 C   0  0  0  0  0  0  0  0  0  0  0  0
   -0.2738    0.7651   -0.6726 C   0  0  0  0  0  0  0  0  0  0  0  0
   -1.6560    0.1099   -0.7329 C   0  0  0  0  0  0  0  0  0  0  0  0
   -1.6540   -1.3235   -0.1971 C   0  0  0  0  0  0  0  0  0  0  0  0
   -2.7655    0.9361   -0.0775 C   0  0  0  0  0  0  0  0  0  0  0  0
   -2.4161   -2.2692   -0.8435 C   0  0  0  0  0  0  0  0  0  0  0  0
   -2.7479    1.0950    1.2889 C   0  0  0  0  0  0  0  0  0  0  0  0
   -0.8904   -1.6117    0.9105 C   0  0  0  0  0  0  0  0  0  0  0  0
   -3.7374    1.4876   -0.8798 C   0  0  0  0  0  0  0  0  0  0  0  0
   -2.4143   -3.5758   -0.3551 C   0  0  0  0  0  0  0  0  0  0  0  0
   -3.7590    1.8477    1.8864 C   0  0  0  0  0  0  0  0  0  0  0  0
   -0.8887   -2.9183    1.3988 C   0  0  0  0  0  0  0  0  0  0  0  0
   -4.7484    2.2403   -0.2823 C   0  0  0  0  0  0  0  0  0  0  0  0
   -1.6506   -3.9004    0.7660 C   0  0  0  0  0  0  0  0  0  0  0  0
   -4.7592    2.4204    1.1009 C   0  0  0  0  0  0  0  0  0  0  0  0
    2.0695   -0.1769    0.8589 H   0  0  0  0  0  0  0  0  0  0  0  0
    2.3259    1.5761    0.6357 H   0  0  0  0  0  0  0  0  0  0  0  0
    5.0553   -0.9176   -1.3210 H   0  0  0  0  0  0  0  0  0  0  0  0
    4.6464    0.7282   -1.9168 H   0  0  0  0  0  0  0  0  0  0  0  0
    2.0731    1.3836   -1.7655 H   0  0  0  0  0  0  0  0  0  0  0  0
    2.7145   -1.5942   -1.4666 H   0  0  0  0  0  0  0  0  0  0  0  0
    2.8894   -0.6032   -2.9131 H   0  0  0  0  0  0  0  0  0  0  0  0
    4.4589    2.3755   -0.3518 H   0  0  0  0  0  0  0  0  0  0  0  0
    4.5220    2.0390    1.3784 H   0  0  0  0  0  0  0  0  0  0  0  0
    3.8586   -1.5976    0.9241 H   0  0  0  0  0  0  0  0  0  0  0  0
    5.5118   -0.9775    0.9519 H   0  0  0  0  0  0  0  0  0  0  0  0
    6.7993    2.3528    0.2747 H   0  0  0  0  0  0  0  0  0  0  0  0
    6.6880    0.8068    1.0771 H   0  0  0  0  0  0  0  0  0  0  0  0
    6.5597    0.9093   -0.6909 H   0  0  0  0  0  0  0  0  0  0  0  0
    4.3049   -1.0363    3.2220 H   0  0  0  0  0  0  0  0  0  0  0  0
    4.9718    0.5303    2.8413 H   0  0  0  0  0  0  0  0  0  0  0  0
    3.2281    0.2399    2.6806 H   0  0  0  0  0  0  0  0  0  0  0  0
   -1.2401   -0.5867   -2.5410 H   0  0  0  0  0  0  0  0  0  0  0  0
   -3.0291   -2.0352   -1.7080 H   0  0  0  0  0  0  0  0  0  0  0  0
   -1.9714    0.6833    1.9223 H   0  0  0  0  0  0  0  0  0  0  0  0
   -0.2902   -0.8667    1.4219 H   0  0  0  0  0  0  0  0  0  0  0  0
   -3.7632    1.3682   -1.9574 H   0  0  0  0  0  0  0  0  0  0  0  0
   -3.0104   -4.3399   -0.8456 H   0  0  0  0  0  0  0  0  0  0  0  0
   -3.7644    1.9928    2.9628 H   0  0  0  0  0  0  0  0  0  0  0  0
   -0.2942   -3.1710    2.2720 H   0  0  0  0  0  0  0  0  0  0  0  0
   -5.5275    2.6864   -0.8935 H   0  0  0  0  0  0  0  0  0  0  0  0
   -1.6500   -4.9175    1.1467 H   0  0  0  0  0  0  0  0  0  0  0  0
   -5.5456    3.0076    1.5660 H   0  0  0  0  0  0  0  0  0  0  0  0
  1  7  1  0  0  0  0
  1 13  1  0  0  0  0
  2 13  2  0  0  0  0
  3 14  1  0  0  0  0
  3 44  1  0  0  0  0
  4  5  1  0  0  0  0
  4  6  1  0  0  0  0
  4  9  1  0  0  0  0
  4 10  1  0  0  0  0
  5  7  1  0  0  0  0
  5 27  1  0  0  0  0
  5 28  1  0  0  0  0
  6  8  1  0  0  0  0
  6 29  1  0  0  0  0
  6 30  1  0  0  0  0
  7  8  1  0  0  0  0
  7 31  1  0  0  0  0
  8 32  1  0  0  0  0
  8 33  1  0  0  0  0
  9 11  1  0  0  0  0
  9 34  1  0  0  0  0
  9 35  1  0  0  0  0
 10 12  1  0  0  0  0
 10 36  1  0  0  0  0
 10 37  1  0  0  0  0
 11 38  1  0  0  0  0
 11 39  1  0  0  0  0
 11 40  1  0  0  0  0
 12 41  1  0  0  0  0
 12 42  1  0  0  0  0
 12 43  1  0  0  0  0
 13 14  1  0  0  0  0
 14 15  1  0  0  0  0
 14 16  1  0  0  0  0
 15 17  2  0  0  0  0
 15 19  1  0  0  0  0
 16 18  2  0  0  0  0
 16 20  1  0  0  0  0
 17 21  1  0  0  0  0
 17 45  1  0  0  0  0
 18 22  1  0  0  0  0
 18 46  1  0  0  0  0
 19 23  2  0  0  0  0
 19 47  1  0  0  0  0
 20 24  2  0  0  0  0
 20 48  1  0  0  0  0
 21 25  2  0  0  0  0
 21 49  1  0  0  0  0
 22 26  2  0  0  0  0
 22 50  1  0  0  0  0
 23 25  1  0  0  0  0
 23 51  1  0  0  0  0
 24 26  1  0  0  0  0
 24 52  1  0  0  0  0
 25 53  1  0  0  0  0
 26 54  1  0  0  0  0
M  CHG  1   4   1
M  END
> <DATABASE_ID>
DB13369

> <DATABASE_NAME>
drugbank

> <ORIGINAL_SOURCE>
PUBCHEM

> <ORIGINAL_SOURCE_URL>
https://pubchem.ncbi.nlm.nih.gov/rest/pug/compound/inchikey/ZKCWITXZGWUJAV-UHFFFAOYSA-N/SDF?record_type=3d

> <SMILES>
CC[N+]1(CC)CCC(C1)OC(=O)C(O)(C1=CC=CC=C1)C1=CC=CC=C1

> <INCHI_IDENTIFIER>
InChI=1S/C22H28NO3/c1-3-23(4-2)16-15-20(17-23)26-21(24)22(25,18-11-7-5-8-12-18)19-13-9-6-10-14-19/h5-14,20,25H,3-4,15-17H2,1-2H3/q+1

> <INCHI_KEY>
ZKCWITXZGWUJAV-UHFFFAOYSA-N

> <FORMULA>
C22H28NO3

> <MOLECULAR_WEIGHT>
354.469

> <EXACT_MASS>
354.206370186

> <JCHEM_ACCEPTOR_COUNT>
2

> <JCHEM_ATOM_COUNT>
54

> <JCHEM_AVERAGE_POLARIZABILITY>
39.458336752733246

> <JCHEM_BIOAVAILABILITY>
1

> <JCHEM_DONOR_COUNT>
1

> <JCHEM_FORMAL_CHARGE>
1

> <JCHEM_GHOSE_FILTER>
0

> <JCHEM_IUPAC>
1,1-diethyl-3-[(2-hydroxy-2,2-diphenylacetyl)oxy]pyrrolidin-1-ium

> <ALOGPS_LOGP>
2.32

> <JCHEM_LOGP>
-0.7784331751384119

> <ALOGPS_LOGS>
-6.02

> <JCHEM_MDDR_LIKE_RULE>
1

> <JCHEM_NUMBER_OF_RINGS>
3

> <JCHEM_PHYSIOLOGICAL_CHARGE>
1

> <JCHEM_PKA_STRONGEST_ACIDIC>
11.047515679906306

> <JCHEM_PKA_STRONGEST_BASIC>
-4.52761664160898

> <JCHEM_POLAR_SURFACE_AREA>
46.53

> <JCHEM_REFRACTIVITY>
114.24770000000004

> <JCHEM_ROTATABLE_BOND_COUNT>
7

> <JCHEM_RULE_OF_FIVE>
1

> <ALOGPS_SOLUBILITY>
3.75e-04 g/l

> <JCHEM_TRADITIONAL_IUPAC>
benzilone

> <JCHEM_VEBER_RULE>
0

> <DRUGBANK_ID>
DB13369

> <DRUG_GROUPS>
experimental

> <GENERIC_NAME>
Benzilone

> <SYNONYMS>
Benzilonium

$$$$
