REMARK  Name = 16229
REMARK  9 active torsions:
REMARK  status: ('A' for Active; 'I' for Inactive)
REMARK    1  A    between atoms: N_3  and  C_14
REMARK    2  A    between atoms: C_8  and  C_24
REMARK    3  A    between atoms: C_14  and  C_15
REMARK    4  A    between atoms: C_15  and  N_16
REMARK    5  A    between atoms: N_16  and  C_18
REMARK    6  A    between atoms: N_16  and  C_20
REMARK    7  A    between atoms: C_20  and  C_21
REMARK    8  A    between atoms: C_21  and  O_22
REMARK    9  A    between atoms: C_24  and  C_25
REMARK                            x       y       z     vdW  Elec       q    Type
REMARK                         _______ _______ _______ _____ _____    ______ ____
ROOT
ATOM      1  O   UNL     1      -2.294   2.448   0.617  0.00  0.00    -0.272 OA
ATOM      2  O   UNL     1       1.235   5.153  -0.880  0.00  0.00    -0.252 OA
ATOM      3  N   UNL     1      -0.302   0.216   0.597  0.00  0.00    -0.276 N 
ATOM      4  N   UNL     1       1.667   2.899  -0.497  0.00  0.00    -0.218 N 
ATOM      5  N   UNL     1       1.826   0.492  -0.010  0.00  0.00    -0.378 NA
ATOM      6  N   UNL     1      -0.542   3.822  -0.134  0.00  0.00    -0.210 N 
ATOM      7  C   UNL     1      -0.165   1.535   0.272  0.00  0.00    +0.220 C 
ATOM      8  C   UNL     1       0.923  -0.370   0.411  0.00  0.00    +0.166 C 
ATOM      9  C   UNL     1       1.146   1.677  -0.095  0.00  0.00    +0.195 C 
ATOM     10  C   UNL     1      -1.121   2.595   0.285  0.00  0.00    +0.259 C 
ATOM     11  C   UNL     1       0.826   4.040  -0.532  0.00  0.00    +0.318 C 
ATOM     12  C   UNL     1       3.070   2.999  -0.879  0.00  0.00    +0.124 C 
ATOM     13  C   UNL     1      -1.424   4.985  -0.164  0.00  0.00    +0.124 C 
ENDROOT
BRANCH   3  14
ATOM     14  C   UNL     1      -1.504  -0.444   1.050  0.00  0.00    +0.071 C 
BRANCH  14  15
ATOM     15  C   UNL     1      -2.323  -0.998  -0.113  0.00  0.00    -0.055 C 
BRANCH  15  16
ATOM     16  N   UNL     1      -3.511  -1.677   0.389  0.00  0.00    +0.390 N 
ATOM     17  H   UNL     1      -3.210  -2.428   1.010  0.00  0.00    -0.080 HD
BRANCH  16  18
ATOM     18  C   UNL     1      -4.352  -0.751   1.150  0.00  0.00    -0.077 C 
ATOM     19  C   UNL     1      -5.595  -1.446   1.678  0.00  0.00    -0.025 C 
ENDBRANCH  16  18
BRANCH  16  20
ATOM     20  C   UNL     1      -4.274  -2.264  -0.715  0.00  0.00    -0.045 C 
BRANCH  20  21
ATOM     21  C   UNL     1      -3.423  -3.260  -1.486  0.00  0.00    +0.115 C 
BRANCH  21  22
ATOM     22  O   UNL     1      -4.206  -3.817  -2.533  0.00  0.00    -0.384 OA
ATOM     23  H   UNL     1      -3.673  -4.454  -3.032  0.00  0.00    +0.210 HD
ENDBRANCH  21  22
ENDBRANCH  20  21
ENDBRANCH  16  20
ENDBRANCH  15  16
ENDBRANCH  14  15
ENDBRANCH   3  14
BRANCH   8  24
ATOM     24  C   UNL     1       1.153  -1.808   0.665  0.00  0.00    +0.101 C 
BRANCH  24  25
ATOM     25  C   UNL     1       2.581  -2.262   0.396  0.00  0.00    -0.014 C 
ATOM     26  C   UNL     1       3.501  -2.212   1.423  0.00  0.00    -0.004 C 
ATOM     27  C   UNL     1       2.911  -2.711  -0.867  0.00  0.00    -0.004 C 
ATOM     28  C   UNL     1       4.809  -2.628   1.176  0.00  0.00    -0.000 C 
ATOM     29  C   UNL     1       4.219  -3.127  -1.113  0.00  0.00    -0.000 C 
ATOM     30  C   UNL     1       5.168  -3.086  -0.091  0.00  0.00    -0.000 C 
ENDBRANCH  24  25
ENDBRANCH   8  24
TORSDOF 9
