REMARK  Name = 41386
REMARK  2 active torsions:
REMARK  status: ('A' for Active; 'I' for Inactive)
REMARK    1  A    between atoms: C_1  and  N_4
REMARK    2  A    between atoms: C_1  and  C_14
REMARK                            x       y       z     vdW  Elec       q    Type
REMARK                         _______ _______ _______ _____ _____    ______ ____
ROOT
ATOM      1  C   UNL     1       0.616  -0.984  -1.121  0.00  0.00    +0.121 C 
ATOM      2  C   UNL     1       0.765  -0.556  -2.583  0.00  0.00    +0.029 C 
ENDROOT
BRANCH   1   4
ATOM      3  O   UNL     1       1.989  -2.119   1.245  0.00  0.00    -0.273 OA
ATOM      4  N   UNL     1       1.664  -0.388  -0.330  0.00  0.00    -0.177 N 
ATOM      5  N   UNL     1       2.182   0.851  -0.596  0.00  0.00    -0.165 NA
ATOM      6  N   UNL     1       3.880   2.195   0.420  0.00  0.00    -0.344 N 
ATOM      7  C   UNL     1       2.235  -1.025   0.767  0.00  0.00    +0.252 C 
ATOM      8  C   UNL     1       3.260  -0.055   1.269  0.00  0.00    +0.149 C 
ATOM      9  C   UNL     1       3.099   1.083   0.295  0.00  0.00    +0.129 C 
ATOM     10  H   UNL     1       3.779   2.941  -0.214  0.00  0.00    +0.143 HD
ATOM     11  H   UNL     1       4.545   2.251   1.144  0.00  0.00    +0.143 HD
ENDBRANCH   1   4
BRANCH   1  14
ATOM     12 CL   UNL     1      -2.870   2.666   0.022  0.00  0.00    -0.081 Cl
ATOM     13 CL   UNL     1      -4.830   0.311   1.064  0.00  0.00    -0.081 Cl
ATOM     14  C   UNL     1      -0.755  -0.640  -0.573  0.00  0.00    -0.001 C 
ATOM     15  C   UNL     1      -1.149   0.684  -0.525  0.00  0.00    +0.010 C 
ATOM     16  C   UNL     1      -1.579  -1.661  -0.133  0.00  0.00    -0.002 C 
ATOM     17  C   UNL     1      -2.411   0.999  -0.021  0.00  0.00    +0.068 C 
ATOM     18  C   UNL     1      -2.840  -1.346   0.372  0.00  0.00    +0.012 C 
ATOM     19  C   UNL     1      -3.256  -0.016   0.428  0.00  0.00    +0.068 C 
ENDBRANCH   1  14
TORSDOF 2
