REMARK  Name = 9818878
REMARK  6 active torsions:
REMARK  status: ('A' for Active; 'I' for Inactive)
REMARK    1  A    between atoms: C_5  and  O_20
REMARK    2  A    between atoms: C_6  and  O_24
REMARK    3  A    between atoms: C_7  and  C_12
REMARK    4  A    between atoms: C_9  and  O_22
REMARK    5  A    between atoms: C_10  and  O_26
REMARK    6  A    between atoms: C_13  and  O_18
REMARK                            x       y       z     vdW  Elec       q    Type
REMARK                         _______ _______ _______ _____ _____    ______ ____
ROOT
ATOM      1  O   UNL     1       0.642   0.529   0.161  0.00  0.00    -0.450 OA
ATOM      2  O   UNL     1      -0.732  -3.294  -0.146  0.00  0.00    -0.286 OA
ATOM      3  C   UNL     1      -1.244  -0.990  -0.037  0.00  0.00    +0.113 A 
ATOM      4  C   UNL     1      -0.706   0.292   0.072  0.00  0.00    +0.188 A 
ATOM      5  C   UNL     1      -1.551   1.402   0.096  0.00  0.00    +0.210 A 
ATOM      6  C   UNL     1      -2.626  -1.171  -0.123  0.00  0.00    +0.177 A 
ATOM      7  C   UNL     1       1.506  -0.554   0.133  0.00  0.00    +0.151 C 
ATOM      8  C   UNL     1      -0.330  -2.142  -0.058  0.00  0.00    +0.205 C 
ATOM      9  C   UNL     1      -3.468  -0.059  -0.100  0.00  0.00    +0.209 A 
ATOM     10  C   UNL     1      -2.932   1.225   0.009  0.00  0.00    +0.209 A 
ATOM     11  C   UNL     1       1.111  -1.834   0.037  0.00  0.00    +0.080 C 
ENDROOT
BRANCH   7  12
ATOM     12  C   UNL     1       2.933  -0.187   0.240  0.00  0.00    +0.068 C 
ATOM     13  C   UNL     1       3.707   0.059  -0.898  0.00  0.00    +0.137 C 
ATOM     14  C   UNL     1       3.517  -0.085   1.506  0.00  0.00    +0.006 C 
ATOM     15  C   UNL     1       5.052   0.405  -0.771  0.00  0.00    +0.037 C 
ATOM     16  C   UNL     1       4.862   0.260   1.633  0.00  0.00    +0.000 C 
ATOM     17  C   UNL     1       5.630   0.505   0.495  0.00  0.00    +0.003 C 
BRANCH  13  18
ATOM     18  O   UNL     1       3.167  -0.032  -2.147  0.00  0.00    -0.505 OA
ATOM     19  H   UNL     1       2.265  -0.263  -2.252  0.00  0.00    +0.292 HD
ENDBRANCH  13  18
ENDBRANCH   7  12
BRANCH   5  20
ATOM     20  O   UNL     1      -1.033   2.659   0.202  0.00  0.00    -0.465 OA
ATOM     21  C   UNL     1      -0.141   3.080  -0.827  0.00  0.00    +0.253 C 
ENDBRANCH   5  20
BRANCH   9  22
ATOM     22  O   UNL     1      -4.820  -0.225  -0.184  0.00  0.00    -0.465 OA
ATOM     23  C   UNL     1      -5.599   0.258   0.907  0.00  0.00    +0.253 C 
ENDBRANCH   9  22
BRANCH   6  24
ATOM     24  O   UNL     1      -3.186  -2.409  -0.231  0.00  0.00    -0.503 OA
ATOM     25  H   UNL     1      -2.640  -3.171  -0.249  0.00  0.00    +0.292 HD
ENDBRANCH   6  24
BRANCH  10  26
ATOM     26  O   UNL     1      -3.760   2.308   0.031  0.00  0.00    -0.501 OA
ATOM     27  H   UNL     1      -3.401   3.171   0.104  0.00  0.00    +0.292 HD
ENDBRANCH  10  26
TORSDOF 6
