REMARK  Name = 68122
REMARK  6 active torsions:
REMARK  status: ('A' for Active; 'I' for Inactive)
REMARK    1  A    between atoms: N_1  and  C_2
REMARK    2  A    between atoms: N_1  and  C_8
REMARK    3  A    between atoms: N_1  and  C_16
REMARK    4  A    between atoms: C_8  and  C_9
REMARK    5  A    between atoms: C_9  and  N_10
REMARK    6  A    between atoms: C_16  and  C_17
REMARK                            x       y       z     vdW  Elec       q    Type
REMARK                         _______ _______ _______ _____ _____    ______ ____
ROOT
ATOM      1  N   UNL     1       0.139  -0.204   0.344  0.00  0.00    -0.306 N 
ENDROOT
BRANCH   1   2
ATOM      2  C   UNL     1       0.684  -1.467   0.070  0.00  0.00    +0.048 C 
ATOM      3  C   UNL     1       0.850  -2.401   1.098  0.00  0.00    +0.015 C 
ATOM      4  C   UNL     1       1.067  -1.803  -1.233  0.00  0.00    +0.015 C 
ATOM      5  C   UNL     1       1.392  -3.658   0.826  0.00  0.00    +0.001 C 
ATOM      6  C   UNL     1       1.609  -3.059  -1.504  0.00  0.00    +0.001 C 
ATOM      7  C   UNL     1       1.771  -3.987  -0.475  0.00  0.00    +0.000 C 
ENDBRANCH   1   2
BRANCH   1   8
ATOM      8  C   UNL     1      -1.069   0.250  -0.303  0.00  0.00    +0.068 C 
BRANCH   8   9
ATOM      9  C   UNL     1      -2.282  -0.335   0.408  0.00  0.00    -0.056 C 
BRANCH   9  10
ATOM     10  N   UNL     1      -3.510   0.119  -0.227  0.00  0.00    +0.388 N 
ATOM     11  C   UNL     1      -4.705  -0.441   0.404  0.00  0.00    -0.077 C 
ATOM     12  C   UNL     1      -3.679   1.569  -0.141  0.00  0.00    -0.077 C 
ATOM     13  C   UNL     1      -5.821   0.443  -0.135  0.00  0.00    -0.025 C 
ATOM     14  C   UNL     1      -5.146   1.763  -0.496  0.00  0.00    -0.025 C 
ATOM     15  H   UNL     1      -3.417  -0.190  -1.194  0.00  0.00    -0.080 HD
ENDBRANCH   9  10
ENDBRANCH   8   9
ENDBRANCH   1   8
BRANCH   1  16
ATOM     16  C   UNL     1       0.803   0.690   1.293  0.00  0.00    +0.118 C 
BRANCH  16  17
ATOM     17  C   UNL     1       1.938   1.417   0.626  0.00  0.00    -0.002 C 
ATOM     18  C   UNL     1       3.209   0.858   0.634  0.00  0.00    -0.003 C 
ATOM     19  C   UNL     1       1.702   2.639   0.010  0.00  0.00    -0.003 C 
ATOM     20  C   UNL     1       4.262   1.532   0.015  0.00  0.00    -0.000 C 
ATOM     21  C   UNL     1       2.754   3.314  -0.608  0.00  0.00    -0.000 C 
ATOM     22  C   UNL     1       4.035   2.760  -0.606  0.00  0.00    -0.000 C 
ENDBRANCH  16  17
ENDBRANCH   1  16
TORSDOF 6
