REMARK  Name = 68953
REMARK  1 active torsions:
REMARK  status: ('A' for Active; 'I' for Inactive)
REMARK    1  A    between atoms: C_4  and  C_13
REMARK                            x       y       z     vdW  Elec       q    Type
REMARK                         _______ _______ _______ _____ _____    ______ ____
ROOT
ATOM      1 BR   UNL     1       5.305  -1.180  -1.033  0.00  0.00    -0.049 Br
ATOM      2  O   UNL     1      -0.059  -2.317   0.707  0.00  0.00    -0.291 OA
ATOM      3  O   UNL     1      -0.355   2.416   0.876  0.00  0.00    -0.291 OA
ATOM      4  C   UNL     1      -0.779   0.004   1.069  0.00  0.00    +0.146 C 
ATOM      5  C   UNL     1       1.444  -0.526   0.279  0.00  0.00    +0.039 C 
ATOM      6  C   UNL     1       1.357   0.862   0.329  0.00  0.00    +0.038 C 
ATOM      7  C   UNL     1       0.170  -1.122   0.688  0.00  0.00    +0.184 C 
ATOM      8  C   UNL     1       0.021   1.264   0.774  0.00  0.00    +0.184 C 
ATOM      9  C   UNL     1       2.600  -1.167  -0.122  0.00  0.00    +0.010 C 
ATOM     10  C   UNL     1       2.422   1.669  -0.019  0.00  0.00    +0.003 C 
ATOM     11  C   UNL     1       3.690  -0.367  -0.475  0.00  0.00    +0.035 C 
ATOM     12  C   UNL     1       3.602   1.038  -0.425  0.00  0.00    +0.007 C 
ENDROOT
BRANCH   4  13
ATOM     13  C   UNL     1      -2.045  -0.048   0.291  0.00  0.00    -0.008 C 
ATOM     14  C   UNL     1      -3.163  -0.704   0.811  0.00  0.00    -0.003 C 
ATOM     15  C   UNL     1      -2.123   0.561  -0.965  0.00  0.00    -0.003 C 
ATOM     16  C   UNL     1      -4.351  -0.752   0.081  0.00  0.00    -0.000 C 
ATOM     17  C   UNL     1      -3.311   0.513  -1.695  0.00  0.00    -0.000 C 
ATOM     18  C   UNL     1      -4.425  -0.144  -1.172  0.00  0.00    -0.000 C 
ENDBRANCH   4  13
TORSDOF 1
