REMARK  Name = 9863672
REMARK  2 active torsions:
REMARK  status: ('A' for Active; 'I' for Inactive)
REMARK    1  A    between atoms: S_1  and  C_6
REMARK    2  A    between atoms: S_1  and  N_15
REMARK                            x       y       z     vdW  Elec       q    Type
REMARK                         _______ _______ _______ _____ _____    ______ ____
ROOT
ATOM      1  S   UNL     1      -0.398   1.059  -0.174  0.00  0.00    +0.063 S 
ATOM      2  O   UNL     1      -0.067   1.756   1.055  0.00  0.00    -0.153 OA
ATOM      3  O   UNL     1      -0.323   1.716  -1.465  0.00  0.00    -0.153 OA
ENDROOT
BRANCH   1   6
ATOM      4  F   UNL     1       1.937   2.308   0.468  0.00  0.00    -0.202 F 
ATOM      5  N   UNL     1       4.923   0.286   0.448  0.00  0.00    -0.240 NA
ATOM      6  C   UNL     1       0.823  -0.248  -0.293  0.00  0.00    +0.124 C 
ATOM      7  C   UNL     1       2.169  -0.035  -0.041  0.00  0.00    +0.049 C 
ATOM      8  C   UNL     1       0.309  -1.478  -0.654  0.00  0.00    +0.020 C 
ATOM      9  C   UNL     1       3.045  -1.134  -0.163  0.00  0.00    +0.023 C 
ATOM     10  C   UNL     1       1.177  -2.560  -0.774  0.00  0.00    +0.001 C 
ATOM     11  C   UNL     1       2.691   1.210   0.326  0.00  0.00    +0.160 C 
ATOM     12  C   UNL     1       2.540  -2.392  -0.530  0.00  0.00    +0.002 C 
ATOM     13  C   UNL     1       4.399  -0.909   0.092  0.00  0.00    +0.099 C 
ATOM     14  C   UNL     1       4.055   1.314   0.555  0.00  0.00    +0.128 C 
ENDBRANCH   1   6
BRANCH   1  15
ATOM     15  N   UNL     1      -1.941   0.320   0.005  0.00  0.00    -0.159 NA
ATOM     16  N   UNL     1      -4.977  -0.470   0.076  0.00  0.00    +0.385 N 
ATOM     17  C   UNL     1      -3.115   1.153  -0.421  0.00  0.00    +0.058 C 
ATOM     18  C   UNL     1      -2.092  -0.545   1.204  0.00  0.00    +0.093 C 
ATOM     19  C   UNL     1      -4.429   0.864   0.319  0.00  0.00    -0.064 C 
ATOM     20  C   UNL     1      -2.974  -1.748   0.890  0.00  0.00    -0.004 C 
ATOM     21  C   UNL     1      -4.469  -1.466   1.015  0.00  0.00    -0.080 C 
ATOM     22  C   UNL     1      -3.285   0.999  -1.936  0.00  0.00    +0.017 C 
ATOM     23  H   UNL     1      -4.728  -0.758  -0.871  0.00  0.00    -0.084 HD
ATOM     24  H   UNL     1      -5.988  -0.416   0.200  0.00  0.00    -0.084 HD
ENDBRANCH   1  15
TORSDOF 2
