REMARK  Name = 35935
REMARK  4 active torsions:
REMARK  status: ('A' for Active; 'I' for Inactive)
REMARK    1  A    between atoms: C_2  and  N_8
REMARK    2  A    between atoms: C_3  and  C_13
REMARK    3  A    between atoms: C_13  and  C_16
REMARK    4  A    between atoms: C_16  and  O_17
REMARK                            x       y       z     vdW  Elec       q    Type
REMARK                         _______ _______ _______ _____ _____    ______ ____
ROOT
ATOM      1 CL   UNL     1      -1.144  -2.214   1.131  0.00  0.00    -0.081 Cl
ATOM      2  C   UNL     1      -1.201   0.262  -0.016  0.00  0.00    +0.066 C 
ATOM      3  C   UNL     1       1.571   0.539   0.135  0.00  0.00    -0.011 C 
ATOM      4  C   UNL     1      -0.427  -0.761   0.533  0.00  0.00    +0.071 C 
ATOM      5  C   UNL     1      -0.590   1.422  -0.490  0.00  0.00    +0.016 C 
ATOM      6  C   UNL     1       0.959  -0.622   0.608  0.00  0.00    +0.009 C 
ATOM      7  C   UNL     1       0.796   1.561  -0.414  0.00  0.00    -0.002 C 
ENDROOT
BRANCH   2   8
ATOM      8  N   UNL     1      -2.607   0.150  -0.108  0.00  0.00    -0.262 N 
ATOM      9  C   UNL     1      -3.252  -0.417  -1.254  0.00  0.00    +0.070 C 
ATOM     10  C   UNL     1      -3.476   0.603   0.936  0.00  0.00    +0.070 C 
ATOM     11  C   UNL     1      -4.686  -0.293  -0.854  0.00  0.00    +0.018 C 
ATOM     12  C   UNL     1      -4.809   0.268   0.352  0.00  0.00    +0.018 C 
ENDBRANCH   2   8
BRANCH   3  13
ATOM     13  C   UNL     1       3.052   0.688   0.215  0.00  0.00    +0.121 C 
ATOM     14  C   UNL     1       3.608   0.653   1.653  0.00  0.00    +0.016 C 
BRANCH  13  16
ATOM     15  O   UNL     1       3.256  -1.249  -1.259  0.00  0.00    -0.250 OA
ATOM     16  C   UNL     1       3.800  -0.363  -0.613  0.00  0.00    +0.317 C 
BRANCH  16  17
ATOM     17  O   UNL     1       5.151  -0.226  -0.554  0.00  0.00    -0.480 OA
ATOM     18  H   UNL     1       5.530   0.466  -0.048  0.00  0.00    +0.295 HD
ENDBRANCH  16  17
ENDBRANCH  13  16
ENDBRANCH   3  13
TORSDOF 4
