REMARK  Name = 4904
REMARK  6 active torsions:
REMARK  status: ('A' for Active; 'I' for Inactive)
REMARK    1  A    between atoms: C_1  and  C_2
REMARK    2  A    between atoms: C_1  and  C_8
REMARK    3  A    between atoms: C_1  and  O_14
REMARK    4  A    between atoms: C_1  and  C_16
REMARK    5  A    between atoms: C_16  and  C_17
REMARK    6  A    between atoms: C_17  and  N_18
REMARK                            x       y       z     vdW  Elec       q    Type
REMARK                         _______ _______ _______ _____ _____    ______ ____
ROOT
ATOM      1  C   UNL     1       0.826  -0.144  -0.558  0.00  0.00    +0.124 C 
ENDROOT
BRANCH   1   2
ATOM      2  C   UNL     1       1.947  -1.130  -0.194  0.00  0.00    +0.005 C 
ATOM      3  C   UNL     1       3.194  -0.927  -0.731  0.00  0.00    -0.002 C 
ATOM      4  C   UNL     1       1.652  -2.169   0.654  0.00  0.00    -0.002 C 
ATOM      5  C   UNL     1       4.211  -1.821  -0.400  0.00  0.00    -0.000 C 
ATOM      6  C   UNL     1       2.670  -3.063   0.985  0.00  0.00    -0.000 C 
ATOM      7  C   UNL     1       3.950  -2.889   0.458  0.00  0.00    -0.000 C 
ENDBRANCH   1   2
BRANCH   1   8
ATOM      8  C   UNL     1       1.207   1.277  -0.117  0.00  0.00    +0.005 C 
ATOM      9  C   UNL     1       1.443   1.505   1.216  0.00  0.00    -0.002 C 
ATOM     10  C   UNL     1       1.295   2.257  -1.075  0.00  0.00    -0.002 C 
ATOM     11  C   UNL     1       1.790   2.796   1.617  0.00  0.00    -0.000 C 
ATOM     12  C   UNL     1       1.642   3.547  -0.674  0.00  0.00    -0.000 C 
ATOM     13  C   UNL     1       1.889   3.816   0.672  0.00  0.00    -0.000 C 
ENDBRANCH   1   8
BRANCH   1  14
ATOM     14  O   UNL     1       0.685  -0.197  -1.991  0.00  0.00    -0.379 OA
ATOM     15  H   UNL     1       0.444  -1.097  -2.259  0.00  0.00    +0.211 HD
ENDBRANCH   1  14
BRANCH   1  16
ATOM     16  C   UNL     1      -0.577  -0.534   0.003  0.00  0.00    +0.013 C 
BRANCH  16  17
ATOM     17  C   UNL     1      -1.711   0.409  -0.427  0.00  0.00    -0.074 C 
BRANCH  17  18
ATOM     18  N   UNL     1      -2.979  -0.030   0.156  0.00  0.00    +0.387 N 
ATOM     19  C   UNL     1      -3.324  -1.377  -0.321  0.00  0.00    -0.077 C 
ATOM     20  C   UNL     1      -4.047   0.932  -0.151  0.00  0.00    -0.077 C 
ATOM     21  C   UNL     1      -4.623  -1.872   0.317  0.00  0.00    -0.023 C 
ATOM     22  C   UNL     1      -5.369   0.512   0.492  0.00  0.00    -0.023 C 
ATOM     23  C   UNL     1      -5.769  -0.897   0.071  0.00  0.00    -0.004 C 
ATOM     24  H   UNL     1      -2.876  -0.072   1.169  0.00  0.00    -0.080 HD
ENDBRANCH  17  18
ENDBRANCH  16  17
ENDBRANCH   1  16
TORSDOF 6
