REMARK  Name = 71899
REMARK  4 active torsions:
REMARK  status: ('A' for Active; 'I' for Inactive)
REMARK    1  A    between atoms: C_1  and  C_7
REMARK    2  A    between atoms: C_2  and  O_10
REMARK    3  A    between atoms: O_10  and  C_11
REMARK    4  A    between atoms: C_11  and  C_15
REMARK                            x       y       z     vdW  Elec       q    Type
REMARK                         _______ _______ _______ _____ _____    ______ ____
ROOT
ATOM      1  C   UNL     1      -1.793   0.454   0.087  0.00  0.00    +0.011 C 
ATOM      2  C   UNL     1      -1.096  -0.732   0.288  0.00  0.00    +0.135 C 
ATOM      3  C   UNL     1      -3.135   0.410  -0.292  0.00  0.00    -0.001 C 
ATOM      4  C   UNL     1      -1.722  -1.961   0.115  0.00  0.00    +0.037 C 
ATOM      5  C   UNL     1      -3.770  -0.819  -0.468  0.00  0.00    -0.000 C 
ATOM      6  C   UNL     1      -3.063  -2.005  -0.265  0.00  0.00    +0.003 C 
ENDROOT
BRANCH   1   7
ATOM      7  C   UNL     1      -1.129   1.779   0.271  0.00  0.00    +0.025 C 
ATOM      8  C   UNL     1      -1.776   2.609   1.395  0.00  0.00    +0.005 C 
ATOM      9  C   UNL     1      -1.090   2.601  -1.031  0.00  0.00    +0.005 C 
ENDBRANCH   1   7
BRANCH   2  10
ATOM     10  O   UNL     1       0.224  -0.706   0.662  0.00  0.00    -0.468 OA
BRANCH  10  11
ATOM     11  C   UNL     1       1.151  -1.329  -0.210  0.00  0.00    +0.266 C 
BRANCH  11  15
ATOM     12  N   UNL     1       2.752   0.431  -0.938  0.00  0.00    -0.296 N 
ATOM     13  N   UNL     1       3.398  -0.995   0.715  0.00  0.00    -0.228 NA
ATOM     14  C   UNL     1       4.058   0.938  -0.641  0.00  0.00    +0.084 C 
ATOM     15  C   UNL     1       2.470  -0.633  -0.135  0.00  0.00    +0.154 C 
ATOM     16  C   UNL     1       4.520  -0.043   0.447  0.00  0.00    +0.116 C 
ATOM     17  H   UNL     1       2.147   0.797  -1.622  0.00  0.00    +0.153 HD
ENDBRANCH  11  15
ENDBRANCH  10  11
ENDBRANCH   2  10
TORSDOF 4
