17182
  -OEChem-10061700303D

 63 66  0     1  0  0  0  0  0999 V2000
    1.4606    0.7252    2.2545 S   0  0  0  0  0  0  0  0  0  0  0  0
   -5.3855   -0.1291    0.7473 O   0  0  0  0  0  0  0  0  0  0  0  0
   -6.8280   -0.7505   -1.5684 O   0  0  0  0  0  0  0  0  0  0  0  0
   -0.2769   -0.3786   -1.3023 N   0  0  0  0  0  0  0  0  0  0  0  0
   -2.5712   -0.2129    0.4489 N   0  0  0  0  0  0  0  0  0  0  0  0
    2.6768    0.0914   -0.5355 N   0  0  0  0  0  0  0  0  0  0  0  0
    0.3679   -0.6774   -2.5796 C   0  0  0  0  0  0  0  0  0  0  0  0
    1.7643   -1.3002   -2.3905 C   0  0  2  0  0  0  0  0  0  0  0  0
   -1.2813    0.6803   -1.4604 C   0  0  0  0  0  0  0  0  0  0  0  0
   -0.8897   -1.5848   -0.7329 C   0  0  0  0  0  0  0  0  0  0  0  0
   -1.9596    0.9932   -0.1222 C   0  0  0  0  0  0  0  0  0  0  0  0
   -1.5668   -1.2721    0.6060 C   0  0  0  0  0  0  0  0  0  0  0  0
    2.8382   -0.2924   -1.9439 C   0  0  0  0  0  0  0  0  0  0  0  0
   -3.2141    0.0865    1.7269 C   0  0  0  0  0  0  0  0  0  0  0  0
    2.1872   -2.0279   -3.6718 C   0  0  0  0  0  0  0  0  0  0  0  0
   -4.5647    0.7488    1.5063 C   0  0  0  0  0  0  0  0  0  0  0  0
    2.8073   -0.9305    0.4387 C   0  0  0  0  0  0  0  0  0  0  0  0
    2.4689    1.4653   -0.2530 C   0  0  0  0  0  0  0  0  0  0  0  0
    2.3172   -0.7527    1.7477 C   0  0  0  0  0  0  0  0  0  0  0  0
    1.9449    1.8803    0.9874 C   0  0  0  0  0  0  0  0  0  0  0  0
    3.4602   -2.1510    0.1593 C   0  0  0  0  0  0  0  0  0  0  0  0
    2.8067    2.4782   -1.1770 C   0  0  0  0  0  0  0  0  0  0  0  0
    2.4561   -1.7665    2.7122 C   0  0  0  0  0  0  0  0  0  0  0  0
    1.7475    3.2447    1.2651 C   0  0  0  0  0  0  0  0  0  0  0  0
    3.5999   -3.1535    1.1232 C   0  0  0  0  0  0  0  0  0  0  0  0
    2.6132    3.8330   -0.8938 C   0  0  0  0  0  0  0  0  0  0  0  0
   -6.6676    0.4342    0.5057 C   0  0  0  0  0  0  0  0  0  0  0  0
    3.0944   -2.9621    2.4001 C   0  0  0  0  0  0  0  0  0  0  0  0
    2.0799    4.2165    0.3274 C   0  0  0  0  0  0  0  0  0  0  0  0
   -7.4855   -0.5354   -0.3255 C   0  0  0  0  0  0  0  0  0  0  0  0
   -0.2732   -1.3284   -3.1892 H   0  0  0  0  0  0  0  0  0  0  0  0
    0.4959    0.2422   -3.1670 H   0  0  0  0  0  0  0  0  0  0  0  0
    1.6715   -2.1076   -1.6600 H   0  0  0  0  0  0  0  0  0  0  0  0
   -0.8005    1.5983   -1.8201 H   0  0  0  0  0  0  0  0  0  0  0  0
   -2.0387    0.3934   -2.2027 H   0  0  0  0  0  0  0  0  0  0  0  0
   -1.6304   -2.0119   -1.4230 H   0  0  0  0  0  0  0  0  0  0  0  0
   -0.1377   -2.3589   -0.5479 H   0  0  0  0  0  0  0  0  0  0  0  0
   -2.7185    1.7595   -0.3133 H   0  0  0  0  0  0  0  0  0  0  0  0
   -1.2277    1.4299    0.5686 H   0  0  0  0  0  0  0  0  0  0  0  0
   -2.0521   -2.1904    0.9592 H   0  0  0  0  0  0  0  0  0  0  0  0
   -0.8174   -0.9971    1.3551 H   0  0  0  0  0  0  0  0  0  0  0  0
    2.7612    0.5301   -2.6574 H   0  0  0  0  0  0  0  0  0  0  0  0
    3.8507   -0.6840   -2.1045 H   0  0  0  0  0  0  0  0  0  0  0  0
   -2.5780    0.7019    2.3748 H   0  0  0  0  0  0  0  0  0  0  0  0
   -3.4050   -0.8524    2.2638 H   0  0  0  0  0  0  0  0  0  0  0  0
    2.2858   -1.3264   -4.5070 H   0  0  0  0  0  0  0  0  0  0  0  0
    1.4522   -2.7900   -3.9523 H   0  0  0  0  0  0  0  0  0  0  0  0
    3.1504   -2.5306   -3.5346 H   0  0  0  0  0  0  0  0  0  0  0  0
   -5.0362    0.9277    2.4801 H   0  0  0  0  0  0  0  0  0  0  0  0
   -4.4686    1.7139    0.9976 H   0  0  0  0  0  0  0  0  0  0  0  0
    3.9019   -2.3569   -0.8116 H   0  0  0  0  0  0  0  0  0  0  0  0
    3.2886    2.2715   -2.1269 H   0  0  0  0  0  0  0  0  0  0  0  0
    2.0670   -1.6344    3.7199 H   0  0  0  0  0  0  0  0  0  0  0  0
    1.3319    3.5652    2.2184 H   0  0  0  0  0  0  0  0  0  0  0  0
    4.1088   -4.0795    0.8720 H   0  0  0  0  0  0  0  0  0  0  0  0
    2.8938    4.5853   -1.6253 H   0  0  0  0  0  0  0  0  0  0  0  0
   -6.5452    1.3763   -0.0414 H   0  0  0  0  0  0  0  0  0  0  0  0
   -7.1742    0.6294    1.4572 H   0  0  0  0  0  0  0  0  0  0  0  0
    3.1992   -3.7380    3.1523 H   0  0  0  0  0  0  0  0  0  0  0  0
    1.9285    5.2676    0.5528 H   0  0  0  0  0  0  0  0  0  0  0  0
   -7.5692   -1.5024    0.1806 H   0  0  0  0  0  0  0  0  0  0  0  0
   -8.4851   -0.1350   -0.5182 H   0  0  0  0  0  0  0  0  0  0  0  0
   -7.3749   -1.3744   -2.0756 H   0  0  0  0  0  0  0  0  0  0  0  0
  1 19  1  0  0  0  0
  1 20  1  0  0  0  0
  2 16  1  0  0  0  0
  2 27  1  0  0  0  0
  3 30  1  0  0  0  0
  3 63  1  0  0  0  0
  4  7  1  0  0  0  0
  4  9  1  0  0  0  0
  4 10  1  0  0  0  0
  5 11  1  0  0  0  0
  5 12  1  0  0  0  0
  5 14  1  0  0  0  0
  6 13  1  0  0  0  0
  6 17  1  0  0  0  0
  6 18  1  0  0  0  0
  7  8  1  0  0  0  0
  7 31  1  0  0  0  0
  7 32  1  0  0  0  0
  8 13  1  0  0  0  0
  8 15  1  0  0  0  0
  8 33  1  0  0  0  0
  9 11  1  0  0  0  0
  9 34  1  0  0  0  0
  9 35  1  0  0  0  0
 10 12  1  0  0  0  0
 10 36  1  0  0  0  0
 10 37  1  0  0  0  0
 11 38  1  0  0  0  0
 11 39  1  0  0  0  0
 12 40  1  0  0  0  0
 12 41  1  0  0  0  0
 13 42  1  0  0  0  0
 13 43  1  0  0  0  0
 14 16  1  0  0  0  0
 14 44  1  0  0  0  0
 14 45  1  0  0  0  0
 15 46  1  0  0  0  0
 15 47  1  0  0  0  0
 15 48  1  0  0  0  0
 16 49  1  0  0  0  0
 16 50  1  0  0  0  0
 17 19  1  0  0  0  0
 17 21  2  0  0  0  0
 18 20  1  0  0  0  0
 18 22  2  0  0  0  0
 19 23  2  0  0  0  0
 20 24  2  0  0  0  0
 21 25  1  0  0  0  0
 21 51  1  0  0  0  0
 22 26  1  0  0  0  0
 22 52  1  0  0  0  0
 23 28  1  0  0  0  0
 23 53  1  0  0  0  0
 24 29  1  0  0  0  0
 24 54  1  0  0  0  0
 25 28  2  0  0  0  0
 25 55  1  0  0  0  0
 26 29  2  0  0  0  0
 26 56  1  0  0  0  0
 27 30  1  0  0  0  0
 27 57  1  0  0  0  0
 27 58  1  0  0  0  0
 28 59  1  0  0  0  0
 29 60  1  0  0  0  0
 30 61  1  0  0  0  0
 30 62  1  0  0  0  0
M  END
> <DATABASE_ID>
DB13784

> <DATABASE_NAME>
drugbank

> <ORIGINAL_SOURCE>
PUBCHEM

> <ORIGINAL_SOURCE_URL>
https://pubchem.ncbi.nlm.nih.gov/rest/pug/compound/inchikey/MSYUMPGNGDNTIQ-UHFFFAOYSA-N/SDF?record_type=3d

> <SMILES>
CC(CN1CCN(CCOCCO)CC1)CN1C2=CC=CC=C2SC2=CC=CC=C12

> <INCHI_IDENTIFIER>
InChI=1S/C24H33N3O2S/c1-20(18-26-12-10-25(11-13-26)14-16-29-17-15-28)19-27-21-6-2-4-8-23(21)30-24-9-5-3-7-22(24)27/h2-9,20,28H,10-19H2,1H3

> <INCHI_KEY>
MSYUMPGNGDNTIQ-UHFFFAOYSA-N

> <FORMULA>
C24H33N3O2S

> <MOLECULAR_WEIGHT>
427.61

> <EXACT_MASS>
427.229348489

> <JCHEM_ACCEPTOR_COUNT>
5

> <JCHEM_ATOM_COUNT>
63

> <JCHEM_AVERAGE_POLARIZABILITY>
49.06486983076219

> <JCHEM_BIOAVAILABILITY>
1

> <JCHEM_DONOR_COUNT>
1

> <JCHEM_FORMAL_CHARGE>
0

> <JCHEM_GHOSE_FILTER>
1

> <JCHEM_IUPAC>
2-[2-(4-{2-[(10H-phenothiazin-10-yl)methyl]propyl}piperazin-1-yl)ethoxy]ethan-1-ol

> <ALOGPS_LOGP>
3.93

> <JCHEM_LOGP>
3.520321184000001

> <ALOGPS_LOGS>
-4.12

> <JCHEM_MDDR_LIKE_RULE>
1

> <JCHEM_NUMBER_OF_RINGS>
4

> <JCHEM_PHYSIOLOGICAL_CHARGE>
1

> <JCHEM_PKA_STRONGEST_ACIDIC>
15.1212277153809

> <JCHEM_PKA_STRONGEST_BASIC>
7.866312453687412

> <JCHEM_POLAR_SURFACE_AREA>
39.18000000000001

> <JCHEM_REFRACTIVITY>
126.75379999999997

> <JCHEM_ROTATABLE_BOND_COUNT>
9

> <JCHEM_RULE_OF_FIVE>
1

> <ALOGPS_SOLUBILITY>
3.27e-02 g/l

> <JCHEM_TRADITIONAL_IUPAC>
dixyrazine

> <JCHEM_VEBER_RULE>
1

> <DRUGBANK_ID>
DB13784

> <DRUG_GROUPS>
experimental

> <GENERIC_NAME>
Dixyrazine

$$$$
