REMARK  Name = 38072
REMARK  3 active torsions:
REMARK  status: ('A' for Active; 'I' for Inactive)
REMARK    1  A    between atoms: N_2  and  C_16
REMARK    2  A    between atoms: C_16  and  C_18
REMARK    3  A    between atoms: C_18  and  O_19
REMARK                            x       y       z     vdW  Elec       q    Type
REMARK                         _______ _______ _______ _____ _____    ______ ____
ROOT
ATOM      1  O   UNL     1      -0.119  -3.285   0.113  0.00  0.00    -0.286 OA
ATOM      2  N   UNL     1       0.018   0.716  -0.488  0.00  0.00    -0.317 N 
ATOM      3  C   UNL     1      -1.244   0.119  -0.262  0.00  0.00    +0.063 A 
ATOM      4  C   UNL     1       1.235   0.034  -0.262  0.00  0.00    +0.063 A 
ATOM      5  C   UNL     1      -1.322  -1.266  -0.020  0.00  0.00    +0.055 A 
ATOM      6  C   UNL     1       1.219  -1.353  -0.021  0.00  0.00    +0.055 A 
ATOM      7  C   UNL     1      -0.077  -2.065   0.024  0.00  0.00    +0.198 A 
ATOM      8  C   UNL     1      -2.454   0.836  -0.245  0.00  0.00    +0.017 C 
ATOM      9  C   UNL     1       2.492   0.666  -0.246  0.00  0.00    +0.017 C 
ATOM     10  C   UNL     1      -2.549  -1.911   0.191  0.00  0.00    +0.005 C 
ATOM     11  C   UNL     1       2.399  -2.081   0.190  0.00  0.00    +0.005 C 
ATOM     12  C   UNL     1      -3.681   0.198  -0.030  0.00  0.00    +0.001 C 
ATOM     13  C   UNL     1       3.672  -0.054  -0.031  0.00  0.00    +0.001 C 
ATOM     14  C   UNL     1      -3.729  -1.175   0.182  0.00  0.00    +0.000 C 
ATOM     15  C   UNL     1       3.626  -1.427   0.181  0.00  0.00    +0.000 C 
ENDROOT
BRANCH   2  16
ATOM     16  C   UNL     1       0.065   2.113  -0.928  0.00  0.00    +0.216 C 
BRANCH  16  18
ATOM     17  O   UNL     1       0.092   2.606   1.431  0.00  0.00    -0.248 OA
ATOM     18  C   UNL     1       0.123   3.009   0.275  0.00  0.00    +0.337 C 
BRANCH  18  19
ATOM     19  O   UNL     1       0.231   4.321  -0.054  0.00  0.00    -0.479 OA
ATOM     20  H   UNL     1       0.251   4.578  -0.955  0.00  0.00    +0.295 HD
ENDBRANCH  18  19
ENDBRANCH  16  18
ENDBRANCH   2  16
TORSDOF 3
