REMARK  Name = 2081
REMARK  6 active torsions:
REMARK  status: ('A' for Active; 'I' for Inactive)
REMARK    1  A    between atoms: C_1  and  O_4
REMARK    2  A    between atoms: C_1  and  C_13
REMARK    3  A    between atoms: O_4  and  C_6
REMARK    4  A    between atoms: C_6  and  C_7
REMARK    5  A    between atoms: C_7  and  N_9
REMARK    6  A    between atoms: C_13  and  C_15
REMARK                            x       y       z     vdW  Elec       q    Type
REMARK                         _______ _______ _______ _____ _____    ______ ____
ROOT
ATOM      1  C   UNL     1      -0.781   0.675   0.723  0.00  0.00    +0.140 C 
ATOM      2  C   UNL     1      -0.240   2.076   1.034  0.00  0.00    +0.044 C 
ATOM      3  C   UNL     1      -0.619  -0.226   1.951  0.00  0.00    +0.044 C 
ENDROOT
BRANCH   1   4
ATOM      4  O   UNL     1      -2.176   0.810   0.434  0.00  0.00    -0.457 OA
BRANCH   4   6
ATOM      5  O   UNL     1      -2.322  -1.464   0.090  0.00  0.00    -0.252 OA
ATOM      6  C   UNL     1      -2.831  -0.352   0.131  0.00  0.00    +0.296 C 
BRANCH   6   7
ATOM      7  C   UNL     1      -4.289  -0.042  -0.155  0.00  0.00    +0.036 C 
ATOM      8  C   UNL     1      -4.416   0.888  -1.354  0.00  0.00    -0.013 C 
BRANCH   7   9
ATOM      9  N   UNL     1      -4.977  -1.302  -0.431  0.00  0.00    +0.389 N 
ATOM     10  H   UNL     1      -4.889  -1.921   0.375  0.00  0.00    -0.088 HD
ATOM     11  H   UNL     1      -4.558  -1.746  -1.248  0.00  0.00    -0.088 HD
ATOM     12  H   UNL     1      -5.964  -1.117  -0.612  0.00  0.00    -0.088 HD
ENDBRANCH   7   9
ENDBRANCH   6   7
ENDBRANCH   4   6
ENDBRANCH   1   4
BRANCH   1  13
ATOM     13  C   UNL     1      -0.066   0.122  -0.530  0.00  0.00    +0.066 C 
BRANCH  13  15
ATOM     14 CL   UNL     1       5.895  -0.403  -0.064  0.00  0.00    -0.082 Cl
ATOM     15  C   UNL     1       1.435  -0.010  -0.412  0.00  0.00    -0.019 C 
ATOM     16  C   UNL     1       2.240   1.055  -0.780  0.00  0.00    -0.003 C 
ATOM     17  C   UNL     1       1.976  -1.194   0.062  0.00  0.00    -0.003 C 
ATOM     18  C   UNL     1       3.625   0.933  -0.672  0.00  0.00    +0.011 C 
ATOM     19  C   UNL     1       3.361  -1.315   0.170  0.00  0.00    +0.011 C 
ATOM     20  C   UNL     1       4.186  -0.252  -0.196  0.00  0.00    +0.058 C 
ENDBRANCH  13  15
ENDBRANCH   1  13
TORSDOF 6
