REMARK  Name = 4822
REMARK  0 active torsions:
REMARK  status: ('A' for Active; 'I' for Inactive)
REMARK                            x       y       z     vdW  Elec       q    Type
REMARK                         _______ _______ _______ _____ _____    ______ ____
ROOT
ATOM      1  S   UNL     1       2.444   0.213   1.589  0.00  0.00    -0.087 S 
ATOM      2  N   UNL     1      -3.636  -0.186   0.808  0.00  0.00    +0.386 N 
ATOM      3  C   UNL     1      -1.233  -0.135  -0.572  0.00  0.00    -0.048 C 
ATOM      4  C   UNL     1      -2.147   1.055  -0.716  0.00  0.00    -0.001 C 
ATOM      5  C   UNL     1      -1.925  -1.468  -0.552  0.00  0.00    -0.001 C 
ATOM      6  C   UNL     1      -3.600   0.722  -0.341  0.00  0.00    -0.073 C 
ATOM      7  C   UNL     1      -3.057  -1.502   0.490  0.00  0.00    -0.073 C 
ATOM      8  C   UNL     1       0.093  -0.003  -0.423  0.00  0.00    -0.007 C 
ATOM      9  C   UNL     1       0.930  -1.225  -0.288  0.00  0.00    +0.005 C 
ATOM     10  C   UNL     1       0.671   1.358  -0.263  0.00  0.00    +0.005 C 
ATOM     11  C   UNL     1      -4.986  -0.323   1.347  0.00  0.00    -0.101 C 
ATOM     12  C   UNL     1       2.027  -1.216   0.594  0.00  0.00    +0.029 C 
ATOM     13  C   UNL     1       1.750   1.550   0.621  0.00  0.00    +0.029 C 
ATOM     14  C   UNL     1       0.688  -2.380  -1.052  0.00  0.00    +0.000 C 
ATOM     15  C   UNL     1       0.202   2.456  -1.005  0.00  0.00    +0.000 C 
ATOM     16  C   UNL     1       2.829  -2.360   0.727  0.00  0.00    +0.006 C 
ATOM     17  C   UNL     1       2.308   2.827   0.778  0.00  0.00    +0.006 C 
ATOM     18  C   UNL     1       1.495  -3.511  -0.917  0.00  0.00    +0.000 C 
ATOM     19  C   UNL     1       0.769   3.722  -0.847  0.00  0.00    +0.000 C 
ATOM     20  C   UNL     1       2.561  -3.502  -0.025  0.00  0.00    +0.001 C 
ATOM     21  C   UNL     1       1.817   3.908   0.047  0.00  0.00    +0.001 C 
ATOM     22  H   UNL     1      -3.054   0.236   1.531  0.00  0.00    -0.080 HD
ENDROOT
TORSDOF 0
