REMARK  Name = 9661
REMARK  4 active torsions:
REMARK  status: ('A' for Active; 'I' for Inactive)
REMARK    1  A    between atoms: C_1  and  O_7
REMARK    2  A    between atoms: C_1  and  C_13
REMARK    3  A    between atoms: O_7  and  C_10
REMARK    4  A    between atoms: C_13  and  C_14
REMARK                            x       y       z     vdW  Elec       q    Type
REMARK                         _______ _______ _______ _____ _____    ______ ____
ROOT
ATOM      1  C   UNL     1      -0.159   0.353   0.327  0.00  0.00    +0.149 C 
ATOM      2  C   UNL     1      -0.855   1.537  -0.361  0.00  0.00    +0.041 C 
ATOM      3  C   UNL     1      -1.143  -0.416   1.224  0.00  0.00    +0.041 C 
ATOM      4  C   UNL     1      -2.121   1.112  -1.109  0.00  0.00    +0.004 C 
ATOM      5  C   UNL     1      -2.406  -0.836   0.470  0.00  0.00    +0.004 C 
ATOM      6  C   UNL     1      -3.083   0.355  -0.199  0.00  0.00    +0.000 C 
ENDROOT
BRANCH   1   7
ATOM      7  O   UNL     1       0.327  -0.526  -0.692  0.00  0.00    -0.441 OA
BRANCH   7  10
ATOM      8  O   UNL     1       1.170  -1.932   0.924  0.00  0.00    -0.227 OA
ATOM      9  N   UNL     1       1.397  -2.404  -1.315  0.00  0.00    -0.295 N 
ATOM     10  C   UNL     1       0.979  -1.641  -0.252  0.00  0.00    +0.398 C 
ATOM     11  H   UNL     1       1.208  -2.109  -2.236  0.00  0.00    +0.148 HD
ATOM     12  H   UNL     1       1.884  -3.244  -1.157  0.00  0.00    +0.148 HD
ENDBRANCH   7  10
ENDBRANCH   1   7
BRANCH   1  13
ATOM     13  C   UNL     1       1.045   0.839   1.137  0.00  0.00    +0.117 C 
BRANCH  13  14
ATOM     14  C   UNL     1       2.021   1.506   0.273  0.00  0.00    -0.074 C 
ATOM     15  C   UNL     1       2.829   2.054  -0.426  0.00  0.00    -0.014 C 
ENDBRANCH  13  14
ENDBRANCH   1  13
TORSDOF 4
