REMARK  Name = 5497
REMARK  3 active torsions:
REMARK  status: ('A' for Active; 'I' for Inactive)
REMARK    1  A    between atoms: N_2  and  C_10
REMARK    2  A    between atoms: N_2  and  C_12
REMARK    3  A    between atoms: C_3  and  C_5
REMARK                            x       y       z     vdW  Elec       q    Type
REMARK                         _______ _______ _______ _____ _____    ______ ____
ROOT
ATOM      1  O   UNL     1       0.882  -1.662  -1.210  0.00  0.00    -0.270 OA
ATOM      2  N   UNL     1       1.637   0.189   0.002  0.00  0.00    -0.276 N 
ATOM      3  C   UNL     1       0.662  -0.666  -0.523  0.00  0.00    +0.251 C 
ENDROOT
BRANCH   3   5
ATOM      4  N   UNL     1      -2.644  -0.692   1.215  0.00  0.00    -0.242 NA
ATOM      5  C   UNL     1      -0.751  -0.378  -0.228  0.00  0.00    +0.073 C 
ATOM      6  C   UNL     1      -1.488   0.434  -1.066  0.00  0.00    +0.008 C 
ATOM      7  C   UNL     1      -1.352  -0.916   0.887  0.00  0.00    +0.103 C 
ATOM      8  C   UNL     1      -2.820   0.688  -0.761  0.00  0.00    +0.021 C 
ATOM      9  C   UNL     1      -3.347   0.106   0.381  0.00  0.00    +0.099 C 
ENDBRANCH   3   5
BRANCH   2  10
ATOM     10  C   UNL     1       3.042  -0.084  -0.262  0.00  0.00    +0.094 C 
ATOM     11  C   UNL     1       3.613  -0.980   0.820  0.00  0.00    +0.023 C 
ENDBRANCH   2  10
BRANCH   2  12
ATOM     12  C   UNL     1       1.364   1.371   0.816  0.00  0.00    +0.094 C 
ATOM     13  C   UNL     1       1.201   2.590  -0.071  0.00  0.00    +0.023 C 
ENDBRANCH   2  12
TORSDOF 3
