REMARK  Name = 19254
REMARK  2 active torsions:
REMARK  status: ('A' for Active; 'I' for Inactive)
REMARK    1  A    between atoms: C_6  and  C_18
REMARK    2  A    between atoms: C_6  and  C_20
REMARK                            x       y       z     vdW  Elec       q    Type
REMARK                         _______ _______ _______ _____ _____    ______ ____
ROOT
ATOM      1  O   UNL     1       0.661   0.084   2.424  0.00  0.00    -0.274 OA
ATOM      2  O   UNL     1       1.154   1.041  -2.259  0.00  0.00    -0.274 OA
ATOM      3  O   UNL     1       3.682  -2.167  -0.183  0.00  0.00    -0.252 OA
ATOM      4  N   UNL     1       2.156  -1.022   1.093  0.00  0.00    -0.239 N 
ATOM      5  N   UNL     1       2.398  -0.554  -1.191  0.00  0.00    -0.239 N 
ATOM      6  C   UNL     1       0.712   0.702   0.091  0.00  0.00    +0.153 C 
ATOM      7  C   UNL     1       1.160  -0.086   1.310  0.00  0.00    +0.240 C 
ATOM      8  C   UNL     1       1.428   0.432  -1.223  0.00  0.00    +0.240 C 
ATOM      9  C   UNL     1       2.804  -1.307  -0.100  0.00  0.00    +0.312 C 
ATOM     10  H   UNL     1       2.436  -1.548   1.876  0.00  0.00    +0.159 HD
ATOM     11  H   UNL     1       2.853  -0.744  -2.043  0.00  0.00    +0.159 HD
ENDROOT
BRANCH   6  18
ATOM     12  C   UNL     1      -2.516  -1.477  -0.482  0.00  0.00    +0.004 C 
ATOM     13  C   UNL     1      -3.161   0.776  -0.344  0.00  0.00    +0.021 C 
ATOM     14  C   UNL     1      -3.201  -0.400  -1.326  0.00  0.00    +0.005 C 
ATOM     15  C   UNL     1      -3.218  -1.324   0.883  0.00  0.00    +0.001 C 
ATOM     16  C   UNL     1      -3.712   0.133   0.934  0.00  0.00    +0.004 C 
ATOM     17  C   UNL     1      -1.005  -1.152  -0.389  0.00  0.00    +0.023 C 
ATOM     18  C   UNL     1      -0.722   0.315  -0.134  0.00  0.00    -0.033 C 
ATOM     19  C   UNL     1      -1.731   1.207  -0.110  0.00  0.00    -0.034 C 
ENDBRANCH   6  18
BRANCH   6  20
ATOM     20  C   UNL     1       0.832   2.200   0.405  0.00  0.00    +0.021 C 
ATOM     21  C   UNL     1       2.278   2.599   0.600  0.00  0.00    +0.001 C 
ENDBRANCH   6  20
TORSDOF 2
