REMARK  Name = 49784945
REMARK  2 active torsions:
REMARK  status: ('A' for Active; 'I' for Inactive)
REMARK    1  A    between atoms: N_2  and  S_25
REMARK    2  A    between atoms: C_10  and  C_19
REMARK                            x       y       z     vdW  Elec       q    Type
REMARK                         _______ _______ _______ _____ _____    ______ ____
ROOT
ATOM      1  O   UNL     1      -3.331  -4.413  -0.167  0.00  0.00    -0.350 OA
ATOM      2  N   UNL     1      -1.362   2.647   0.473  0.00  0.00    -0.170 N 
ATOM      3  N   UNL     1      -1.767  -2.100   0.149  0.00  0.00    -0.229 N 
ATOM      4  N   UNL     1      -1.690   0.230   0.290  0.00  0.00    -0.315 NA
ATOM      5  N   UNL     1       0.339  -1.082   0.071  0.00  0.00    -0.332 NA
ATOM      6  C   UNL     1      -0.187   3.546   0.201  0.00  0.00    +0.119 C 
ATOM      7  C   UNL     1       1.062   2.649   0.332  0.00  0.00    +0.039 C 
ATOM      8  C   UNL     1       0.479   1.288   0.211  0.00  0.00    +0.124 C 
ATOM      9  C   UNL     1      -0.897   1.308   0.279  0.00  0.00    +0.198 C 
ATOM     10  C   UNL     1       1.066   0.057   0.104  0.00  0.00    +0.130 C 
ATOM     11  C   UNL     1      -1.005  -0.926   0.170  0.00  0.00    +0.204 C 
ATOM     12  C   UNL     1      -3.228  -2.025   0.248  0.00  0.00    +0.135 C 
ATOM     13  C   UNL     1      -1.249  -3.249  -0.606  0.00  0.00    +0.135 C 
ATOM     14  C   UNL     1      -3.784  -3.372   0.698  0.00  0.00    +0.164 C 
ATOM     15  C   UNL     1      -1.910  -4.530  -0.110  0.00  0.00    +0.164 C 
ENDROOT
BRANCH  10  19
ATOM     16  N   UNL     1       4.679   0.151   1.011  0.00  0.00    -0.203 NA
ATOM     17  N   UNL     1       4.443  -0.901  -1.144  0.00  0.00    -0.181 NA
ATOM     18  N   UNL     1       6.557  -0.622  -0.165  0.00  0.00    -0.303 N 
ATOM     19  C   UNL     1       2.496  -0.120   0.035  0.00  0.00    +0.050 C 
ATOM     20  C   UNL     1       3.338   0.300   1.044  0.00  0.00    +0.168 C 
ATOM     21  C   UNL     1       3.110  -0.720  -1.045  0.00  0.00    +0.111 C 
ATOM     22  C   UNL     1       5.157  -0.449  -0.096  0.00  0.00    +0.084 C 
ATOM     23  H   UNL     1       7.129  -0.309   0.574  0.00  0.00    +0.154 HD
ATOM     24  H   UNL     1       6.962  -1.054  -0.951  0.00  0.00    +0.154 HD
ENDBRANCH  10  19
BRANCH   2  25
ATOM     25  S   UNL     1      -2.861   3.047  -0.211  0.00  0.00    +0.060 S 
ATOM     26  O   UNL     1      -3.092   4.473  -0.067  0.00  0.00    -0.154 OA
ATOM     27  O   UNL     1      -3.859   2.082   0.216  0.00  0.00    -0.154 OA
ATOM     28  C   UNL     1      -2.505   2.730  -1.923  0.00  0.00    +0.200 C 
ENDBRANCH   2  25
TORSDOF 2
