REMARK  Name = 12454
REMARK  6 active torsions:
REMARK  status: ('A' for Active; 'I' for Inactive)
REMARK    1  A    between atoms: C_3  and  C_17
REMARK    2  A    between atoms: C_17  and  C_18
REMARK    3  A    between atoms: C_18  and  N_19
REMARK    4  A    between atoms: N_20  and  C_27
REMARK    5  A    between atoms: C_27  and  C_28
REMARK    6  A    between atoms: C_28  and  O_29
REMARK                            x       y       z     vdW  Elec       q    Type
REMARK                         _______ _______ _______ _____ _____    ______ ____
ROOT
ATOM      1 CL   UNL     1       5.247   3.987   1.359  0.00  0.00    -0.082 Cl
ATOM      2  S   UNL     1       4.115  -1.570  -1.404  0.00  0.00    -0.087 S 
ATOM      3  C   UNL     1       0.910   0.827   0.127  0.00  0.00    -0.028 C 
ATOM      4  C   UNL     1       2.008   0.050   0.196  0.00  0.00    -0.003 C 
ATOM      5  C   UNL     1       3.350   0.682   0.088  0.00  0.00    +0.007 C 
ATOM      6  C   UNL     1       1.845  -1.428   0.243  0.00  0.00    +0.006 C 
ATOM      7  C   UNL     1       4.373   0.014  -0.611  0.00  0.00    +0.029 C 
ATOM      8  C   UNL     1       2.763  -2.245  -0.445  0.00  0.00    +0.029 C 
ATOM      9  C   UNL     1       3.643   1.911   0.705  0.00  0.00    +0.012 C 
ATOM     10  C   UNL     1       0.827  -2.040   0.996  0.00  0.00    +0.000 C 
ATOM     11  C   UNL     1       5.645   0.596  -0.716  0.00  0.00    +0.007 C 
ATOM     12  C   UNL     1       2.624  -3.641  -0.404  0.00  0.00    +0.006 C 
ATOM     13  C   UNL     1       4.914   2.479   0.600  0.00  0.00    +0.058 C 
ATOM     14  C   UNL     1       0.702  -3.430   1.035  0.00  0.00    +0.000 C 
ATOM     15  C   UNL     1       5.912   1.825  -0.114  0.00  0.00    +0.012 C 
ATOM     16  C   UNL     1       1.597  -4.229   0.332  0.00  0.00    +0.001 C 
ENDROOT
BRANCH   3  17
ATOM     17  C   UNL     1      -0.486   0.291   0.094  0.00  0.00    +0.003 C 
BRANCH  17  18
ATOM     18  C   UNL     1      -1.407   1.213  -0.705  0.00  0.00    -0.073 C 
BRANCH  18  19
ATOM     19  N   UNL     1      -2.761   0.665  -0.745  0.00  0.00    +0.384 N 
ATOM     20  N   UNL     1      -5.612   0.811  -0.286  0.00  0.00    +0.386 N 
ATOM     21  C   UNL     1      -3.322   0.562   0.608  0.00  0.00    -0.101 C 
ATOM     22  C   UNL     1      -3.630   1.483  -1.599  0.00  0.00    -0.101 C 
ATOM     23  C   UNL     1      -4.744  -0.008   0.569  0.00  0.00    -0.101 C 
ATOM     24  C   UNL     1      -5.052   0.911  -1.639  0.00  0.00    -0.101 C 
ATOM     25  H   UNL     1      -2.710  -0.273  -1.143  0.00  0.00    -0.080 HD
ATOM     26  H   UNL     1      -5.662   1.749   0.112  0.00  0.00    -0.080 HD
BRANCH  20  27
ATOM     27  C   UNL     1      -6.967   0.265  -0.324  0.00  0.00    -0.045 C 
BRANCH  27  28
ATOM     28  C   UNL     1      -7.588   0.270   1.064  0.00  0.00    +0.115 C 
BRANCH  28  29
ATOM     29  O   UNL     1      -8.907  -0.252   0.976  0.00  0.00    -0.384 OA
ATOM     30  H   UNL     1      -9.313  -0.253   1.857  0.00  0.00    +0.210 HD
ENDBRANCH  28  29
ENDBRANCH  27  28
ENDBRANCH  20  27
ENDBRANCH  18  19
ENDBRANCH  17  18
ENDBRANCH   3  17
TORSDOF 6
