REMARK  Name = 12492
REMARK  4 active torsions:
REMARK  status: ('A' for Active; 'I' for Inactive)
REMARK    1  A    between atoms: C_2  and  C_10
REMARK    2  A    between atoms: C_5  and  S_20
REMARK    3  A    between atoms: N_9  and  N_12
REMARK    4  A    between atoms: S_20  and  N_23
REMARK                            x       y       z     vdW  Elec       q    Type
REMARK                         _______ _______ _______ _____ _____    ______ ____
ROOT
ATOM      1 CL   UNL     1      -4.753   1.864   1.105  0.00  0.00    -0.081 Cl
ATOM      2  C   UNL     1      -0.719   0.340  -0.124  0.00  0.00    +0.056 C 
ATOM      3  C   UNL     1      -1.823  -0.430  -0.421  0.00  0.00    +0.025 C 
ATOM      4  C   UNL     1      -0.818   1.550   0.530  0.00  0.00    +0.005 C 
ATOM      5  C   UNL     1      -3.086   0.030  -0.046  0.00  0.00    +0.132 C 
ATOM      6  C   UNL     1      -2.080   2.010   0.905  0.00  0.00    +0.013 C 
ATOM      7  C   UNL     1      -3.214   1.250   0.617  0.00  0.00    +0.076 C 
ENDROOT
BRANCH   2  10
ATOM      8  O   UNL     1       0.729  -0.891  -1.497  0.00  0.00    -0.269 OA
ATOM      9  N   UNL     1       1.673   0.301   0.254  0.00  0.00    -0.243 N 
ATOM     10  C   UNL     1       0.627  -0.150  -0.522  0.00  0.00    +0.259 C 
ATOM     11  H   UNL     1       1.510   0.895   1.022  0.00  0.00    +0.170 HD
BRANCH   9  12
ATOM     12  N   UNL     1       2.963  -0.101  -0.073  0.00  0.00    -0.208 NA
ATOM     13  C   UNL     1       3.794   1.086  -0.374  0.00  0.00    +0.076 C 
ATOM     14  C   UNL     1       3.523  -0.919   1.026  0.00  0.00    +0.076 C 
ATOM     15  C   UNL     1       5.246   0.686  -0.690  0.00  0.00    +0.018 C 
ATOM     16  C   UNL     1       4.973  -1.340   0.727  0.00  0.00    +0.018 C 
ATOM     17  C   UNL     1       5.854  -0.136   0.435  0.00  0.00    +0.003 C 
ATOM     18  C   UNL     1       3.237   1.863  -1.578  0.00  0.00    +0.019 C 
ATOM     19  C   UNL     1       2.691  -2.191   1.252  0.00  0.00    +0.019 C 
ENDBRANCH   9  12
ENDBRANCH   2  10
BRANCH   5  20
ATOM     20  S   UNL     1      -4.474  -0.967  -0.433  0.00  0.00    +0.058 S 
ATOM     21  O   UNL     1      -5.644  -0.108  -0.501  0.00  0.00    -0.153 OA
ATOM     22  O   UNL     1      -4.125  -1.814  -1.563  0.00  0.00    -0.153 OA
BRANCH  20  23
ATOM     23  N   UNL     1      -4.574  -1.933   0.971  0.00  0.00    -0.203 NA
ATOM     24  H   UNL     1      -5.359  -2.579   0.884  0.00  0.00    +0.144 HD
ATOM     25  H   UNL     1      -4.714  -1.336   1.786  0.00  0.00    +0.144 HD
ENDBRANCH  20  23
ENDBRANCH   5  20
TORSDOF 4
