70687267
  -OEChem-10061700263D

 55 57  0     1  0  0  0  0  0999 V2000
   -0.2066   -1.3838    0.0931 O   0  0  0  0  0  0  0  0  0  0  0  0
    0.4957   -1.2192   -2.1015 O   0  0  0  0  0  0  0  0  0  0  0  0
   -4.3999   -0.7478    0.0911 N   0  0  0  0  0  0  0  0  0  0  0  0
    0.5597    1.0742    0.6975 C   0  0  2  0  0  0  0  0  0  0  0  0
    0.7011    2.6236   -0.8951 C   0  0  2  0  0  0  0  0  0  0  0  0
    1.3312    0.3060   -0.4292 C   0  0  1  0  0  0  0  0  0  0  0  0
   -0.4142    1.9440   -0.1114 C   0  0  0  0  0  0  0  0  0  0  0  0
    1.4570    1.4261   -1.5104 C   0  0  0  0  0  0  0  0  0  0  0  0
    1.4422    2.1678    1.3392 C   0  0  0  0  0  0  0  0  0  0  0  0
    1.5588    3.2205    0.2305 C   0  0  0  0  0  0  0  0  0  0  0  0
    2.6550   -0.2281    0.0030 C   0  0  0  0  0  0  0  0  0  0  0  0
    0.5062   -0.8449   -0.9366 C   0  0  0  0  0  0  0  0  0  0  0  0
    2.8384   -0.6562    1.3177 C   0  0  0  0  0  0  0  0  0  0  0  0
    3.7095   -0.2993   -0.9073 C   0  0  0  0  0  0  0  0  0  0  0  0
    4.0763   -1.1558    1.7222 C   0  0  0  0  0  0  0  0  0  0  0  0
    4.9475   -0.7989   -0.5028 C   0  0  0  0  0  0  0  0  0  0  0  0
   -1.0402   -2.4949   -0.2513 C   0  0  0  0  0  0  0  0  0  0  0  0
    5.1309   -1.2272    0.8119 C   0  0  0  0  0  0  0  0  0  0  0  0
   -2.4145   -1.9744   -0.6500 C   0  0  0  0  0  0  0  0  0  0  0  0
   -3.0792   -1.2155    0.4939 C   0  0  0  0  0  0  0  0  0  0  0  0
   -4.2923    0.4706   -0.7136 C   0  0  0  0  0  0  0  0  0  0  0  0
   -5.2424   -0.5083    1.2642 C   0  0  0  0  0  0  0  0  0  0  0  0
   -4.6635    0.5893    2.1408 C   0  0  0  0  0  0  0  0  0  0  0  0
   -5.6569    0.9323   -1.1960 C   0  0  0  0  0  0  0  0  0  0  0  0
    0.0664    0.4631    1.4575 H   0  0  0  0  0  0  0  0  0  0  0  0
    0.3781    3.3603   -1.6334 H   0  0  0  0  0  0  0  0  0  0  0  0
   -0.9919    2.6370    0.5098 H   0  0  0  0  0  0  0  0  0  0  0  0
   -1.0986    1.3700   -0.7435 H   0  0  0  0  0  0  0  0  0  0  0  0
    0.9693    1.1472   -2.4517 H   0  0  0  0  0  0  0  0  0  0  0  0
    2.4731    1.7493   -1.7540 H   0  0  0  0  0  0  0  0  0  0  0  0
    2.4231    1.8498    1.6946 H   0  0  0  0  0  0  0  0  0  0  0  0
    0.9222    2.6048    2.2011 H   0  0  0  0  0  0  0  0  0  0  0  0
    1.1478    4.1770    0.5724 H   0  0  0  0  0  0  0  0  0  0  0  0
    2.5972    3.3851   -0.0742 H   0  0  0  0  0  0  0  0  0  0  0  0
    2.0333   -0.6403    2.0462 H   0  0  0  0  0  0  0  0  0  0  0  0
    3.5959   -0.0219   -1.9508 H   0  0  0  0  0  0  0  0  0  0  0  0
    4.2176   -1.4956    2.7441 H   0  0  0  0  0  0  0  0  0  0  0  0
    5.7656   -0.8653   -1.2141 H   0  0  0  0  0  0  0  0  0  0  0  0
   -0.5971   -3.1017   -1.0495 H   0  0  0  0  0  0  0  0  0  0  0  0
   -1.1131   -3.1365    0.6334 H   0  0  0  0  0  0  0  0  0  0  0  0
    6.0935   -1.6200    1.1259 H   0  0  0  0  0  0  0  0  0  0  0  0
   -3.0419   -2.8227   -0.9499 H   0  0  0  0  0  0  0  0  0  0  0  0
   -2.2983   -1.3292   -1.5270 H   0  0  0  0  0  0  0  0  0  0  0  0
   -3.1627   -1.9154    1.3362 H   0  0  0  0  0  0  0  0  0  0  0  0
   -2.4368   -0.3923    0.8284 H   0  0  0  0  0  0  0  0  0  0  0  0
   -3.7631    1.2907   -0.2156 H   0  0  0  0  0  0  0  0  0  0  0  0
   -3.7129    0.2560   -1.6188 H   0  0  0  0  0  0  0  0  0  0  0  0
   -6.2770   -0.2784    0.9886 H   0  0  0  0  0  0  0  0  0  0  0  0
   -5.3183   -1.4333    1.8506 H   0  0  0  0  0  0  0  0  0  0  0  0
   -3.6464    0.3848    2.4867 H   0  0  0  0  0  0  0  0  0  0  0  0
   -6.2319    0.1089   -1.6338 H   0  0  0  0  0  0  0  0  0  0  0  0
   -6.2499    1.3954   -0.4018 H   0  0  0  0  0  0  0  0  0  0  0  0
   -5.5316    1.6913   -1.9765 H   0  0  0  0  0  0  0  0  0  0  0  0
   -4.6893    1.5773    1.6729 H   0  0  0  0  0  0  0  0  0  0  0  0
   -5.2783    0.6716    3.0455 H   0  0  0  0  0  0  0  0  0  0  0  0
  1 12  1  0  0  0  0
  1 17  1  0  0  0  0
  2 12  2  0  0  0  0
  3 20  1  0  0  0  0
  3 21  1  0  0  0  0
  3 22  1  0  0  0  0
  4  6  1  0  0  0  0
  4  7  1  0  0  0  0
  4  9  1  0  0  0  0
  4 25  1  0  0  0  0
  5  7  1  0  0  0  0
  5  8  1  0  0  0  0
  5 10  1  0  0  0  0
  5 26  1  0  0  0  0
  6  8  1  0  0  0  0
  6 11  1  0  0  0  0
  6 12  1  0  0  0  0
  7 27  1  0  0  0  0
  7 28  1  0  0  0  0
  8 29  1  0  0  0  0
  8 30  1  0  0  0  0
  9 10  1  0  0  0  0
  9 31  1  0  0  0  0
  9 32  1  0  0  0  0
 10 33  1  0  0  0  0
 10 34  1  0  0  0  0
 11 13  2  0  0  0  0
 11 14  1  0  0  0  0
 13 15  1  0  0  0  0
 13 35  1  0  0  0  0
 14 16  2  0  0  0  0
 14 36  1  0  0  0  0
 15 18  2  0  0  0  0
 15 37  1  0  0  0  0
 16 18  1  0  0  0  0
 16 38  1  0  0  0  0
 17 19  1  0  0  0  0
 17 39  1  0  0  0  0
 17 40  1  0  0  0  0
 18 41  1  0  0  0  0
 19 20  1  0  0  0  0
 19 42  1  0  0  0  0
 19 43  1  0  0  0  0
 20 44  1  0  0  0  0
 20 45  1  0  0  0  0
 21 24  1  0  0  0  0
 21 46  1  0  0  0  0
 21 47  1  0  0  0  0
 22 23  1  0  0  0  0
 22 48  1  0  0  0  0
 22 49  1  0  0  0  0
 23 50  1  0  0  0  0
 23 54  1  0  0  0  0
 23 55  1  0  0  0  0
 24 51  1  0  0  0  0
 24 52  1  0  0  0  0
 24 53  1  0  0  0  0
M  END
> <DATABASE_ID>
DB13619

> <DATABASE_NAME>
drugbank

> <ORIGINAL_SOURCE>
PUBCHEM

> <ORIGINAL_SOURCE_URL>
https://pubchem.ncbi.nlm.nih.gov/rest/pug/compound/inchikey/BDNMABJZSXTKAQ-VCPDFFEISA-N/SDF?record_type=3d

> <SMILES>
CCN(CC)CCCOC(=O)C1(C[C@@H]2CC[C@H]1C2)C1=CC=CC=C1

> <INCHI_IDENTIFIER>
InChI=1S/C21H31NO2/c1-3-22(4-2)13-8-14-24-20(23)21(18-9-6-5-7-10-18)16-17-11-12-19(21)15-17/h5-7,9-10,17,19H,3-4,8,11-16H2,1-2H3/t17-,19+,21?/m1/s1

> <INCHI_KEY>
BDNMABJZSXTKAQ-VCPDFFEISA-N

> <FORMULA>
C21H31NO2

> <MOLECULAR_WEIGHT>
329.484

> <EXACT_MASS>
329.235479242

> <JCHEM_ACCEPTOR_COUNT>
2

> <JCHEM_ATOM_COUNT>
55

> <JCHEM_AVERAGE_POLARIZABILITY>
38.79211486135794

> <JCHEM_BIOAVAILABILITY>
1

> <JCHEM_DONOR_COUNT>
0

> <JCHEM_FORMAL_CHARGE>
0

> <JCHEM_GHOSE_FILTER>
1

> <JCHEM_IUPAC>
3-(diethylamino)propyl (1S,4R)-2-phenylbicyclo[2.2.1]heptane-2-carboxylate

> <ALOGPS_LOGP>
4.85

> <JCHEM_LOGP>
4.183832629666667

> <ALOGPS_LOGS>
-5.11

> <JCHEM_MDDR_LIKE_RULE>
1

> <JCHEM_NUMBER_OF_RINGS>
3

> <JCHEM_PHYSIOLOGICAL_CHARGE>
1

> <JCHEM_PKA_STRONGEST_BASIC>
10.004644596846214

> <JCHEM_POLAR_SURFACE_AREA>
29.54

> <JCHEM_REFRACTIVITY>
98.28670000000001

> <JCHEM_ROTATABLE_BOND_COUNT>
9

> <JCHEM_RULE_OF_FIVE>
1

> <ALOGPS_SOLUBILITY>
2.56e-03 g/l

> <JCHEM_TRADITIONAL_IUPAC>
3-(diethylamino)propyl (1S,4R)-2-phenylbicyclo[2.2.1]heptane-2-carboxylate

> <JCHEM_VEBER_RULE>
1

> <DRUGBANK_ID>
DB13619

> <DRUG_GROUPS>
experimental

> <GENERIC_NAME>
Bornaprine

$$$$
