REMARK  Name = 4257
REMARK  4 active torsions:
REMARK  status: ('A' for Active; 'I' for Inactive)
REMARK    1  A    between atoms: C_1  and  N_5
REMARK    2  A    between atoms: C_1  and  C_20
REMARK    3  A    between atoms: C_20  and  C_21
REMARK    4  A    between atoms: C_21  and  N_23
REMARK                            x       y       z     vdW  Elec       q    Type
REMARK                         _______ _______ _______ _____ _____    ______ ____
ROOT
ATOM      1  C   UNL     1      -0.861   2.132   0.017  0.00  0.00    -0.076 C 
ENDROOT
BRANCH   1   5
ATOM      2  O   UNL     1       3.625   3.342  -0.259  0.00  0.00    -0.277 OA
ATOM      3  N   UNL     1       4.426  -0.018   0.213  0.00  0.00    +0.407 N 
ATOM      4  N   UNL     1       5.347   1.826  -0.687  0.00  0.00    -0.326 N 
ATOM      5  N   UNL     1       0.383   1.366   0.100  0.00  0.00    +0.387 N 
ATOM      6  C   UNL     1       3.294   0.903   0.030  0.00  0.00    +0.027 C 
ATOM      7  C   UNL     1       5.481   0.407  -0.702  0.00  0.00    +0.018 C 
ATOM      8  C   UNL     1       2.507   1.044   1.343  0.00  0.00    -0.033 C 
ATOM      9  C   UNL     1       2.357   0.536  -1.137  0.00  0.00    -0.033 C 
ATOM     10  C   UNL     1       4.225  -1.457   0.171  0.00  0.00    -0.074 C 
ATOM     11  C   UNL     1       4.062   2.202  -0.300  0.00  0.00    +0.203 C 
ATOM     12  C   UNL     1       6.819  -0.132  -0.221  0.00  0.00    -0.002 C 
ATOM     13  C   UNL     1       1.223   1.869   1.194  0.00  0.00    -0.079 C 
ATOM     14  C   UNL     1       1.101   1.414  -1.179  0.00  0.00    -0.079 C 
ATOM     15  C   UNL     1       5.522  -2.140   0.631  0.00  0.00    -0.023 C 
ATOM     16  C   UNL     1       6.752  -1.661  -0.151  0.00  0.00    -0.003 C 
ATOM     17  H   UNL     1       4.662   0.073   1.201  0.00  0.00    -0.076 HD
ATOM     18  H   UNL     1       6.066   2.456  -0.920  0.00  0.00    +0.147 HD
ATOM     19  H   UNL     1       0.155   0.392   0.298  0.00  0.00    -0.080 HD
ENDBRANCH   1   5
BRANCH   1  20
ATOM     20  C   UNL     1      -1.671   2.050   1.315  0.00  0.00    -0.001 C 
BRANCH  20  21
ATOM     21  C   UNL     1      -2.049   0.632   1.741  0.00  0.00    +0.093 C 
BRANCH  21  23
ATOM     22 CL   UNL     1      -0.506  -4.480   1.938  0.00  0.00    -0.082 Cl
ATOM     23  N   UNL     1      -2.820  -0.041   0.683  0.00  0.00    -0.287 N 
ATOM     24  C   UNL     1      -2.246  -1.263   0.245  0.00  0.00    +0.048 C 
ATOM     25  C   UNL     1      -4.083   0.511   0.335  0.00  0.00    +0.048 C 
ATOM     26  C   UNL     1      -2.171  -1.596  -1.118  0.00  0.00    -0.008 C 
ATOM     27  C   UNL     1      -4.754   0.258  -0.886  0.00  0.00    -0.008 C 
ATOM     28  C   UNL     1      -2.707  -0.655  -2.157  0.00  0.00    +0.032 C 
ATOM     29  C   UNL     1      -4.220  -0.564  -2.041  0.00  0.00    +0.032 C 
ATOM     30  C   UNL     1      -1.718  -2.184   1.175  0.00  0.00    +0.026 C 
ATOM     31  C   UNL     1      -4.764   1.335   1.271  0.00  0.00    +0.015 C 
ATOM     32  C   UNL     1      -1.585  -2.809  -1.521  0.00  0.00    -0.002 C 
ATOM     33  C   UNL     1      -6.049   0.794  -1.101  0.00  0.00    -0.003 C 
ATOM     34  C   UNL     1      -1.139  -3.388   0.768  0.00  0.00    +0.059 C 
ATOM     35  C   UNL     1      -6.032   1.872   1.032  0.00  0.00    +0.001 C 
ATOM     36  C   UNL     1      -1.072  -3.700  -0.583  0.00  0.00    +0.011 C 
ATOM     37  C   UNL     1      -6.679   1.596  -0.157  0.00  0.00    -0.000 C 
ENDBRANCH  21  23
ENDBRANCH  20  21
ENDBRANCH   1  20
TORSDOF 4
