REMARK  Name = 1979
REMARK  2 active torsions:
REMARK  status: ('A' for Active; 'I' for Inactive)
REMARK    1  A    between atoms: C_3  and  O_10
REMARK    2  A    between atoms: O_10  and  C_12
REMARK                            x       y       z     vdW  Elec       q    Type
REMARK                         _______ _______ _______ _____ _____    ______ ____
ROOT
ATOM      1  N   UNL     1       1.573   0.925   0.847  0.00  0.00    +0.389 N 
ATOM      2  C   UNL     1       0.944  -0.959  -0.830  0.00  0.00    +0.034 C 
ATOM      3  C   UNL     1      -0.215   0.039  -0.658  0.00  0.00    +0.148 C 
ATOM      4  C   UNL     1       1.302  -1.541   0.548  0.00  0.00    -0.019 C 
ATOM      5  C   UNL     1       2.161  -0.166  -1.327  0.00  0.00    -0.019 C 
ATOM      6  C   UNL     1       0.179   1.106   0.379  0.00  0.00    -0.033 C 
ATOM      7  C   UNL     1       1.682  -0.397   1.502  0.00  0.00    -0.077 C 
ATOM      8  C   UNL     1       2.481   0.954  -0.322  0.00  0.00    -0.077 C 
ATOM      9  H   UNL     1       1.824   1.666   1.500  0.00  0.00    -0.080 HD
ENDROOT
BRANCH   3  10
ATOM     10  O   UNL     1      -1.383  -0.654  -0.235  0.00  0.00    -0.454 OA
BRANCH  10  12
ATOM     11  O   UNL     1      -2.577   1.323  -0.230  0.00  0.00    -0.250 OA
ATOM     12  C   UNL     1      -2.500   0.114  -0.059  0.00  0.00    +0.317 C 
ATOM     13  C   UNL     1      -3.645  -0.746   0.384  0.00  0.00    +0.121 C 
ENDBRANCH  10  12
ENDBRANCH   3  10
TORSDOF 2
