REMARK  Name = 20055008
REMARK  5 active torsions:
REMARK  status: ('A' for Active; 'I' for Inactive)
REMARK    1  A    between atoms: C_7  and  O_22
REMARK    2  A    between atoms: C_7  and  C_27
REMARK    3  A    between atoms: C_8  and  O_24
REMARK    4  A    between atoms: C_27  and  C_28
REMARK    5  A    between atoms: C_28  and  O_29
REMARK                            x       y       z     vdW  Elec       q    Type
REMARK                         _______ _______ _______ _____ _____    ______ ____
ROOT
ATOM      1  O   UNL     1       6.270  -0.198  -1.688  0.00  0.00    -0.287 OA
ATOM      2  C   UNL     1      -1.737  -0.155   0.200  0.00  0.00    +0.035 C 
ATOM      3  C   UNL     1      -0.816   1.048  -0.119  0.00  0.00    +0.007 C 
ATOM      4  C   UNL     1       0.564   0.958   0.550  0.00  0.00    +0.004 C 
ATOM      5  C   UNL     1       1.287  -0.340   0.042  0.00  0.00    +0.034 C 
ATOM      6  C   UNL     1      -1.042  -1.423  -0.337  0.00  0.00    +0.032 C 
ATOM      7  C   UNL     1      -3.022   0.286  -0.565  0.00  0.00    +0.156 C 
ATOM      8  C   UNL     1       0.393  -1.610   0.206  0.00  0.00    +0.111 C 
ATOM      9  C   UNL     1       2.764  -0.455   0.593  0.00  0.00    +0.036 C 
ATOM     10  C   UNL     1      -1.697   2.265   0.168  0.00  0.00    +0.025 C 
ATOM     11  C   UNL     1       1.395   2.216   0.240  0.00  0.00    +0.004 C 
ATOM     12  C   UNL     1      -3.059   1.782  -0.294  0.00  0.00    -0.014 C 
ATOM     13  C   UNL     1      -2.043  -0.303   1.718  0.00  0.00    +0.003 C 
ATOM     14  C   UNL     1       2.819   2.116   0.773  0.00  0.00    +0.022 C 
ATOM     15  C   UNL     1       3.479   0.860   0.264  0.00  0.00    -0.038 C 
ATOM     16  C   UNL     1       2.850  -0.679   2.120  0.00  0.00    +0.009 C 
ATOM     17  C   UNL     1       3.469  -1.640  -0.050  0.00  0.00    -0.020 C 
ATOM     18  C   UNL     1       4.601   0.936  -0.470  0.00  0.00    +0.034 C 
ATOM     19  C   UNL     1      -4.116   2.592  -0.435  0.00  0.00    -0.006 C 
ATOM     20  C   UNL     1       4.585  -1.571  -0.782  0.00  0.00    +0.038 C 
ATOM     21  C   UNL     1       5.237  -0.273  -1.032  0.00  0.00    +0.195 C 
ENDROOT
BRANCH   7  22
ATOM     22  O   UNL     1      -2.885   0.070  -1.964  0.00  0.00    -0.376 OA
ATOM     23  H   UNL     1      -2.093   0.528  -2.287  0.00  0.00    +0.211 HD
ENDBRANCH   7  22
BRANCH   8  24
ATOM     24  O   UNL     1       0.339  -2.031   1.562  0.00  0.00    -0.384 OA
ATOM     25  H   UNL     1       1.241  -2.147   1.900  0.00  0.00    +0.210 HD
ENDBRANCH   8  24
BRANCH   7  27
ATOM     26  O   UNL     1      -4.940  -0.057   0.815  0.00  0.00    -0.291 OA
ATOM     27  C   UNL     1      -4.264  -0.447  -0.136  0.00  0.00    +0.207 C 
BRANCH  27  28
ATOM     28  C   UNL     1      -4.624  -1.681  -0.936  0.00  0.00    +0.205 C 
BRANCH  28  29
ATOM     29  O   UNL     1      -5.810  -2.266  -0.443  0.00  0.00    -0.375 OA
ATOM     30  H   UNL     1      -6.025  -3.054  -0.967  0.00  0.00    +0.211 HD
ENDBRANCH  28  29
ENDBRANCH  27  28
ENDBRANCH   7  27
TORSDOF 5
