25803
  -OEChem-01012018493D

 56 57  0     1  0  0  0  0  0999 V2000
   -1.2760   -1.4784   -2.1101 O   0  0  0  0  0  0  0  0  0  0  0  0
    1.3948    1.0865    0.5039 O   0  0  0  0  0  0  0  0  0  0  0  0
   -3.9915   -2.1559    1.5051 O   0  0  0  0  0  0  0  0  0  0  0  0
    3.7539   -0.1079   -0.3969 O   0  0  0  0  0  0  0  0  0  0  0  0
    0.4199   -1.1905    2.2062 O   0  0  0  0  0  0  0  0  0  0  0  0
    1.5774    3.1414   -0.5178 O   0  0  0  0  0  0  0  0  0  0  0  0
   -0.3804   -1.1531    0.0133 N   0  0  0  0  0  0  0  0  0  0  0  0
   -1.8073   -1.5541    1.8499 N   0  0  0  0  0  0  0  0  0  0  0  0
    2.3135    2.8028    1.6341 N   0  0  0  0  0  0  0  0  0  0  0  0
   -2.8303   -1.0102   -0.3070 C   0  0  1  0  0  0  0  0  0  0  0  0
   -3.8730   -1.6644   -1.2427 C   0  0  0  0  0  0  0  0  0  0  0  0
   -1.4363   -1.2595   -0.9077 C   0  0  0  0  0  0  0  0  0  0  0  0
   -3.1564    0.4986   -0.2228 C   0  0  0  0  0  0  0  0  0  0  0  0
   -2.9550   -1.6468    1.0804 C   0  0  0  0  0  0  0  0  0  0  0  0
    0.9743   -1.0606   -0.5178 C   0  0  0  0  0  0  0  0  0  0  0  0
    1.4292    0.3811   -0.7372 C   0  0  2  0  0  0  0  0  0  0  0  0
   -0.5183   -1.2686    1.4090 C   0  0  0  0  0  0  0  0  0  0  0  0
   -3.6438   -3.1561   -1.3547 C   0  0  0  0  0  0  0  0  0  0  0  0
   -2.5484    1.3821   -1.1056 C   0  0  0  0  0  0  0  0  0  0  0  0
   -4.0533    0.9538    0.7353 C   0  0  0  0  0  0  0  0  0  0  0  0
    2.8379    0.4836   -1.3132 C   0  0  0  0  0  0  0  0  0  0  0  0
   -2.8425    2.7435   -1.0292 C   0  0  0  0  0  0  0  0  0  0  0  0
   -4.3475    2.3151    0.8116 C   0  0  0  0  0  0  0  0  0  0  0  0
   -3.7421    3.2099   -0.0705 C   0  0  0  0  0  0  0  0  0  0  0  0
    5.0852   -0.0564   -0.8882 C   0  0  0  0  0  0  0  0  0  0  0  0
    6.0115   -0.7017    0.1327 C   0  0  0  0  0  0  0  0  0  0  0  0
    7.4668   -0.6668   -0.3255 C   0  0  0  0  0  0  0  0  0  0  0  0
    1.7444    2.4059    0.4494 C   0  0  0  0  0  0  0  0  0  0  0  0
    8.3934   -1.2733    0.7161 C   0  0  0  0  0  0  0  0  0  0  0  0
   -3.8350   -1.2196   -2.2460 H   0  0  0  0  0  0  0  0  0  0  0  0
   -4.8929   -1.4918   -0.8739 H   0  0  0  0  0  0  0  0  0  0  0  0
    1.0333   -1.6092   -1.4649 H   0  0  0  0  0  0  0  0  0  0  0  0
    1.6545   -1.5627    0.1804 H   0  0  0  0  0  0  0  0  0  0  0  0
    0.7235    0.8625   -1.4264 H   0  0  0  0  0  0  0  0  0  0  0  0
   -1.8979   -1.8084    2.8296 H   0  0  0  0  0  0  0  0  0  0  0  0
   -4.3981   -3.5809   -2.0276 H   0  0  0  0  0  0  0  0  0  0  0  0
   -3.7510   -3.6839   -0.4037 H   0  0  0  0  0  0  0  0  0  0  0  0
   -2.6723   -3.4226   -1.7774 H   0  0  0  0  0  0  0  0  0  0  0  0
    3.1403    1.5171   -1.5066 H   0  0  0  0  0  0  0  0  0  0  0  0
    2.8801   -0.0591   -2.2656 H   0  0  0  0  0  0  0  0  0  0  0  0
   -1.8579    1.0564   -1.8759 H   0  0  0  0  0  0  0  0  0  0  0  0
   -4.5622    0.2916    1.4267 H   0  0  0  0  0  0  0  0  0  0  0  0
   -2.3741    3.4401   -1.7183 H   0  0  0  0  0  0  0  0  0  0  0  0
   -5.0516    2.6783    1.5547 H   0  0  0  0  0  0  0  0  0  0  0  0
    5.1464   -0.5930   -1.8423 H   0  0  0  0  0  0  0  0  0  0  0  0
    5.3761    0.9882   -1.0504 H   0  0  0  0  0  0  0  0  0  0  0  0
   -3.9725    4.2697   -0.0123 H   0  0  0  0  0  0  0  0  0  0  0  0
    5.9040   -0.1855    1.0950 H   0  0  0  0  0  0  0  0  0  0  0  0
    5.6935   -1.7365    0.3110 H   0  0  0  0  0  0  0  0  0  0  0  0
    7.7727    0.3683   -0.5169 H   0  0  0  0  0  0  0  0  0  0  0  0
    7.5737   -1.2163   -1.2680 H   0  0  0  0  0  0  0  0  0  0  0  0
    8.3350   -0.7237    1.6609 H   0  0  0  0  0  0  0  0  0  0  0  0
    8.1342   -2.3191    0.9100 H   0  0  0  0  0  0  0  0  0  0  0  0
    9.4301   -1.2393    0.3669 H   0  0  0  0  0  0  0  0  0  0  0  0
    2.6351    3.7548    1.7731 H   0  0  0  0  0  0  0  0  0  0  0  0
    2.4312    2.1557    2.4064 H   0  0  0  0  0  0  0  0  0  0  0  0
  1 12  2  0  0  0  0
  2 16  1  0  0  0  0
  2 28  1  0  0  0  0
  3 14  2  0  0  0  0
  4 21  1  0  0  0  0
  4 25  1  0  0  0  0
  5 17  2  0  0  0  0
  6 28  2  0  0  0  0
  7 12  1  0  0  0  0
  7 15  1  0  0  0  0
  7 17  1  0  0  0  0
  8 14  1  0  0  0  0
  8 17  1  0  0  0  0
  8 35  1  0  0  0  0
  9 28  1  0  0  0  0
  9 55  1  0  0  0  0
  9 56  1  0  0  0  0
 10 11  1  0  0  0  0
 10 12  1  0  0  0  0
 10 13  1  0  0  0  0
 10 14  1  0  0  0  0
 11 18  1  0  0  0  0
 11 30  1  0  0  0  0
 11 31  1  0  0  0  0
 13 19  2  0  0  0  0
 13 20  1  0  0  0  0
 15 16  1  0  0  0  0
 15 32  1  0  0  0  0
 15 33  1  0  0  0  0
 16 21  1  0  0  0  0
 16 34  1  0  0  0  0
 18 36  1  0  0  0  0
 18 37  1  0  0  0  0
 18 38  1  0  0  0  0
 19 22  1  0  0  0  0
 19 41  1  0  0  0  0
 20 23  2  0  0  0  0
 20 42  1  0  0  0  0
 21 39  1  0  0  0  0
 21 40  1  0  0  0  0
 22 24  2  0  0  0  0
 22 43  1  0  0  0  0
 23 24  1  0  0  0  0
 23 44  1  0  0  0  0
 24 47  1  0  0  0  0
 25 26  1  0  0  0  0
 25 45  1  0  0  0  0
 25 46  1  0  0  0  0
 26 27  1  0  0  0  0
 26 48  1  0  0  0  0
 26 49  1  0  0  0  0
 27 29  1  0  0  0  0
 27 50  1  0  0  0  0
 27 51  1  0  0  0  0
 29 52  1  0  0  0  0
 29 53  1  0  0  0  0
 29 54  1  0  0  0  0
M  END
> <DATABASE_ID>
DB13303

> <DATABASE_NAME>
drugbank

> <ORIGINAL_SOURCE>
PUBCHEM

> <ORIGINAL_SOURCE_URL>
https://pubchem.ncbi.nlm.nih.gov/rest/pug/compound/inchikey/QHZQILHUJDRDAI-UHFFFAOYSA-N/SDF?record_type=3d

> <SMILES>
CCCCOCC(CN1C(=O)NC(=O)C(CC)(C1=O)C1=CC=CC=C1)OC(N)=O

> <INCHI_IDENTIFIER>
InChI=1S/C20H27N3O6/c1-3-5-11-28-13-15(29-18(21)26)12-23-17(25)20(4-2,16(24)22-19(23)27)14-9-7-6-8-10-14/h6-10,15H,3-5,11-13H2,1-2H3,(H2,21,26)(H,22,24,27)

> <INCHI_KEY>
QHZQILHUJDRDAI-UHFFFAOYSA-N

> <FORMULA>
C20H27N3O6

> <MOLECULAR_WEIGHT>
405.451

> <EXACT_MASS>
405.189985601

> <JCHEM_ACCEPTOR_COUNT>
5

> <JCHEM_ATOM_COUNT>
56

> <JCHEM_AVERAGE_NEUTRAL_MICROSPECIES_CHARGE>
-0.2905922924129422

> <JCHEM_AVERAGE_POLARIZABILITY>
41.889373715262394

> <JCHEM_BIOAVAILABILITY>
1

> <JCHEM_DONOR_COUNT>
2

> <JCHEM_FORMAL_CHARGE>
0

> <JCHEM_GHOSE_FILTER>
1

> <JCHEM_IUPAC>
1-butoxy-3-(5-ethyl-2,4,6-trioxo-5-phenyl-1,3-diazinan-1-yl)propan-2-yl carbamate

> <ALOGPS_LOGP>
2.31

> <JCHEM_LOGP>
2.3841746346666657

> <ALOGPS_LOGS>
-3.88

> <JCHEM_MDDR_LIKE_RULE>
0

> <JCHEM_NEUTRAL_CHARGE>
0

> <JCHEM_NUMBER_OF_RINGS>
2

> <JCHEM_PHYSIOLOGICAL_CHARGE>
-1

> <JCHEM_PKA>
15.121288568356738

> <JCHEM_PKA_STRONGEST_ACIDIC>
7.387611820757996

> <JCHEM_PKA_STRONGEST_BASIC>
-4.1412603847429645

> <JCHEM_POLAR_SURFACE_AREA>
128.03

> <JCHEM_REFRACTIVITY>
103.35079999999999

> <JCHEM_ROTATABLE_BOND_COUNT>
11

> <JCHEM_RULE_OF_FIVE>
1

> <ALOGPS_SOLUBILITY>
5.39e-02 g/l

> <JCHEM_TRADITIONAL_IUPAC>
meladrazine

> <JCHEM_VEBER_RULE>
0

> <DRUGBANK_ID>
DB13303

> <DRUG_GROUPS>
experimental

> <GENERIC_NAME>
Febarbamate

> <SYNONYMS>
Febarbamate; Febarbamato; Febarbamatum; Phebarbamate; Phenobamate

> <INTERNATIONAL_BRANDS>
G-Tril; Getril; Solium; Tymium

$$$$
