REMARK  Name = 66377
REMARK  5 active torsions:
REMARK  status: ('A' for Active; 'I' for Inactive)
REMARK    1  A    between atoms: N_3  and  C1*_11
REMARK    2  A    between atoms: C_7  and  C_20
REMARK    3  A    between atoms: C3*_12  and  O3*_15
REMARK    4  A    between atoms: C4*_14  and  C5*_17
REMARK    5  A    between atoms: C5*_17  and  O5*_18
REMARK                            x       y       z     vdW  Elec       q    Type
REMARK                         _______ _______ _______ _____ _____    ______ ____
ROOT
ATOM      1  O   UNL     1      -0.604  -3.085   0.503  0.00  0.00    -0.252 OA
ATOM      2  O   UNL     1      -4.189  -0.344  -0.381  0.00  0.00    -0.270 OA
ATOM      3  N   UNL     1      -0.191  -0.810   0.176  0.00  0.00    -0.219 N 
ATOM      4  N   UNL     1      -2.383  -1.706   0.061  0.00  0.00    -0.236 N 
ATOM      5  C   UNL     1      -0.739   0.437  -0.097  0.00  0.00    +0.071 C 
ATOM      6  C   UNL     1      -1.020  -1.949   0.265  0.00  0.00    +0.315 C 
ATOM      7  C   UNL     1      -2.043   0.665  -0.291  0.00  0.00    +0.047 C 
ATOM      8  C   UNL     1      -2.981  -0.486  -0.213  0.00  0.00    +0.250 C 
ATOM      9  H   UNL     1      -2.982  -2.486   0.118  0.00  0.00    +0.159 HD
ENDROOT
BRANCH   3  11
ATOM     10  O4* UNL     1       1.710   0.298   0.972  0.00  0.00    -0.335 OA
ATOM     11  C1* UNL     1       1.227  -0.908   0.363  0.00  0.00    +0.202 C 
ATOM     12  C3* UNL     1       3.283  -0.370  -0.672  0.00  0.00    +0.144 C 
ATOM     13  C2* UNL     1       1.982  -1.091  -0.943  0.00  0.00    +0.083 C 
ATOM     14  C4* UNL     1       2.860   0.770   0.244  0.00  0.00    +0.173 C 
BRANCH  12  15
ATOM     15  O3* UNL     1       4.179  -1.239   0.016  0.00  0.00    -0.382 OA
ATOM     16  H3* UNL     1       4.444  -1.962  -0.573  0.00  0.00    +0.210 HD
ENDBRANCH  12  15
BRANCH  14  17
ATOM     17  C5* UNL     1       2.450   2.023  -0.518  0.00  0.00    +0.169 C 
BRANCH  17  18
ATOM     18  O5* UNL     1       2.064   3.021   0.413  0.00  0.00    -0.379 OA
ATOM     19  H5* UNL     1       1.801   3.823  -0.064  0.00  0.00    +0.211 HD
ENDBRANCH  17  18
ENDBRANCH  14  17
ENDBRANCH   3  11
BRANCH   7  20
ATOM     20  C   UNL     1      -2.612   2.017  -0.584  0.00  0.00    +0.032 C 
ATOM     21  C   UNL     1      -2.992   2.756   0.686  0.00  0.00    +0.005 C 
ENDBRANCH   7  20
TORSDOF 5
