REMARK  Name = 14592
REMARK  5 active torsions:
REMARK  status: ('A' for Active; 'I' for Inactive)
REMARK    1  A    between atoms: C_1  and  N_2
REMARK    2  A    between atoms: C_1  and  C_8
REMARK    3  A    between atoms: C_1  and  C_11
REMARK    4  A    between atoms: C_8  and  C_9
REMARK    5  A    between atoms: C_11  and  C_12
REMARK                            x       y       z     vdW  Elec       q    Type
REMARK                         _______ _______ _______ _____ _____    ______ ____
ROOT
ATOM      1  C   UNL     1      -0.733   0.066   0.303  0.00  0.00    -0.054 C 
ENDROOT
BRANCH   1   2
ATOM      2  N   UNL     1      -2.099   0.272  -0.153  0.00  0.00    +0.388 N 
ATOM      3  C   UNL     1      -3.088  -0.154   0.837  0.00  0.00    -0.077 C 
ATOM      4  C   UNL     1      -2.397   1.681  -0.405  0.00  0.00    -0.077 C 
ATOM      5  C   UNL     1      -4.371   0.495   0.339  0.00  0.00    -0.025 C 
ATOM      6  C   UNL     1      -3.917   1.700  -0.479  0.00  0.00    -0.025 C 
ATOM      7  H   UNL     1      -2.161  -0.283  -1.007  0.00  0.00    -0.080 HD
ENDBRANCH   1   2
BRANCH   1   8
ATOM      8  C   UNL     1      -0.492  -1.411   0.686  0.00  0.00    -0.020 C 
BRANCH   8   9
ATOM      9  C   UNL     1      -0.700  -2.428  -0.441  0.00  0.00    -0.002 C 
ATOM     10  C   UNL     1      -0.515  -3.852   0.063  0.00  0.00    -0.000 C 
ENDBRANCH   8   9
ENDBRANCH   1   8
BRANCH   1  11
ATOM     11  C   UNL     1       0.231   0.615  -0.767  0.00  0.00    +0.006 C 
BRANCH  11  12
ATOM     12  C   UNL     1       1.685   0.556  -0.365  0.00  0.00    -0.024 C 
ATOM     13  C   UNL     1       2.249   1.632   0.301  0.00  0.00    -0.004 C 
ATOM     14  C   UNL     1       2.429  -0.573  -0.669  0.00  0.00    -0.004 C 
ATOM     15  C   UNL     1       3.593   1.578   0.673  0.00  0.00    -0.000 C 
ATOM     16  C   UNL     1       3.772  -0.627  -0.297  0.00  0.00    -0.000 C 
ATOM     17  C   UNL     1       4.354   0.449   0.374  0.00  0.00    -0.000 C 
ENDBRANCH  11  12
ENDBRANCH   1  11
TORSDOF 5
