REMARK  Name = 20055482
REMARK  15 active torsions:
REMARK  status: ('A' for Active; 'I' for Inactive)
REMARK    1  A    between atoms: C_1  and  O_2
REMARK    2  A    between atoms: C_1  and  C_4
REMARK    3  A    between atoms: C_1  and  C_19
REMARK    4  A    between atoms: C_4  and  O_5
REMARK    5  A    between atoms: C_4  and  C_7
REMARK    6  A    between atoms: C_7  and  O_8
REMARK    7  A    between atoms: C_7  and  C_13
REMARK    8  A    between atoms: O_8  and  S_9
REMARK    9  A    between atoms: C_13  and  O_14
REMARK   10  A    between atoms: O_14  and  S_15
REMARK   11  A    between atoms: C_19  and  O_20
REMARK   12  A    between atoms: C_19  and  C_25
REMARK   13  A    between atoms: O_20  and  S_21
REMARK   14  A    between atoms: C_25  and  O_26
REMARK   15  A    between atoms: O_26  and  S_27
REMARK                            x       y       z     vdW  Elec       q    Type
REMARK                         _______ _______ _______ _____ _____    ______ ____
ROOT
ATOM      1  C   UNL     1       0.475  -0.598   1.651  0.00  0.00    +0.172 C 
ENDROOT
BRANCH   1   2
ATOM      2  O   UNL     1       1.240  -0.573   2.856  0.00  0.00    -0.379 OA
ATOM      3  H   UNL     1       0.641  -0.549   3.619  0.00  0.00    +0.211 HD
ENDBRANCH   1   2
BRANCH   1   4
ATOM      4  C   UNL     1      -0.482   0.606   1.651  0.00  0.00    +0.172 C 
BRANCH   4   5
ATOM      5  O   UNL     1      -1.255   0.580   2.850  0.00  0.00    -0.379 OA
ATOM      6  H   UNL     1      -0.661   0.554   3.617  0.00  0.00    +0.211 HD
ENDBRANCH   4   5
BRANCH   4   7
ATOM      7  C   UNL     1      -1.421   0.648   0.429  0.00  0.00    +0.204 C 
BRANCH   7   8
ATOM      8  O   UNL     1      -2.299   1.771   0.576  0.00  0.00    -0.239 OA
BRANCH   8   9
ATOM      9  S   UNL     1      -1.710   3.256   0.269  0.00  0.00    -0.005 S 
ATOM     10  O   UNL     1      -1.003   3.245  -0.996  0.00  0.00    -0.072 OA
ATOM     11  O   UNL     1      -1.121   3.803   1.474  0.00  0.00    -0.072 OA
ATOM     12  C   UNL     1      -3.282   4.041   0.017  0.00  0.00    +0.181 C 
ENDBRANCH   8   9
ENDBRANCH   7   8
BRANCH   7  13
ATOM     13  C   UNL     1      -2.303  -0.591   0.275  0.00  0.00    +0.207 C 
BRANCH  13  14
ATOM     14  O   UNL     1      -3.159  -0.434  -0.855  0.00  0.00    -0.239 OA
BRANCH  14  15
ATOM     15  S   UNL     1      -4.196  -1.638  -1.219  0.00  0.00    -0.005 S 
ATOM     16  O   UNL     1      -5.211  -1.729  -0.188  0.00  0.00    -0.072 OA
ATOM     17  O   UNL     1      -3.453  -2.797  -1.669  0.00  0.00    -0.072 OA
ATOM     18  C   UNL     1      -4.920  -0.859  -2.640  0.00  0.00    +0.181 C 
ENDBRANCH  14  15
ENDBRANCH  13  14
ENDBRANCH   7  13
ENDBRANCH   4   7
ENDBRANCH   1   4
BRANCH   1  19
ATOM     19  C   UNL     1       1.423  -0.637   0.435  0.00  0.00    +0.204 C 
BRANCH  19  20
ATOM     20  O   UNL     1       2.300  -1.760   0.589  0.00  0.00    -0.239 OA
BRANCH  20  21
ATOM     21  S   UNL     1       1.713  -3.245   0.277  0.00  0.00    -0.005 S 
ATOM     22  O   UNL     1       1.016  -3.233  -0.993  0.00  0.00    -0.072 OA
ATOM     23  O   UNL     1       1.115  -3.793   1.477  0.00  0.00    -0.072 OA
ATOM     24  C   UNL     1       3.287  -4.030   0.036  0.00  0.00    +0.181 C 
ENDBRANCH  20  21
ENDBRANCH  19  20
BRANCH  19  25
ATOM     25  C   UNL     1       2.305   0.601   0.289  0.00  0.00    +0.207 C 
BRANCH  25  26
ATOM     26  O   UNL     1       3.151   0.429  -0.845  0.00  0.00    -0.239 OA
BRANCH  26  27
ATOM     27  S   UNL     1       4.199   1.620  -1.224  0.00  0.00    -0.005 S 
ATOM     28  O   UNL     1       5.221   1.707  -0.201  0.00  0.00    -0.072 OA
ATOM     29  O   UNL     1       3.464   2.784  -1.676  0.00  0.00    -0.072 OA
ATOM     30  C   UNL     1       4.905   0.825  -2.645  0.00  0.00    +0.181 C 
ENDBRANCH  26  27
ENDBRANCH  25  26
ENDBRANCH  19  25
ENDBRANCH   1  19
TORSDOF 15
