REMARK  Name = 123600
REMARK  8 active torsions:
REMARK  status: ('A' for Active; 'I' for Inactive)
REMARK    1  A    between atoms: C_1  and  C_2
REMARK    2  A    between atoms: C_1  and  O_13
REMARK    3  A    between atoms: C_1  and  C_15
REMARK    4  A    between atoms: C_5  and  C_10
REMARK    5  A    between atoms: C_6  and  O_8
REMARK    6  A    between atoms: C_10  and  O_11
REMARK    7  A    between atoms: C_15  and  N_16
REMARK    8  A    between atoms: N_16  and  C_19
REMARK                            x       y       z     vdW  Elec       q    Type
REMARK                         _______ _______ _______ _____ _____    ______ ____
ROOT
ATOM      1  C   UNL     1       0.722  -0.982  -0.848  0.00  0.00    +0.112 C 
ENDROOT
BRANCH   1   2
ATOM      2  C   UNL     1      -0.697  -0.815  -0.350  0.00  0.00    +0.002 C 
ATOM      3  C   UNL     1      -1.230   0.459  -0.241  0.00  0.00    -0.001 C 
ATOM      4  C   UNL     1      -1.432  -1.938  -0.014  0.00  0.00    +0.001 C 
ATOM      5  C   UNL     1      -2.538   0.613   0.219  0.00  0.00    +0.040 C 
ATOM      6  C   UNL     1      -3.293  -0.509   0.562  0.00  0.00    +0.132 C 
ATOM      7  C   UNL     1      -2.740  -1.784   0.445  0.00  0.00    +0.036 C 
BRANCH   6   8
ATOM      8  O   UNL     1      -4.572  -0.376   1.012  0.00  0.00    -0.506 OA
ATOM      9  H   UNL     1      -4.954   0.476   1.094  0.00  0.00    +0.292 HD
ENDBRANCH   6   8
BRANCH   5  10
ATOM     10  C   UNL     1      -3.114   1.985   0.336  0.00  0.00    +0.167 C 
BRANCH  10  11
ATOM     11  O   UNL     1      -3.748   2.335  -0.888  0.00  0.00    -0.377 OA
ATOM     12  H   UNL     1      -4.123   3.227  -0.814  0.00  0.00    +0.211 HD
ENDBRANCH  10  11
ENDBRANCH   5  10
ENDBRANCH   1   2
BRANCH   1  13
ATOM     13  O   UNL     1       0.781  -0.508  -2.192  0.00  0.00    -0.382 OA
ATOM     14  H   UNL     1       1.685  -0.607  -2.530  0.00  0.00    +0.211 HD
ENDBRANCH   1  13
BRANCH   1  15
ATOM     15  C   UNL     1       1.719  -0.216   0.030  0.00  0.00    -0.047 C 
BRANCH  15  16
ATOM     16  N   UNL     1       3.076  -0.387  -0.460  0.00  0.00    +0.388 N 
ATOM     17  H   UNL     1       3.314  -1.379  -0.451  0.00  0.00    -0.084 HD
ATOM     18  H   UNL     1       3.132  -0.020  -1.410  0.00  0.00    -0.084 HD
BRANCH  16  19
ATOM     19  C   UNL     1       4.026   0.344   0.386  0.00  0.00    -0.046 C 
ATOM     20  C   UNL     1       5.437   0.142  -0.177  0.00  0.00    -0.022 C 
ATOM     21  C   UNL     1       3.657   1.831   0.360  0.00  0.00    -0.022 C 
ATOM     22  C   UNL     1       3.948  -0.194   1.820  0.00  0.00    -0.022 C 
ENDBRANCH  16  19
ENDBRANCH  15  16
ENDBRANCH   1  15
TORSDOF 8
