REMARK  Name = 71387
REMARK  3 active torsions:
REMARK  status: ('A' for Active; 'I' for Inactive)
REMARK    1  A    between atoms: C_7  and  O_24
REMARK    2  A    between atoms: C_7  and  C_27
REMARK    3  A    between atoms: C_27  and  C_29
REMARK                            x       y       z     vdW  Elec       q    Type
REMARK                         _______ _______ _______ _____ _____    ______ ____
ROOT
ATOM      1  F   UNL     1       1.452   0.157   1.323  0.00  0.00    -0.232 F 
ATOM      2  O   UNL     1       0.754   2.568  -0.845  0.00  0.00    -0.293 OA
ATOM      3  O   UNL     1       6.389  -0.023   1.377  0.00  0.00    -0.287 OA
ATOM      4  C   UNL     1      -1.737   0.264  -0.162  0.00  0.00    +0.036 C 
ATOM      5  C   UNL     1      -0.874  -0.982   0.156  0.00  0.00    +0.006 C 
ATOM      6  C   UNL     1       0.503  -0.952  -0.528  0.00  0.00    +0.038 C 
ATOM      7  C   UNL     1      -3.053  -0.121   0.573  0.00  0.00    +0.140 C 
ATOM      8  C   UNL     1       1.290   0.309  -0.037  0.00  0.00    +0.190 C 
ATOM      9  C   UNL     1      -1.815  -2.142  -0.155  0.00  0.00    +0.003 C 
ATOM     10  C   UNL     1      -3.184  -1.666   0.393  0.00  0.00    +0.031 C 
ATOM     11  C   UNL     1      -0.995   1.495   0.377  0.00  0.00    +0.070 C 
ATOM     12  C   UNL     1       2.736   0.388  -0.643  0.00  0.00    +0.068 C 
ATOM     13  C   UNL     1       1.291  -2.240  -0.240  0.00  0.00    +0.007 C 
ATOM     14  C   UNL     1       0.395   1.556  -0.246  0.00  0.00    +0.181 C 
ATOM     15  C   UNL     1      -1.994   0.463  -1.682  0.00  0.00    +0.003 C 
ATOM     16  C   UNL     1       2.692  -2.191  -0.840  0.00  0.00    +0.023 C 
ATOM     17  C   UNL     1       3.425  -0.958  -0.374  0.00  0.00    -0.035 C 
ATOM     18  C   UNL     1      -4.318  -2.151  -0.506  0.00  0.00    +0.003 C 
ATOM     19  C   UNL     1       2.739   0.636  -2.169  0.00  0.00    +0.012 C 
ATOM     20  C   UNL     1       3.512   1.534  -0.007  0.00  0.00    -0.017 C 
ATOM     21  C   UNL     1       4.592  -1.082   0.279  0.00  0.00    +0.034 C 
ATOM     22  C   UNL     1       4.673   1.415   0.646  0.00  0.00    +0.038 C 
ATOM     23  C   UNL     1       5.308   0.095   0.810  0.00  0.00    +0.195 C 
ENDROOT
BRANCH   7  24
ATOM     24  O   UNL     1      -2.916   0.153   1.974  0.00  0.00    -0.380 OA
ATOM     25  H   UNL     1      -2.160  -0.341   2.328  0.00  0.00    +0.211 HD
ENDBRANCH   7  24
BRANCH   7  27
ATOM     26  O   UNL     1      -4.166   1.572  -0.666  0.00  0.00    -0.292 OA
ATOM     27  C   UNL     1      -4.246   0.712   0.209  0.00  0.00    +0.191 C 
BRANCH  27  29
ATOM     28 CL   UNL     1      -6.941   0.770   0.000  0.00  0.00    -0.105 Cl
ATOM     29  C   UNL     1      -5.511   0.418   0.982  0.00  0.00    +0.161 C 
ENDBRANCH  27  29
ENDBRANCH   7  27
TORSDOF 3
