REMARK  Name = 4581
REMARK  5 active torsions:
REMARK  status: ('A' for Active; 'I' for Inactive)
REMARK    1  A    between atoms: C_1  and  C_2
REMARK    2  A    between atoms: C_1  and  O_10
REMARK    3  A    between atoms: C_1  and  C_12
REMARK    4  A    between atoms: C_7  and  O_8
REMARK    5  A    between atoms: C_12  and  N_13
REMARK                            x       y       z     vdW  Elec       q    Type
REMARK                         _______ _______ _______ _____ _____    ______ ____
ROOT
ATOM      1  C   UNL     1      -1.752   0.436   0.216  0.00  0.00    +0.111 C 
ENDROOT
BRANCH   1   2
ATOM      2  C   UNL     1      -0.278   0.243   0.106  0.00  0.00    +0.002 C 
ATOM      3  C   UNL     1       0.556   1.342  -0.097  0.00  0.00    +0.001 C 
ATOM      4  C   UNL     1       0.266  -1.038   0.205  0.00  0.00    +0.001 C 
ATOM      5  C   UNL     1       1.936   1.160  -0.200  0.00  0.00    +0.036 C 
ATOM      6  C   UNL     1       1.646  -1.219   0.102  0.00  0.00    +0.036 C 
ATOM      7  C   UNL     1       2.480  -0.120  -0.101  0.00  0.00    +0.134 C 
BRANCH   7   8
ATOM      8  O   UNL     1       3.826  -0.296  -0.201  0.00  0.00    -0.506 OA
ATOM      9  H   UNL     1       4.386   0.443  -0.338  0.00  0.00    +0.292 HD
ENDBRANCH   7   8
ENDBRANCH   1   2
BRANCH   1  10
ATOM     10  O   UNL     1      -2.180   0.043   1.527  0.00  0.00    -0.382 OA
ATOM     11  H   UNL     1      -1.693   0.554   2.193  0.00  0.00    +0.211 HD
ENDBRANCH   1  10
BRANCH   1  12
ATOM     12  C   UNL     1      -2.529  -0.377  -0.839  0.00  0.00    -0.052 C 
BRANCH  12  13
ATOM     13  N   UNL     1      -3.971  -0.174  -0.720  0.00  0.00    +0.382 N 
ATOM     14  H   UNL     1      -4.452  -0.725  -1.430  0.00  0.00    -0.089 HD
ATOM     15  H   UNL     1      -4.187   0.814  -0.852  0.00  0.00    -0.089 HD
ATOM     16  H   UNL     1      -4.280  -0.469   0.206  0.00  0.00    -0.089 HD
ENDBRANCH  12  13
ENDBRANCH   1  12
TORSDOF 5
