REMARK  Name = 72060
REMARK  3 active torsions:
REMARK  status: ('A' for Active; 'I' for Inactive)
REMARK    1  A    between atoms: C_1  and  C_6
REMARK    2  A    between atoms: C_1  and  C_11
REMARK    3  A    between atoms: C_1  and  C_17
REMARK                            x       y       z     vdW  Elec       q    Type
REMARK                         _______ _______ _______ _____ _____    ______ ____
ROOT
ATOM      1  C   UNL     1      -0.003  -0.793   0.326  0.00  0.00    +0.099 C 
ENDROOT
BRANCH   1   6
ATOM      2  O   UNL     1      -0.948   0.864  -1.178  0.00  0.00    -0.274 OA
ATOM      3  O   UNL     1      -3.699   1.331  -0.812  0.00  0.00    -0.253 OA
ATOM      4  N   UNL     1      -2.346  -0.145   0.390  0.00  0.00    -0.240 N 
ATOM      5  N   UNL     1      -4.585   0.060   0.885  0.00  0.00    -0.313 N 
ATOM      6  C   UNL     1      -1.124   0.078  -0.250  0.00  0.00    +0.233 C 
ATOM      7  C   UNL     1      -3.550   0.490   0.073  0.00  0.00    +0.303 C 
ATOM      8  H   UNL     1      -2.360  -0.802   1.123  0.00  0.00    +0.159 HD
ATOM      9  H   UNL     1      -5.490   0.429   0.766  0.00  0.00    +0.146 HD
ATOM     10  H   UNL     1      -4.417  -0.616   1.581  0.00  0.00    +0.146 HD
ENDBRANCH   1   6
BRANCH   1  11
ATOM     11  C   UNL     1       1.332  -0.076   0.214  0.00  0.00    -0.014 C 
ATOM     12  C   UNL     1       2.095  -0.256  -0.923  0.00  0.00    -0.004 C 
ATOM     13  C   UNL     1       1.747   0.735   1.252  0.00  0.00    -0.004 C 
ATOM     14  C   UNL     1       3.321   0.402  -1.027  0.00  0.00    -0.000 C 
ATOM     15  C   UNL     1       2.973   1.392   1.149  0.00  0.00    -0.000 C 
ATOM     16  C   UNL     1       3.760   1.226   0.009  0.00  0.00    -0.000 C 
ENDBRANCH   1  11
BRANCH   1  17
ATOM     17  C   UNL     1       0.001  -2.177  -0.353  0.00  0.00    +0.013 C 
ATOM     18  C   UNL     1       1.029  -3.131   0.244  0.00  0.00    +0.001 C 
ENDBRANCH   1  17
TORSDOF 3
