REMARK  Name = 5231552
REMARK  5 active torsions:
REMARK  status: ('A' for Active; 'I' for Inactive)
REMARK    1  A    between atoms: CA_1  and  C_4
REMARK    2  A    between atoms: CA_1  and  N_5
REMARK    3  A    between atoms: CA_1  and  CB_11
REMARK    4  A    between atoms: N_5  and  C_9
REMARK    5  A    between atoms: CB_11  and  CG_12
REMARK                            x       y       z     vdW  Elec       q    Type
REMARK                         _______ _______ _______ _____ _____    ______ ____
ROOT
ATOM      1  CA  LEU A   1       0.022  -0.368   0.121  0.00  0.00    +0.160 C 
ENDROOT
BRANCH   1   4
ATOM      2  O   LEU A   1       0.163   1.913   0.710  0.00  0.00    -0.244 OA
ATOM      3  OXT LEU A   1       0.075   1.361  -1.507  0.00  0.00    -0.244 OA
ATOM      4  C   LEU A   1       0.088   1.115  -0.268  0.00  0.00    +0.381 C 
ENDBRANCH   1   4
BRANCH   1   5
ATOM      5  N   LEU A   1      -1.244  -0.681   0.861  0.00  0.00    -0.362 NA
ATOM      6  H1  LEU A   1      -1.259  -1.060   1.769  0.00  0.00    +0.127 HD
ATOM      7  H2  LEU A   1      -1.253  -1.562   0.422  0.00  0.00    +0.127 HD
BRANCH   5   9
ATOM      8  O   UNK A   0      -2.922   0.752   0.248  0.00  0.00    -0.277 OA
ATOM      9  C   UNK A   0      -2.452  -0.368   0.103  0.00  0.00    +0.207 C 
ATOM     10  C   UNK A   0      -3.073  -1.444  -0.735  0.00  0.00    +0.093 C 
ENDBRANCH   5   9
ENDBRANCH   1   5
BRANCH   1  11
ATOM     11  CB  LEU A   1       1.190  -0.820   1.008  0.00  0.00    +0.030 C 
BRANCH  11  12
ATOM     12  CG  LEU A   1       2.580  -0.701   0.349  0.00  0.00    +0.002 C 
ATOM     13  CD1 LEU A   1       2.606  -1.509  -0.952  0.00  0.00    +0.000 C 
ATOM     14  CD2 LEU A   1       2.969   0.750   0.063  0.00  0.00    +0.000 C 
ENDBRANCH  11  12
ENDBRANCH   1  11
TORSDOF 5
