REMARK  Name = 42396
REMARK  8 active torsions:
REMARK  status: ('A' for Active; 'I' for Inactive)
REMARK    1  A    between atoms: C_1  and  O_2
REMARK    2  A    between atoms: C_1  and  C_4
REMARK    3  A    between atoms: C_1  and  C_11
REMARK    4  A    between atoms: C_4  and  N_5
REMARK    5  A    between atoms: N_5  and  C_8
REMARK    6  A    between atoms: C_11  and  O_12
REMARK    7  A    between atoms: O_12  and  C_13
REMARK    8  A    between atoms: C_18  and  O_19
REMARK                            x       y       z     vdW  Elec       q    Type
REMARK                         _______ _______ _______ _____ _____    ______ ____
ROOT
ATOM      1  C   UNL     1       1.993   1.823  -0.411  0.00  0.00    +0.133 C 
ENDROOT
BRANCH   1   2
ATOM      2  O   UNL     1       2.133   2.957   0.450  0.00  0.00    -0.383 OA
ATOM      3  H   UNL     1       3.065   3.061   0.698  0.00  0.00    +0.210 HD
ENDBRANCH   1   2
BRANCH   1   4
ATOM      4  C   UNL     1       2.555   0.599   0.315  0.00  0.00    -0.048 C 
BRANCH   4   5
ATOM      5  N   UNL     1       2.511  -0.598  -0.514  0.00  0.00    +0.387 N 
ATOM      6  H   UNL     1       3.029  -0.426  -1.376  0.00  0.00    -0.084 HD
ATOM      7  H   UNL     1       1.536  -0.815  -0.720  0.00  0.00    -0.084 HD
BRANCH   5   8
ATOM      8  C   UNL     1       3.104  -1.734   0.179  0.00  0.00    -0.062 C 
ATOM      9  C   UNL     1       4.565  -1.447   0.513  0.00  0.00    -0.023 C 
ATOM     10  C   UNL     1       2.975  -2.982  -0.689  0.00  0.00    -0.023 C 
ENDBRANCH   5   8
ENDBRANCH   4   5
ENDBRANCH   1   4
BRANCH   1  11
ATOM     11  C   UNL     1       0.521   1.676  -0.791  0.00  0.00    +0.232 C 
BRANCH  11  12
ATOM     12  O   UNL     1      -0.239   1.450   0.392  0.00  0.00    -0.473 OA
BRANCH  12  13
ATOM     13  C   UNL     1      -1.384   0.712   0.257  0.00  0.00    +0.139 C 
ATOM     14  C   UNL     1      -2.089   0.747  -0.942  0.00  0.00    +0.040 C 
ATOM     15  C   UNL     1      -1.832  -0.068   1.318  0.00  0.00    +0.040 C 
ATOM     16  C   UNL     1      -3.256  -0.004  -1.080  0.00  0.00    +0.040 C 
ATOM     17  C   UNL     1      -2.998  -0.820   1.179  0.00  0.00    +0.040 C 
ATOM     18  C   UNL     1      -3.710  -0.788  -0.020  0.00  0.00    +0.134 C 
BRANCH  18  19
ATOM     19  O   UNL     1      -4.848  -1.524  -0.155  0.00  0.00    -0.506 OA
ATOM     20  H   UNL     1      -5.326  -1.502  -0.961  0.00  0.00    +0.292 HD
ENDBRANCH  18  19
ENDBRANCH  12  13
ENDBRANCH  11  12
ENDBRANCH   1  11
TORSDOF 8
