2312
  -OEChem-10061700233D

 52 53  0     0  0  0  0  0  0999 V2000
   -0.9736   -0.3390   -0.4465 O   0  0  0  0  0  0  0  0  0  0  0  0
   -5.1229   -0.9190    0.1678 N   0  0  0  0  0  0  0  0  0  0  0  0
    0.3826    0.0374   -0.2206 C   0  0  0  0  0  0  0  0  0  0  0  0
    0.5722    0.5111    1.2332 C   0  0  0  0  0  0  0  0  0  0  0  0
    0.7975    1.1161   -1.2356 C   0  0  0  0  0  0  0  0  0  0  0  0
   -0.3562    1.6208    1.7202 C   0  0  0  0  0  0  0  0  0  0  0  0
   -0.2293    2.1988   -1.5671 C   0  0  0  0  0  0  0  0  0  0  0  0
    1.2486   -1.2138   -0.4423 C   0  0  0  0  0  0  0  0  0  0  0  0
   -0.3087    2.9113    0.9075 C   0  0  0  0  0  0  0  0  0  0  0  0
   -1.0415    2.7926   -0.4220 C   0  0  0  0  0  0  0  0  0  0  0  0
    2.7020   -0.9209   -0.2081 C   0  0  0  0  0  0  0  0  0  0  0  0
   -1.3586   -1.3934    0.4169 C   0  0  0  0  0  0  0  0  0  0  0  0
   -2.8166   -1.7415    0.1493 C   0  0  0  0  0  0  0  0  0  0  0  0
    3.4965   -0.4920   -1.2652 C   0  0  0  0  0  0  0  0  0  0  0  0
    3.2399   -1.0816    1.0636 C   0  0  0  0  0  0  0  0  0  0  0  0
   -3.7334   -0.5510    0.4115 C   0  0  0  0  0  0  0  0  0  0  0  0
    4.8473   -0.2202   -1.0477 C   0  0  0  0  0  0  0  0  0  0  0  0
    4.5907   -0.8096    1.2812 C   0  0  0  0  0  0  0  0  0  0  0  0
    5.3943   -0.3790    0.2255 C   0  0  0  0  0  0  0  0  0  0  0  0
   -5.3138   -1.3166   -1.2282 C   0  0  0  0  0  0  0  0  0  0  0  0
   -6.0171    0.1896    0.5065 C   0  0  0  0  0  0  0  0  0  0  0  0
    1.5846    0.9161    1.3563 H   0  0  0  0  0  0  0  0  0  0  0  0
    0.5056   -0.3159    1.9492 H   0  0  0  0  0  0  0  0  0  0  0  0
    1.0234    0.6428   -2.2003 H   0  0  0  0  0  0  0  0  0  0  0  0
    1.7202    1.6127   -0.9106 H   0  0  0  0  0  0  0  0  0  0  0  0
   -0.0665    1.8633    2.7511 H   0  0  0  0  0  0  0  0  0  0  0  0
   -1.3876    1.2554    1.7810 H   0  0  0  0  0  0  0  0  0  0  0  0
    0.3033    3.0133   -2.0759 H   0  0  0  0  0  0  0  0  0  0  0  0
   -0.9345    1.8068   -2.3119 H   0  0  0  0  0  0  0  0  0  0  0  0
    1.0925   -1.6236   -1.4497 H   0  0  0  0  0  0  0  0  0  0  0  0
    1.0193   -2.0429    0.2336 H   0  0  0  0  0  0  0  0  0  0  0  0
    0.7224    3.2544    0.7659 H   0  0  0  0  0  0  0  0  0  0  0  0
   -0.8145    3.6863    1.4975 H   0  0  0  0  0  0  0  0  0  0  0  0
   -1.9647    2.2173   -0.2876 H   0  0  0  0  0  0  0  0  0  0  0  0
   -1.3676    3.7935   -0.7332 H   0  0  0  0  0  0  0  0  0  0  0  0
   -0.8274   -2.3240    0.2106 H   0  0  0  0  0  0  0  0  0  0  0  0
   -1.2726   -1.1431    1.4764 H   0  0  0  0  0  0  0  0  0  0  0  0
   -3.1098   -2.5946    0.7731 H   0  0  0  0  0  0  0  0  0  0  0  0
   -2.8740   -2.0555   -0.8985 H   0  0  0  0  0  0  0  0  0  0  0  0
    3.0938   -0.3820   -2.2676 H   0  0  0  0  0  0  0  0  0  0  0  0
    2.6347   -1.4323    1.8946 H   0  0  0  0  0  0  0  0  0  0  0  0
   -3.6128   -0.2446    1.4583 H   0  0  0  0  0  0  0  0  0  0  0  0
   -3.4442    0.3046   -0.2110 H   0  0  0  0  0  0  0  0  0  0  0  0
    5.4742    0.1105   -1.8706 H   0  0  0  0  0  0  0  0  0  0  0  0
    5.0177   -0.9371    2.2717 H   0  0  0  0  0  0  0  0  0  0  0  0
    6.4464   -0.1692    0.3945 H   0  0  0  0  0  0  0  0  0  0  0  0
   -4.8695   -2.2937   -1.4403 H   0  0  0  0  0  0  0  0  0  0  0  0
   -6.3818   -1.4420   -1.4455 H   0  0  0  0  0  0  0  0  0  0  0  0
   -4.9177   -0.5769   -1.9335 H   0  0  0  0  0  0  0  0  0  0  0  0
   -5.8290    1.0757   -0.1107 H   0  0  0  0  0  0  0  0  0  0  0  0
   -5.9003    0.4710    1.5591 H   0  0  0  0  0  0  0  0  0  0  0  0
   -7.0643   -0.1060    0.3775 H   0  0  0  0  0  0  0  0  0  0  0  0
  1  3  1  0  0  0  0
  1 12  1  0  0  0  0
  2 16  1  0  0  0  0
  2 20  1  0  0  0  0
  2 21  1  0  0  0  0
  3  4  1  0  0  0  0
  3  5  1  0  0  0  0
  3  8  1  0  0  0  0
  4  6  1  0  0  0  0
  4 22  1  0  0  0  0
  4 23  1  0  0  0  0
  5  7  1  0  0  0  0
  5 24  1  0  0  0  0
  5 25  1  0  0  0  0
  6  9  1  0  0  0  0
  6 26  1  0  0  0  0
  6 27  1  0  0  0  0
  7 10  1  0  0  0  0
  7 28  1  0  0  0  0
  7 29  1  0  0  0  0
  8 11  1  0  0  0  0
  8 30  1  0  0  0  0
  8 31  1  0  0  0  0
  9 10  1  0  0  0  0
  9 32  1  0  0  0  0
  9 33  1  0  0  0  0
 10 34  1  0  0  0  0
 10 35  1  0  0  0  0
 11 14  2  0  0  0  0
 11 15  1  0  0  0  0
 12 13  1  0  0  0  0
 12 36  1  0  0  0  0
 12 37  1  0  0  0  0
 13 16  1  0  0  0  0
 13 38  1  0  0  0  0
 13 39  1  0  0  0  0
 14 17  1  0  0  0  0
 14 40  1  0  0  0  0
 15 18  2  0  0  0  0
 15 41  1  0  0  0  0
 16 42  1  0  0  0  0
 16 43  1  0  0  0  0
 17 19  2  0  0  0  0
 17 44  1  0  0  0  0
 18 19  1  0  0  0  0
 18 45  1  0  0  0  0
 19 46  1  0  0  0  0
 20 47  1  0  0  0  0
 20 48  1  0  0  0  0
 20 49  1  0  0  0  0
 21 50  1  0  0  0  0
 21 51  1  0  0  0  0
 21 52  1  0  0  0  0
M  END
> <DATABASE_ID>
DB13488

> <DATABASE_NAME>
drugbank

> <ORIGINAL_SOURCE>
PUBCHEM

> <ORIGINAL_SOURCE_URL>
https://pubchem.ncbi.nlm.nih.gov/rest/pug/compound/inchikey/FYJJXENSONZJRG-UHFFFAOYSA-N/SDF?record_type=3d

> <SMILES>
CN(C)CCCOC1(CC2=CC=CC=C2)CCCCCC1

> <INCHI_IDENTIFIER>
InChI=1S/C19H31NO/c1-20(2)15-10-16-21-19(13-8-3-4-9-14-19)17-18-11-6-5-7-12-18/h5-7,11-12H,3-4,8-10,13-17H2,1-2H3

> <INCHI_KEY>
FYJJXENSONZJRG-UHFFFAOYSA-N

> <FORMULA>
C19H31NO

> <MOLECULAR_WEIGHT>
289.463

> <EXACT_MASS>
289.240564622

> <JCHEM_ACCEPTOR_COUNT>
2

> <JCHEM_ATOM_COUNT>
52

> <JCHEM_AVERAGE_POLARIZABILITY>
35.87942984386172

> <JCHEM_BIOAVAILABILITY>
1

> <JCHEM_DONOR_COUNT>
0

> <JCHEM_FORMAL_CHARGE>
0

> <JCHEM_GHOSE_FILTER>
1

> <JCHEM_IUPAC>
{3-[(1-benzylcycloheptyl)oxy]propyl}dimethylamine

> <ALOGPS_LOGP>
5.07

> <JCHEM_LOGP>
4.383895929

> <ALOGPS_LOGS>
-5.90

> <JCHEM_MDDR_LIKE_RULE>
0

> <JCHEM_NUMBER_OF_RINGS>
2

> <JCHEM_PHYSIOLOGICAL_CHARGE>
1

> <JCHEM_PKA_STRONGEST_BASIC>
9.457462682242033

> <JCHEM_POLAR_SURFACE_AREA>
12.47

> <JCHEM_REFRACTIVITY>
90.76939999999998

> <JCHEM_ROTATABLE_BOND_COUNT>
7

> <JCHEM_RULE_OF_FIVE>
1

> <ALOGPS_SOLUBILITY>
3.61e-04 g/l

> <JCHEM_TRADITIONAL_IUPAC>
bencyclane

> <JCHEM_VEBER_RULE>
1

> <DRUGBANK_ID>
DB13488

> <DRUG_GROUPS>
experimental

> <GENERIC_NAME>
Bencyclane

> <SYNONYMS>
3-((1-Benzylcycloheptyl)oxy)-N,N-dimethylpropylamin; Benciclano; Bencyclanum

> <SALTS>
Bencyclane fumarate

$$$$
