REMARK  Name = 6488
REMARK  3 active torsions:
REMARK  status: ('A' for Active; 'I' for Inactive)
REMARK    1  A    between atoms: C_5  and  C_11
REMARK    2  A    between atoms: C_11  and  C_12
REMARK    3  A    between atoms: C_11  and  C_14
REMARK                            x       y       z     vdW  Elec       q    Type
REMARK                         _______ _______ _______ _____ _____    ______ ____
ROOT
ATOM      1  O   UNL     1      -0.354  -1.321  -1.129  0.00  0.00    -0.274 OA
ATOM      2  O   UNL     1      -3.073  -0.782  -0.802  0.00  0.00    -0.253 OA
ATOM      3  N   UNL     1      -1.290   0.208   0.338  0.00  0.00    -0.239 N 
ATOM      4  N   UNL     1      -3.460   0.833   0.786  0.00  0.00    -0.313 N 
ATOM      5  C   UNL     1      -0.220  -0.465  -0.254  0.00  0.00    +0.238 C 
ATOM      6  C   UNL     1      -2.640   0.011   0.032  0.00  0.00    +0.303 C 
ATOM      7  H   UNL     1      -1.076   0.876   1.029  0.00  0.00    +0.159 HD
ATOM      8  H   UNL     1      -4.437   0.795   0.668  0.00  0.00    +0.146 HD
ATOM      9  H   UNL     1      -3.067   1.455   1.440  0.00  0.00    +0.146 HD
ENDROOT
BRANCH   5  11
ATOM     10 BR   UNL     1       1.153  -0.642   2.172  0.00  0.00    -0.073 Br
ATOM     11  C   UNL     1       1.171  -0.049   0.273  0.00  0.00    +0.117 C 
BRANCH  11  12
ATOM     12  C   UNL     1       2.276  -0.856  -0.452  0.00  0.00    +0.019 C 
ATOM     13  C   UNL     1       3.716  -0.506  -0.090  0.00  0.00    +0.001 C 
ENDBRANCH  11  12
BRANCH  11  14
ATOM     14  C   UNL     1       1.392   1.476   0.260  0.00  0.00    +0.019 C 
ATOM     15  C   UNL     1       1.329   2.092  -1.134  0.00  0.00    +0.001 C 
ENDBRANCH  11  14
ENDBRANCH   5  11
TORSDOF 3
