REMARK  Name = 76965484
REMARK  6 active torsions:
REMARK  status: ('A' for Active; 'I' for Inactive)
REMARK    1  A    between atoms: C_1  and  C_12
REMARK    2  A    between atoms: C_3  and  C_24
REMARK    3  A    between atoms: C_13  and  C_21
REMARK    4  A    between atoms: C_18  and  O_19
REMARK    5  A    between atoms: C_21  and  O_22
REMARK    6  A    between atoms: C_24  and  N_25
REMARK                            x       y       z     vdW  Elec       q    Type
REMARK                         _______ _______ _______ _____ _____    ______ ____
ROOT
ATOM      1  C   UNL     1      -0.054   0.049   0.649  0.00  0.00    -0.002 C 
ATOM      2  C   UNL     1       2.339   0.628   0.173  0.00  0.00    +0.002 C 
ATOM      3  C   UNL     1       0.894   1.129   0.042  0.00  0.00    -0.022 C 
ATOM      4  C   UNL     1       2.579  -0.709  -0.562  0.00  0.00    +0.015 C 
ATOM      5  C   UNL     1       0.219  -1.370   0.099  0.00  0.00    +0.000 C 
ATOM      6  C   UNL     1       1.702  -1.772   0.118  0.00  0.00    +0.004 C 
ATOM      7  C   UNL     1       3.479   1.518  -0.314  0.00  0.00    +0.005 C 
ATOM      8  C   UNL     1       4.083  -0.817  -0.391  0.00  0.00    -0.045 C 
ATOM      9  C   UNL     1       4.687   0.570  -0.303  0.00  0.00    +0.022 C 
ATOM     10  C   UNL     1       2.291  -0.676  -2.082  0.00  0.00    +0.004 C 
ATOM     11  C   UNL     1       4.795  -1.942  -0.258  0.00  0.00    -0.009 C 
ENDROOT
BRANCH   1  12
ATOM     12  C   UNL     1      -1.545   0.393   0.443  0.00  0.00    +0.002 C 
ATOM     13  C   UNL     1      -2.398  -0.915   0.351  0.00  0.00    +0.032 C 
ATOM     14  C   UNL     1      -1.664   1.174  -0.893  0.00  0.00    +0.003 C 
ATOM     15  C   UNL     1      -1.983   1.298   1.613  0.00  0.00    +0.000 C 
ATOM     16  C   UNL     1      -3.846  -0.636  -0.091  0.00  0.00    +0.032 C 
ATOM     17  C   UNL     1      -3.105   1.440  -1.317  0.00  0.00    +0.029 C 
ATOM     18  C   UNL     1      -3.909   0.148  -1.398  0.00  0.00    +0.111 C 
BRANCH  18  19
ATOM     19  O   UNL     1      -5.271   0.450  -1.681  0.00  0.00    -0.384 OA
ATOM     20  H   UNL     1      -5.781  -0.373  -1.732  0.00  0.00    +0.210 HD
ENDBRANCH  18  19
BRANCH  13  21
ATOM     21  C   UNL     1      -2.419  -1.748   1.639  0.00  0.00    +0.137 C 
BRANCH  21  22
ATOM     22  O   UNL     1      -2.663  -3.096   1.290  0.00  0.00    -0.382 OA
ATOM     23  H   UNL     1      -2.679  -3.640   2.094  0.00  0.00    +0.210 HD
ENDBRANCH  21  22
ENDBRANCH  13  21
ENDBRANCH   1  12
BRANCH   3  24
ATOM     24  C   UNL     1       0.724   2.489   0.731  0.00  0.00    -0.086 C 
BRANCH  24  25
ATOM     25  N   UNL     1       1.066   2.397   2.139  0.00  0.00    +0.380 N 
ATOM     26  H   UNL     1       0.947   3.309   2.579  0.00  0.00    -0.089 HD
ATOM     27  H   UNL     1       2.036   2.097   2.235  0.00  0.00    -0.089 HD
ATOM     28  H   UNL     1       0.455   1.718   2.594  0.00  0.00    -0.089 HD
ENDBRANCH  24  25
ENDBRANCH   3  24
TORSDOF 6
