11824
  -OEChem-10211716313D

 34 36  0     1  0  0  0  0  0999 V2000
    2.2081    0.4187    1.0179 O   0  0  0  0  0  0  0  0  0  0  0  0
    1.7530   -2.2016   -1.4002 O   0  0  0  0  0  0  0  0  0  0  0  0
    3.9501   -1.9387    0.1775 O   0  0  0  0  0  0  0  0  0  0  0  0
    3.6737    2.7829    0.6639 O   0  0  0  0  0  0  0  0  0  0  0  0
    0.0309   -0.0625    0.2065 N   0  0  0  0  0  0  0  0  0  0  0  0
   -1.1745   -2.1381    0.4434 N   0  0  0  0  0  0  0  0  0  0  0  0
   -3.5865   -1.8684    0.2499 N   0  0  0  0  0  0  0  0  0  0  0  0
   -4.6222    0.2422   -0.1343 N   0  0  0  0  0  0  0  0  0  0  0  0
   -2.9432    3.5683   -0.5283 N   0  0  0  0  0  0  0  0  0  0  0  0
    1.3899   -0.5739    0.3696 C   0  0  1  0  0  0  0  0  0  0  0  0
    2.0877   -0.9083   -0.9400 C   0  0  1  0  0  0  0  0  0  0  0  0
    3.5459   -0.7768   -0.5468 C   0  0  1  0  0  0  0  0  0  0  0  0
    3.5194    0.4131    0.4074 C   0  0  1  0  0  0  0  0  0  0  0  0
    3.7254    1.7454   -0.2996 C   0  0  0  0  0  0  0  0  0  0  0  0
   -1.1197   -0.8093    0.2465 C   0  0  0  0  0  0  0  0  0  0  0  0
   -0.2937    1.2546   -0.0125 C   0  0  0  0  0  0  0  0  0  0  0  0
   -2.1972    0.0456    0.0491 C   0  0  0  0  0  0  0  0  0  0  0  0
   -1.6654    1.3504   -0.1136 C   0  0  0  0  0  0  0  0  0  0  0  0
   -3.4647   -0.5347    0.0563 C   0  0  0  0  0  0  0  0  0  0  0  0
   -2.4494   -2.5776    0.4288 C   0  0  0  0  0  0  0  0  0  0  0  0
   -2.3674    2.5688   -0.3415 C   0  0  0  0  0  0  0  0  0  0  0  0
    1.3280   -1.4395    1.0405 H   0  0  0  0  0  0  0  0  0  0  0  0
    1.8369   -0.1820   -1.7218 H   0  0  0  0  0  0  0  0  0  0  0  0
    4.2182   -0.6644   -1.4021 H   0  0  0  0  0  0  0  0  0  0  0  0
    4.2438    0.3088    1.2232 H   0  0  0  0  0  0  0  0  0  0  0  0
    2.9465    1.9426   -1.0429 H   0  0  0  0  0  0  0  0  0  0  0  0
    4.7006    1.7823   -0.7937 H   0  0  0  0  0  0  0  0  0  0  0  0
    0.4730    2.0150   -0.0848 H   0  0  0  0  0  0  0  0  0  0  0  0
    2.0269   -2.8424   -0.7220 H   0  0  0  0  0  0  0  0  0  0  0  0
    4.8723   -1.8017    0.4538 H   0  0  0  0  0  0  0  0  0  0  0  0
    2.8045    2.7371    1.0978 H   0  0  0  0  0  0  0  0  0  0  0  0
   -2.5813   -3.6434    0.5811 H   0  0  0  0  0  0  0  0  0  0  0  0
   -4.5691    1.2394   -0.2808 H   0  0  0  0  0  0  0  0  0  0  0  0
   -5.5229   -0.2175   -0.1215 H   0  0  0  0  0  0  0  0  0  0  0  0
  1 10  1  0  0  0  0
  1 13  1  0  0  0  0
  2 11  1  0  0  0  0
  2 29  1  0  0  0  0
  3 12  1  0  0  0  0
  3 30  1  0  0  0  0
  4 14  1  0  0  0  0
  4 31  1  0  0  0  0
  5 10  1  0  0  0  0
  5 15  1  0  0  0  0
  5 16  1  0  0  0  0
  6 15  2  0  0  0  0
  6 20  1  0  0  0  0
  7 19  1  0  0  0  0
  7 20  2  0  0  0  0
  8 19  1  0  0  0  0
  8 33  1  0  0  0  0
  8 34  1  0  0  0  0
  9 21  3  0  0  0  0
 10 11  1  0  0  0  0
 10 22  1  0  0  0  0
 11 12  1  0  0  0  0
 11 23  1  0  0  0  0
 12 13  1  0  0  0  0
 12 24  1  0  0  0  0
 13 14  1  0  0  0  0
 13 25  1  0  0  0  0
 14 26  1  0  0  0  0
 14 27  1  0  0  0  0
 15 17  1  0  0  0  0
 16 18  2  0  0  0  0
 16 28  1  0  0  0  0
 17 18  1  0  0  0  0
 17 19  2  0  0  0  0
 18 21  1  0  0  0  0
 20 32  1  0  0  0  0
M  END
> <DATABASE_ID>
DB13916

> <DATABASE_NAME>
drugbank

> <ORIGINAL_SOURCE>
PUBCHEM

> <ORIGINAL_SOURCE_URL>
https://pubchem.ncbi.nlm.nih.gov/rest/pug/compound/inchikey/XOKJUSAYZUAMGJ-WOUKDFQISA-N/SDF?record_type=3d

> <SMILES>
NC1=C2C(=CN([C@@H]3O[C@H](CO)[C@@H](O)[C@H]3O)C2=NC=N1)C#N

> <INCHI_IDENTIFIER>
InChI=1S/C12H13N5O4/c13-1-5-2-17(11-7(5)10(14)15-4-16-11)12-9(20)8(19)6(3-18)21-12/h2,4,6,8-9,12,18-20H,3H2,(H2,14,15,16)/t6-,8-,9-,12-/m1/s1

> <INCHI_KEY>
XOKJUSAYZUAMGJ-WOUKDFQISA-N

> <FORMULA>
C12H13N5O4

> <MOLECULAR_WEIGHT>
291.2627

> <EXACT_MASS>
291.096753929

> <JCHEM_ACCEPTOR_COUNT>
8

> <JCHEM_ATOM_COUNT>
34

> <JCHEM_AVERAGE_POLARIZABILITY>
27.44772643811683

> <JCHEM_BIOAVAILABILITY>
1

> <JCHEM_DONOR_COUNT>
4

> <JCHEM_FORMAL_CHARGE>
0

> <JCHEM_GHOSE_FILTER>
0

> <JCHEM_IUPAC>
4-amino-7-[(2R,3R,4S,5R)-3,4-dihydroxy-5-(hydroxymethyl)oxolan-2-yl]-7H-pyrrolo[2,3-d]pyrimidine-5-carbonitrile

> <ALOGPS_LOGP>
-0.77

> <JCHEM_LOGP>
-1.4223638733333335

> <ALOGPS_LOGS>
-2.08

> <JCHEM_MDDR_LIKE_RULE>
0

> <JCHEM_NUMBER_OF_RINGS>
3

> <JCHEM_PHYSIOLOGICAL_CHARGE>
0

> <JCHEM_PKA>
13.891812927050974

> <JCHEM_PKA_STRONGEST_ACIDIC>
12.455629102053194

> <JCHEM_PKA_STRONGEST_BASIC>
4.714221147922124

> <JCHEM_POLAR_SURFACE_AREA>
150.44

> <JCHEM_REFRACTIVITY>
71.09320000000001

> <JCHEM_ROTATABLE_BOND_COUNT>
2

> <JCHEM_RULE_OF_FIVE>
1

> <ALOGPS_SOLUBILITY>
2.42e+00 g/l

> <JCHEM_TRADITIONAL_IUPAC>
4-amino-7-[(2R,3R,4S,5R)-3,4-dihydroxy-5-(hydroxymethyl)oxolan-2-yl]pyrrolo[2,3-d]pyrimidine-5-carbonitrile

> <JCHEM_VEBER_RULE>
0

> <DRUGBANK_ID>
DB13916

> <DRUG_GROUPS>
experimental

> <GENERIC_NAME>
Toyocamycin

> <SYNONYMS>
4-amino-5-cyano-7-(D-ribofuranosyl)-7H-pyrrolo(2,3-d)pyrimidine; 7-deaza-7-cyanoadenosine; Ahygroscopin-B; Cyanotubericidin; Siromycin; Uramycin B; Vengicide

$$$$
