REMARK  Name = 5939
REMARK  2 active torsions:
REMARK  status: ('A' for Active; 'I' for Inactive)
REMARK    1  A    between atoms: N_1  and  C_4
REMARK    2  A    between atoms: N_1  and  C_11
REMARK                            x       y       z     vdW  Elec       q    Type
REMARK                         _______ _______ _______ _____ _____    ______ ____
ROOT
ATOM      1  N   UNL     1      -0.056   0.774   0.133  0.00  0.00    -0.180 NA
ENDROOT
BRANCH   1   4
ATOM      2  N   UNL     1      -2.377   0.556   0.132  0.00  0.00    -0.370 N 
ATOM      3  N   UNL     1      -1.151  -1.337  -0.228  0.00  0.00    -0.370 N 
ATOM      4  C   UNL     1      -1.117   0.018   0.017  0.00  0.00    +0.196 C 
ATOM      5  H   UNL     1      -2.487   1.518   0.308  0.00  0.00    +0.159 HD
ATOM      6  H   UNL     1      -3.169  -0.022   0.039  0.00  0.00    +0.159 HD
ATOM      7  H   UNL     1      -0.311  -1.840  -0.332  0.00  0.00    +0.159 HD
ATOM      8  H   UNL     1      -2.016  -1.802  -0.300  0.00  0.00    +0.159 HD
ENDBRANCH   1   4
BRANCH   1  11
ATOM      9  N   UNL     1       1.839  -0.306   1.115  0.00  0.00    -0.368 N 
ATOM     10  N   UNL     1       1.683   0.120  -1.183  0.00  0.00    -0.267 NA
ATOM     11  C   UNL     1       1.178   0.175   0.014  0.00  0.00    +0.217 C 
ATOM     12  H   UNL     1       1.422  -0.246   2.005  0.00  0.00    +0.159 HD
ATOM     13  H   UNL     1       2.730  -0.713   1.016  0.00  0.00    +0.159 HD
ATOM     14  H   UNL     1       1.176   0.477  -1.948  0.00  0.00    +0.190 HD
ENDBRANCH   1  11
TORSDOF 2
