35949
  -OEChem-10061700253D

 52 54  0     0  0  0  0  0  0999 V2000
    7.3074   -3.1253    0.2405 Cl  0  0  0  0  0  0  0  0  0  0  0  0
   -7.2951   -2.2207   -0.8373 O   0  0  0  0  0  0  0  0  0  0  0  0
   -1.9870    0.8732    0.9504 O   0  0  0  0  0  0  0  0  0  0  0  0
   -1.1076    3.1122   -0.4235 O   0  0  0  0  0  0  0  0  0  0  0  0
   -0.2227   -1.1981    1.4683 O   0  0  0  0  0  0  0  0  0  0  0  0
    3.7336    2.2110   -1.3897 O   0  0  0  0  0  0  0  0  0  0  0  0
   -5.2826   -0.3135   -0.1936 N   0  0  0  0  0  0  0  0  0  0  0  0
   -6.6258   -0.2429    0.3983 C   0  0  0  0  0  0  0  0  0  0  0  0
   -4.9462   -1.7078   -0.5134 C   0  0  0  0  0  0  0  0  0  0  0  0
   -4.2879    0.2671    0.7059 C   0  0  0  0  0  0  0  0  0  0  0  0
   -7.6444   -0.8657   -0.5521 C   0  0  0  0  0  0  0  0  0  0  0  0
   -6.0040   -2.2953   -1.4431 C   0  0  0  0  0  0  0  0  0  0  0  0
   -2.9168    0.2865    0.0492 C   0  0  0  0  0  0  0  0  0  0  0  0
   -0.6856    0.9557    0.5286 C   0  0  0  0  0  0  0  0  0  0  0  0
   -0.2532    2.0838   -0.1614 C   0  0  0  0  0  0  0  0  0  0  0  0
    0.1931   -0.0900    0.7935 C   0  0  0  0  0  0  0  0  0  0  0  0
    1.9567    1.1217   -0.3280 C   0  0  0  0  0  0  0  0  0  0  0  0
    1.0713    2.1670   -0.5910 C   0  0  0  0  0  0  0  0  0  0  0  0
    1.5176   -0.0069    0.3642 C   0  0  0  0  0  0  0  0  0  0  0  0
    3.3380    1.2098   -0.7742 C   0  0  0  0  0  0  0  0  0  0  0  0
    4.3325    0.1237   -0.5205 C   0  0  0  0  0  0  0  0  0  0  0  0
    5.0739    0.1689    0.6371 C   0  0  0  0  0  0  0  0  0  0  0  0
    4.4660   -0.8773   -1.4541 C   0  0  0  0  0  0  0  0  0  0  0  0
   -1.1909    4.1499    0.5513 C   0  0  0  0  0  0  0  0  0  0  0  0
   -0.0989   -1.1763    2.8889 C   0  0  0  0  0  0  0  0  0  0  0  0
    6.0021   -0.8450    0.8745 C   0  0  0  0  0  0  0  0  0  0  0  0
    5.3941   -1.8911   -1.2165 C   0  0  0  0  0  0  0  0  0  0  0  0
    6.1622   -1.8749   -0.0523 C   0  0  0  0  0  0  0  0  0  0  0  0
   -6.9055    0.8004    0.5845 H   0  0  0  0  0  0  0  0  0  0  0  0
   -6.6474   -0.7775    1.3570 H   0  0  0  0  0  0  0  0  0  0  0  0
   -3.9968   -1.7954   -1.0475 H   0  0  0  0  0  0  0  0  0  0  0  0
   -4.8870   -2.3090    0.4031 H   0  0  0  0  0  0  0  0  0  0  0  0
   -4.2358   -0.2725    1.6611 H   0  0  0  0  0  0  0  0  0  0  0  0
   -4.5628    1.3000    0.9568 H   0  0  0  0  0  0  0  0  0  0  0  0
   -7.7202   -0.3020   -1.4900 H   0  0  0  0  0  0  0  0  0  0  0  0
   -8.6352   -0.8686   -0.0868 H   0  0  0  0  0  0  0  0  0  0  0  0
   -5.7879   -3.3515   -1.6343 H   0  0  0  0  0  0  0  0  0  0  0  0
   -6.0239   -1.7805   -2.4115 H   0  0  0  0  0  0  0  0  0  0  0  0
   -2.5530   -0.7194   -0.1768 H   0  0  0  0  0  0  0  0  0  0  0  0
   -2.9467    0.8681   -0.8806 H   0  0  0  0  0  0  0  0  0  0  0  0
    1.3952    3.0544   -1.1296 H   0  0  0  0  0  0  0  0  0  0  0  0
    2.1785   -0.8400    0.5856 H   0  0  0  0  0  0  0  0  0  0  0  0
    4.9522    0.9690    1.3608 H   0  0  0  0  0  0  0  0  0  0  0  0
    3.8702   -0.8932   -2.3615 H   0  0  0  0  0  0  0  0  0  0  0  0
   -1.5334    3.7504    1.5110 H   0  0  0  0  0  0  0  0  0  0  0  0
   -1.9158    4.8903    0.2023 H   0  0  0  0  0  0  0  0  0  0  0  0
   -0.2200    4.6405    0.6731 H   0  0  0  0  0  0  0  0  0  0  0  0
   -0.4769   -2.1248    3.2802 H   0  0  0  0  0  0  0  0  0  0  0  0
    0.9508   -1.0704    3.1807 H   0  0  0  0  0  0  0  0  0  0  0  0
   -0.6918   -0.3608    3.3149 H   0  0  0  0  0  0  0  0  0  0  0  0
    6.5936   -0.8193    1.7861 H   0  0  0  0  0  0  0  0  0  0  0  0
    5.5081   -2.6874   -1.9476 H   0  0  0  0  0  0  0  0  0  0  0  0
  1 28  1  0  0  0  0
  2 11  1  0  0  0  0
  2 12  1  0  0  0  0
  3 13  1  0  0  0  0
  3 14  1  0  0  0  0
  4 15  1  0  0  0  0
  4 24  1  0  0  0  0
  5 16  1  0  0  0  0
  5 25  1  0  0  0  0
  6 20  2  0  0  0  0
  7  8  1  0  0  0  0
  7  9  1  0  0  0  0
  7 10  1  0  0  0  0
  8 11  1  0  0  0  0
  8 29  1  0  0  0  0
  8 30  1  0  0  0  0
  9 12  1  0  0  0  0
  9 31  1  0  0  0  0
  9 32  1  0  0  0  0
 10 13  1  0  0  0  0
 10 33  1  0  0  0  0
 10 34  1  0  0  0  0
 11 35  1  0  0  0  0
 11 36  1  0  0  0  0
 12 37  1  0  0  0  0
 12 38  1  0  0  0  0
 13 39  1  0  0  0  0
 13 40  1  0  0  0  0
 14 15  2  0  0  0  0
 14 16  1  0  0  0  0
 15 18  1  0  0  0  0
 16 19  2  0  0  0  0
 17 18  2  0  0  0  0
 17 19  1  0  0  0  0
 17 20  1  0  0  0  0
 18 41  1  0  0  0  0
 19 42  1  0  0  0  0
 20 21  1  0  0  0  0
 21 22  2  0  0  0  0
 21 23  1  0  0  0  0
 22 26  1  0  0  0  0
 22 43  1  0  0  0  0
 23 27  2  0  0  0  0
 23 44  1  0  0  0  0
 24 45  1  0  0  0  0
 24 46  1  0  0  0  0
 24 47  1  0  0  0  0
 25 48  1  0  0  0  0
 25 49  1  0  0  0  0
 25 50  1  0  0  0  0
 26 28  2  0  0  0  0
 26 51  1  0  0  0  0
 27 28  1  0  0  0  0
 27 52  1  0  0  0  0
M  END
> <DATABASE_ID>
DB13558

> <DATABASE_NAME>
drugbank

> <ORIGINAL_SOURCE>
PUBCHEM

> <ORIGINAL_SOURCE_URL>
https://pubchem.ncbi.nlm.nih.gov/rest/pug/compound/inchikey/KVCJCEKJKGLBOK-UHFFFAOYSA-N/SDF?record_type=3d

> <SMILES>
COC1=CC(=CC(OC)=C1OCCN1CCOCC1)C(=O)C1=CC=C(Cl)C=C1

> <INCHI_IDENTIFIER>
InChI=1S/C21H24ClNO5/c1-25-18-13-16(20(24)15-3-5-17(22)6-4-15)14-19(26-2)21(18)28-12-9-23-7-10-27-11-8-23/h3-6,13-14H,7-12H2,1-2H3

> <INCHI_KEY>
KVCJCEKJKGLBOK-UHFFFAOYSA-N

> <FORMULA>
C21H24ClNO5

> <MOLECULAR_WEIGHT>
405.88

> <EXACT_MASS>
405.1343006

> <JCHEM_ACCEPTOR_COUNT>
6

> <JCHEM_ATOM_COUNT>
52

> <JCHEM_AVERAGE_POLARIZABILITY>
42.837868555101814

> <JCHEM_BIOAVAILABILITY>
1

> <JCHEM_DONOR_COUNT>
0

> <JCHEM_FORMAL_CHARGE>
0

> <JCHEM_GHOSE_FILTER>
1

> <JCHEM_IUPAC>
4-{2-[4-(4-chlorobenzoyl)-2,6-dimethoxyphenoxy]ethyl}morpholine

> <ALOGPS_LOGP>
3.35

> <JCHEM_LOGP>
3.3637738033333324

> <ALOGPS_LOGS>
-4.48

> <JCHEM_MDDR_LIKE_RULE>
1

> <JCHEM_NUMBER_OF_RINGS>
3

> <JCHEM_PHYSIOLOGICAL_CHARGE>
0

> <JCHEM_PKA_STRONGEST_BASIC>
5.165004096003317

> <JCHEM_POLAR_SURFACE_AREA>
57.230000000000004

> <JCHEM_REFRACTIVITY>
107.92150000000001

> <JCHEM_ROTATABLE_BOND_COUNT>
8

> <JCHEM_RULE_OF_FIVE>
1

> <ALOGPS_SOLUBILITY>
1.35e-02 g/l

> <JCHEM_TRADITIONAL_IUPAC>
morclofone

> <JCHEM_VEBER_RULE>
0

> <DRUGBANK_ID>
DB13558

> <DRUG_GROUPS>
experimental

> <GENERIC_NAME>
Morclofone

$$$$
