65782
  -OEChem-10061700213D

 48 48  0     0  0  0  0  0  0999 V2000
    1.4622   -1.4553    0.7853 O   0  0  0  0  0  0  0  0  0  0  0  0
    2.3212    1.6129    0.1855 O   0  0  0  0  0  0  0  0  0  0  0  0
   -3.2855    0.0337   -1.5819 O   0  0  0  0  0  0  0  0  0  0  0  0
   -0.9223   -2.0726   -2.8090 O   0  0  0  0  0  0  0  0  0  0  0  0
    3.1855   -2.9454    0.4212 O   0  0  0  0  0  0  0  0  0  0  0  0
    2.8742    0.6934   -1.8566 O   0  0  0  0  0  0  0  0  0  0  0  0
   -0.5788    3.8879    0.0596 N   0  0  0  0  0  0  0  0  0  0  0  0
   -2.8674   -1.5002    1.7009 N   0  0  0  0  0  0  0  0  0  0  0  0
   -0.8607   -1.8510    0.3989 C   0  0  0  0  0  0  0  0  0  0  0  0
   -1.4250   -1.1632   -0.6697 C   0  0  0  0  0  0  0  0  0  0  0  0
    0.5232    3.1356    0.6405 C   0  0  0  0  0  0  0  0  0  0  0  0
    0.5207   -2.4328    0.3306 C   0  0  0  0  0  0  0  0  0  0  0  0
    1.2377    2.3206   -0.4258 C   0  0  0  0  0  0  0  0  0  0  0  0
   -2.7096   -0.6436   -0.5543 C   0  0  0  0  0  0  0  0  0  0  0  0
    3.6293   -0.7081    1.2734 C   0  0  0  0  0  0  0  0  0  0  0  0
    4.1637    0.1649    0.1401 C   0  0  0  0  0  0  0  0  0  0  0  0
   -0.6566   -0.9807   -1.9388 C   0  0  0  0  0  0  0  0  0  0  0  0
   -3.3827   -0.8375    0.6412 C   0  0  0  0  0  0  0  0  0  0  0  0
   -1.6166   -1.9910    1.5517 C   0  0  0  0  0  0  0  0  0  0  0  0
    2.7701   -1.8511    0.7772 C   0  0  0  0  0  0  0  0  0  0  0  0
    3.0615    0.8308   -0.6556 C   0  0  0  0  0  0  0  0  0  0  0  0
   -0.9337    5.0270    0.9096 C   0  0  0  0  0  0  0  0  0  0  0  0
   -1.7457    3.0253   -0.1423 C   0  0  0  0  0  0  0  0  0  0  0  0
   -4.7648   -0.2997    0.8184 C   0  0  0  0  0  0  0  0  0  0  0  0
    0.2031    2.4947    1.4729 H   0  0  0  0  0  0  0  0  0  0  0  0
    1.2700    3.8164    1.0721 H   0  0  0  0  0  0  0  0  0  0  0  0
    0.7752   -2.7791   -0.6772 H   0  0  0  0  0  0  0  0  0  0  0  0
    0.5767   -3.3110    0.9872 H   0  0  0  0  0  0  0  0  0  0  0  0
    0.5653    1.5892   -0.8842 H   0  0  0  0  0  0  0  0  0  0  0  0
    1.6355    2.9807   -1.2064 H   0  0  0  0  0  0  0  0  0  0  0  0
    3.0591   -0.1189    2.0015 H   0  0  0  0  0  0  0  0  0  0  0  0
    4.4652   -1.1462    1.8315 H   0  0  0  0  0  0  0  0  0  0  0  0
    4.8295    0.9432    0.5282 H   0  0  0  0  0  0  0  0  0  0  0  0
    4.7488   -0.4480   -0.5558 H   0  0  0  0  0  0  0  0  0  0  0  0
   -0.9484   -0.0550   -2.4477 H   0  0  0  0  0  0  0  0  0  0  0  0
    0.4218   -0.9004   -1.7741 H   0  0  0  0  0  0  0  0  0  0  0  0
   -1.2316   -2.5151    2.4210 H   0  0  0  0  0  0  0  0  0  0  0  0
   -0.0836    5.7105    1.0141 H   0  0  0  0  0  0  0  0  0  0  0  0
   -1.2501    4.7112    1.9103 H   0  0  0  0  0  0  0  0  0  0  0  0
   -1.7455    5.6074    0.4571 H   0  0  0  0  0  0  0  0  0  0  0  0
   -1.5331    2.2338   -0.8660 H   0  0  0  0  0  0  0  0  0  0  0  0
   -2.5779    3.6011   -0.5637 H   0  0  0  0  0  0  0  0  0  0  0  0
   -2.0904    2.5648    0.7908 H   0  0  0  0  0  0  0  0  0  0  0  0
   -5.4498   -0.7384    0.0856 H   0  0  0  0  0  0  0  0  0  0  0  0
   -5.1511   -0.5443    1.8140 H   0  0  0  0  0  0  0  0  0  0  0  0
   -4.7716    0.7911    0.7246 H   0  0  0  0  0  0  0  0  0  0  0  0
   -4.1719    0.3473   -1.3454 H   0  0  0  0  0  0  0  0  0  0  0  0
   -0.4152   -1.9178   -3.6242 H   0  0  0  0  0  0  0  0  0  0  0  0
  1 12  1  0  0  0  0
  1 20  1  0  0  0  0
  2 13  1  0  0  0  0
  2 21  1  0  0  0  0
  3 14  1  0  0  0  0
  3 47  1  0  0  0  0
  4 17  1  0  0  0  0
  4 48  1  0  0  0  0
  5 20  2  0  0  0  0
  6 21  2  0  0  0  0
  7 11  1  0  0  0  0
  7 22  1  0  0  0  0
  7 23  1  0  0  0  0
  8 18  2  0  0  0  0
  8 19  1  0  0  0  0
  9 10  1  0  0  0  0
  9 12  1  0  0  0  0
  9 19  2  0  0  0  0
 10 14  2  0  0  0  0
 10 17  1  0  0  0  0
 11 13  1  0  0  0  0
 11 25  1  0  0  0  0
 11 26  1  0  0  0  0
 12 27  1  0  0  0  0
 12 28  1  0  0  0  0
 13 29  1  0  0  0  0
 13 30  1  0  0  0  0
 14 18  1  0  0  0  0
 15 16  1  0  0  0  0
 15 20  1  0  0  0  0
 15 31  1  0  0  0  0
 15 32  1  0  0  0  0
 16 21  1  0  0  0  0
 16 33  1  0  0  0  0
 16 34  1  0  0  0  0
 17 35  1  0  0  0  0
 17 36  1  0  0  0  0
 18 24  1  0  0  0  0
 19 37  1  0  0  0  0
 22 38  1  0  0  0  0
 22 39  1  0  0  0  0
 22 40  1  0  0  0  0
 23 41  1  0  0  0  0
 23 42  1  0  0  0  0
 23 43  1  0  0  0  0
 24 44  1  0  0  0  0
 24 45  1  0  0  0  0
 24 46  1  0  0  0  0
M  END
> <DATABASE_ID>
DB13412

> <DATABASE_NAME>
drugbank

> <ORIGINAL_SOURCE>
PUBCHEM

> <ORIGINAL_SOURCE_URL>
https://pubchem.ncbi.nlm.nih.gov/rest/pug/compound/inchikey/KTOAWCPDBUCJED-UHFFFAOYSA-N/SDF?record_type=3d

> <SMILES>
CN(C)CCOC(=O)CCC(=O)OCC1=C(CO)C(O)=C(C)N=C1

> <INCHI_IDENTIFIER>
InChI=1S/C16H24N2O6/c1-11-16(22)13(9-19)12(8-17-11)10-24-15(21)5-4-14(20)23-7-6-18(2)3/h8,19,22H,4-7,9-10H2,1-3H3

> <INCHI_KEY>
KTOAWCPDBUCJED-UHFFFAOYSA-N

> <FORMULA>
C16H24N2O6

> <MOLECULAR_WEIGHT>
340.376

> <EXACT_MASS>
340.163436501

> <JCHEM_ACCEPTOR_COUNT>
6

> <JCHEM_ATOM_COUNT>
48

> <JCHEM_AVERAGE_POLARIZABILITY>
35.64807415074792

> <JCHEM_BIOAVAILABILITY>
1

> <JCHEM_DONOR_COUNT>
2

> <JCHEM_FORMAL_CHARGE>
0

> <JCHEM_GHOSE_FILTER>
0

> <JCHEM_IUPAC>
1-[2-(dimethylamino)ethyl] 4-[5-hydroxy-4-(hydroxymethyl)-6-methylpyridin-3-yl]methyl butanedioate

> <ALOGPS_LOGP>
0.17

> <JCHEM_LOGP>
-0.7614720770978052

> <ALOGPS_LOGS>
-2.32

> <JCHEM_MDDR_LIKE_RULE>
0

> <JCHEM_NUMBER_OF_RINGS>
1

> <JCHEM_PHYSIOLOGICAL_CHARGE>
1

> <JCHEM_PKA>
14.838285786874597

> <JCHEM_PKA_STRONGEST_ACIDIC>
9.438014180902908

> <JCHEM_PKA_STRONGEST_BASIC>
8.375096379918821

> <JCHEM_POLAR_SURFACE_AREA>
109.19

> <JCHEM_REFRACTIVITY>
86.9383

> <JCHEM_ROTATABLE_BOND_COUNT>
11

> <JCHEM_RULE_OF_FIVE>
1

> <ALOGPS_SOLUBILITY>
1.64e+00 g/l

> <JCHEM_TRADITIONAL_IUPAC>
pirisudanolum

> <JCHEM_VEBER_RULE>
0

> <DRUGBANK_ID>
DB13412

> <DRUG_GROUPS>
experimental

> <GENERIC_NAME>
Pirisudanol

$$$$
