REMARK  Name = 64377
REMARK  6 active torsions:
REMARK  status: ('A' for Active; 'I' for Inactive)
REMARK    1  A    between atoms: N_2  and  C_5
REMARK    2  A    between atoms: C_3  and  C_15
REMARK    3  A    between atoms: C_15  and  O_16
REMARK    4  A    between atoms: O_16  and  C_17
REMARK    5  A    between atoms: C_17  and  C_18
REMARK    6  A    between atoms: C_18  and  N_19
REMARK                            x       y       z     vdW  Elec       q    Type
REMARK                         _______ _______ _______ _____ _____    ______ ____
ROOT
ATOM      1  O   UNL     1       0.361   1.196  -0.254  0.00  0.00    -0.272 OA
ATOM      2  N   UNL     1      -0.631  -0.844   0.257  0.00  0.00    -0.305 N 
ATOM      3  C   UNL     1       0.440   0.011   0.058  0.00  0.00    +0.253 C 
ATOM      4  H   UNL     1      -0.445  -1.778   0.506  0.00  0.00    +0.149 HD
ENDROOT
BRANCH   2   5
ATOM      5  C   UNL     1      -2.010  -0.427   0.117  0.00  0.00    +0.057 C 
ATOM      6  C   UNL     1      -3.732   0.525  -1.470  0.00  0.00    +0.002 C 
ATOM      7  C   UNL     1      -4.421  -1.171   0.264  0.00  0.00    +0.002 C 
ATOM      8  C   UNL     1      -3.781   1.163   0.969  0.00  0.00    +0.002 C 
ATOM      9  C   UNL     1      -2.266   0.078  -1.320  0.00  0.00    +0.018 C 
ATOM     10  C   UNL     1      -2.954  -1.614   0.409  0.00  0.00    +0.018 C 
ATOM     11  C   UNL     1      -2.316   0.715   1.113  0.00  0.00    +0.018 C 
ATOM     12  C   UNL     1      -4.658  -0.666  -1.170  0.00  0.00    +0.000 C 
ATOM     13  C   UNL     1      -4.021   1.656  -0.468  0.00  0.00    +0.000 C 
ATOM     14  C   UNL     1      -4.707  -0.032   1.256  0.00  0.00    +0.000 C 
ENDBRANCH   2   5
BRANCH   3  15
ATOM     15  C   UNL     1       1.763  -0.693   0.272  0.00  0.00    +0.227 C 
BRANCH  15  16
ATOM     16  O   UNL     1       2.840   0.199   0.077  0.00  0.00    -0.347 OA
BRANCH  16  17
ATOM     17  C   UNL     1       4.099  -0.438   0.273  0.00  0.00    +0.120 C 
BRANCH  17  18
ATOM     18  C   UNL     1       5.203   0.576   0.024  0.00  0.00    -0.045 C 
BRANCH  18  19
ATOM     19  N   UNL     1       6.511  -0.027   0.230  0.00  0.00    +0.386 N 
ATOM     20  C   UNL     1       7.575   0.960   0.031  0.00  0.00    -0.101 C 
ATOM     21  C   UNL     1       6.705  -1.166  -0.670  0.00  0.00    -0.101 C 
ATOM     22  H   UNL     1       6.556  -0.363   1.193  0.00  0.00    -0.080 HD
ENDBRANCH  18  19
ENDBRANCH  17  18
ENDBRANCH  16  17
ENDBRANCH  15  16
ENDBRANCH   3  15
TORSDOF 6
