REMARK  Name = 5838
REMARK  2 active torsions:
REMARK  status: ('A' for Active; 'I' for Inactive)
REMARK    1  A    between atoms: C_6  and  C_12
REMARK    2  A    between atoms: C_6  and  C_18
REMARK                            x       y       z     vdW  Elec       q    Type
REMARK                         _______ _______ _______ _____ _____    ______ ____
ROOT
ATOM      1  O   UNL     1       0.428   0.492   2.414  0.00  0.00    -0.274 OA
ATOM      2  O   UNL     1       0.512   0.605  -2.389  0.00  0.00    -0.274 OA
ATOM      3  O   UNL     1       3.438  -1.983   0.005  0.00  0.00    -0.252 OA
ATOM      4  N   UNL     1       1.914  -0.733   1.180  0.00  0.00    -0.239 N 
ATOM      5  N   UNL     1       1.957  -0.676  -1.163  0.00  0.00    -0.239 N 
ATOM      6  C   UNL     1       0.265   0.674   0.012  0.00  0.00    +0.153 C 
ATOM      7  C   UNL     1       0.861   0.156   1.310  0.00  0.00    +0.240 C 
ATOM      8  C   UNL     1       0.908   0.218  -1.288  0.00  0.00    +0.240 C 
ATOM      9  C   UNL     1       2.499  -1.186   0.007  0.00  0.00    +0.312 C 
ATOM     10  H   UNL     1       2.291  -1.085   2.018  0.00  0.00    +0.159 HD
ATOM     11  H   UNL     1       2.366  -0.986  -2.003  0.00  0.00    +0.159 HD
ENDROOT
BRANCH   6  12
ATOM     12  C   UNL     1      -1.145   0.153  -0.020  0.00  0.00    -0.033 C 
ATOM     13  C   UNL     1      -1.300  -1.347   0.009  0.00  0.00    +0.023 C 
ATOM     14  C   UNL     1      -2.709  -1.825  -0.352  0.00  0.00    +0.005 C 
ATOM     15  C   UNL     1      -3.772  -0.970   0.327  0.00  0.00    +0.005 C 
ATOM     16  C   UNL     1      -3.629   0.500  -0.067  0.00  0.00    +0.025 C 
ATOM     17  C   UNL     1      -2.206   0.977  -0.070  0.00  0.00    -0.034 C 
ENDBRANCH   6  12
BRANCH   6  18
ATOM     18  C   UNL     1       0.281   2.208   0.044  0.00  0.00    +0.021 C 
ATOM     19  C   UNL     1       1.698   2.737   0.043  0.00  0.00    +0.001 C 
ENDBRANCH   6  18
TORSDOF 2
