REMARK  Name = 2453
REMARK  1 active torsions:
REMARK  status: ('A' for Active; 'I' for Inactive)
REMARK    1  A    between atoms: C_6  and  O_13
REMARK                            x       y       z     vdW  Elec       q    Type
REMARK                         _______ _______ _______ _____ _____    ______ ____
ROOT
ATOM      1 BR   UNL     1       0.197  -3.483   0.000  0.00  0.00    -0.049 Br
ATOM      2 BR   UNL     1      -3.848   0.406   0.000  0.00  0.00    -0.046 Br
ATOM      3  N   UNL     1       1.223   1.759   0.000  0.00  0.00    -0.241 NA
ATOM      4  C   UNL     1       0.728  -0.599   0.000  0.00  0.00    +0.027 C 
ATOM      5  C   UNL     1       0.328   0.753   0.000  0.00  0.00    +0.116 C 
ATOM      6  C   UNL     1      -1.036   1.032   0.000  0.00  0.00    +0.157 C 
ATOM      7  C   UNL     1      -0.234  -1.624   0.000  0.00  0.00    +0.037 C 
ATOM      8  C   UNL     1       2.101  -0.881   0.000  0.00  0.00    +0.004 C 
ATOM      9  C   UNL     1      -1.993   0.014   0.000  0.00  0.00    +0.070 C 
ATOM     10  C   UNL     1      -1.591  -1.316   0.000  0.00  0.00    +0.017 C 
ATOM     11  C   UNL     1       3.025   0.153   0.000  0.00  0.00    +0.021 C 
ATOM     12  C   UNL     1       2.538   1.444   0.000  0.00  0.00    +0.099 C 
ENDROOT
BRANCH   6  13
ATOM     13  O   UNL     1      -1.438   2.342   0.000  0.00  0.00    -0.504 OA
ATOM     14  H   UNL     1      -0.800   3.028   0.000  0.00  0.00    +0.292 HD
ENDBRANCH   6  13
TORSDOF 1
