REMARK  Name = 6857
REMARK  7 active torsions:
REMARK  status: ('A' for Active; 'I' for Inactive)
REMARK    1  A    between atoms: C_2  and  C_18
REMARK    2  A    between atoms: C_6  and  O_11
REMARK    3  A    between atoms: O_11  and  C_12
REMARK    4  A    between atoms: C_12  and  C_13
REMARK    5  A    between atoms: C_13  and  N_14
REMARK    6  A    between atoms: C_18  and  C_19
REMARK    7  A    between atoms: C_19  and  C_20
REMARK                            x       y       z     vdW  Elec       q    Type
REMARK                         _______ _______ _______ _____ _____    ______ ____
ROOT
ATOM      1  N   UNL     1      -0.100  -0.509   0.480  0.00  0.00    -0.376 NA
ATOM      2  C   UNL     1      -1.391  -0.877   0.625  0.00  0.00    +0.095 C 
ATOM      3  C   UNL     1      -2.214   1.317   0.131  0.00  0.00    -0.010 C 
ATOM      4  C   UNL     1      -0.878   1.738  -0.029  0.00  0.00    +0.062 C 
ATOM      5  C   UNL     1      -2.469  -0.019   0.465  0.00  0.00    +0.081 C 
ATOM      6  C   UNL     1       0.125   0.784   0.158  0.00  0.00    +0.276 C 
ATOM      7  C   UNL     1      -3.251   2.248  -0.049  0.00  0.00    -0.004 C 
ATOM      8  C   UNL     1      -0.602   3.074  -0.364  0.00  0.00    +0.005 C 
ATOM      9  C   UNL     1      -2.965   3.573  -0.381  0.00  0.00    -0.000 C 
ATOM     10  C   UNL     1      -1.643   3.985  -0.538  0.00  0.00    +0.000 C 
ENDROOT
BRANCH   6  11
ATOM     11  O   UNL     1       1.444   1.134   0.016  0.00  0.00    -0.454 OA
BRANCH  11  12
ATOM     12  C   UNL     1       2.403   0.104   0.223  0.00  0.00    +0.186 C 
BRANCH  12  13
ATOM     13  C   UNL     1       3.792   0.679   0.000  0.00  0.00    -0.029 C 
BRANCH  13  14
ATOM     14  N   UNL     1       4.810  -0.338   0.218  0.00  0.00    +0.387 N 
ATOM     15  C   UNL     1       6.151   0.226   0.044  0.00  0.00    -0.101 C 
ATOM     16  C   UNL     1       4.616  -1.470  -0.691  0.00  0.00    -0.101 C 
ATOM     17  H   UNL     1       4.720  -0.673   1.177  0.00  0.00    -0.080 HD
ENDBRANCH  13  14
ENDBRANCH  12  13
ENDBRANCH  11  12
ENDBRANCH   6  11
BRANCH   2  18
ATOM     18  C   UNL     1      -1.642  -2.305   0.978  0.00  0.00    +0.055 C 
BRANCH  18  19
ATOM     19  C   UNL     1      -1.800  -3.192  -0.266  0.00  0.00    +0.007 C 
BRANCH  19  20
ATOM     20  C   UNL     1      -2.095  -4.644   0.108  0.00  0.00    +0.000 C 
ATOM     21  C   UNL     1      -2.291  -5.509  -1.127  0.00  0.00    +0.000 C 
ENDBRANCH  19  20
ENDBRANCH  18  19
ENDBRANCH   2  18
TORSDOF 7
