REMARK  Name = 21720
REMARK  9 active torsions:
REMARK  status: ('A' for Active; 'I' for Inactive)
REMARK    1  A    between atoms: C_1  and  C_16
REMARK    2  A    between atoms: C_2  and  C_7
REMARK    3  A    between atoms: C_3  and  O_13
REMARK    4  A    between atoms: C_16  and  O_17
REMARK    5  A    between atoms: O_17  and  C_18
REMARK    6  A    between atoms: C_18  and  C_19
REMARK    7  A    between atoms: C_19  and  N_20
REMARK    8  A    between atoms: N_20  and  C_22
REMARK    9  A    between atoms: N_20  and  C_24
REMARK                            x       y       z     vdW  Elec       q    Type
REMARK                         _______ _______ _______ _____ _____    ______ ____
ROOT
ATOM      1  C   UNL     1       0.381   0.523  -0.392  0.00  0.00    +0.109 C 
ATOM      2  C   UNL     1       2.731   0.666   0.030  0.00  0.00    +0.034 C 
ATOM      3  C   UNL     1       1.607  -0.102  -0.273  0.00  0.00    +0.140 C 
ATOM      4  C   UNL     1       0.234   1.886  -0.221  0.00  0.00    +0.009 C 
ATOM      5  C   UNL     1       2.607   2.044   0.207  0.00  0.00    +0.003 C 
ATOM      6  C   UNL     1       1.359   2.654   0.082  0.00  0.00    +0.000 C 
ENDROOT
BRANCH   2   7
ATOM      7  C   UNL     1       4.038   0.054   0.165  0.00  0.00    +0.003 C 
ATOM      8  C   UNL     1       4.463  -0.409   1.408  0.00  0.00    +0.000 C 
ATOM      9  C   UNL     1       4.866  -0.069  -0.950  0.00  0.00    +0.000 C 
ATOM     10  C   UNL     1       5.720  -0.999   1.538  0.00  0.00    +0.000 C 
ATOM     11  C   UNL     1       6.123  -0.659  -0.819  0.00  0.00    +0.000 C 
ATOM     12  C   UNL     1       6.551  -1.123   0.425  0.00  0.00    +0.000 C 
ENDBRANCH   2   7
BRANCH   3  13
ATOM     13  O   UNL     1       1.720  -1.452  -0.448  0.00  0.00    -0.505 OA
ATOM     14  H   UNL     1       0.961  -1.963  -0.651  0.00  0.00    +0.292 HD
ENDBRANCH   3  13
BRANCH   1  16
ATOM     15  O   UNL     1      -0.802  -1.296  -1.380  0.00  0.00    -0.245 OA
ATOM     16  C   UNL     1      -0.830  -0.273  -0.714  0.00  0.00    +0.344 C 
BRANCH  16  17
ATOM     17  O   UNL     1      -1.941   0.296  -0.168  0.00  0.00    -0.448 OA
BRANCH  17  18
ATOM     18  C   UNL     1      -3.169  -0.378  -0.407  0.00  0.00    +0.186 C 
BRANCH  18  19
ATOM     19  C   UNL     1      -4.290   0.394   0.272  0.00  0.00    -0.029 C 
BRANCH  19  20
ATOM     20  N   UNL     1      -5.579  -0.255   0.037  0.00  0.00    +0.389 N 
ATOM     21  H   UNL     1      -5.745  -0.292  -0.968  0.00  0.00    -0.080 HD
BRANCH  20  22
ATOM     22  C   UNL     1      -6.658   0.513   0.657  0.00  0.00    -0.077 C 
ATOM     23  C   UNL     1      -6.689   1.938   0.131  0.00  0.00    -0.025 C 
ENDBRANCH  20  22
BRANCH  20  24
ATOM     24  C   UNL     1      -5.564  -1.623   0.554  0.00  0.00    -0.077 C 
ATOM     25  C   UNL     1      -6.876  -2.334   0.266  0.00  0.00    -0.025 C 
ENDBRANCH  20  24
ENDBRANCH  19  20
ENDBRANCH  18  19
ENDBRANCH  17  18
ENDBRANCH  16  17
ENDBRANCH   1  16
TORSDOF 9
