22609888
  -OEChem-02221821283D

 46 50  0     0  0  0  0  0  0999 V2000
   -4.6259    0.0538   -1.7915 F   0  0  0  0  0  0  0  0  0  0  0  0
   -2.0300   -0.9586    2.0626 F   0  0  0  0  0  0  0  0  0  0  0  0
    1.8735   -0.0066   -0.4195 O   0  0  0  0  0  0  0  0  0  0  0  0
   -1.3872    1.1367   -0.0574 N   0  0  0  0  0  0  0  0  0  0  0  0
   -0.3989    0.2123   -0.1734 N   0  0  0  0  0  0  0  0  0  0  0  0
   -2.4398    3.0601    0.0748 N   0  0  0  0  0  0  0  0  0  0  0  0
   -3.3698    2.0437    0.1643 N   0  0  0  0  0  0  0  0  0  0  0  0
    3.6840   -2.4534    0.5428 N   0  0  0  0  0  0  0  0  0  0  0  0
    3.5336   -2.4598   -1.6374 N   0  0  0  0  0  0  0  0  0  0  0  0
    4.8158   -3.0628    0.1585 N   0  0  0  0  0  0  0  0  0  0  0  0
    2.4732    2.7243   -0.4534 C   0  0  0  0  0  0  0  0  0  0  0  0
    3.5573    1.9516    0.3265 C   0  0  0  0  0  0  0  0  0  0  0  0
    2.8168    3.9436    0.4277 C   0  0  0  0  0  0  0  0  0  0  0  0
    4.2147    3.3175    0.6147 C   0  0  0  0  0  0  0  0  0  0  0  0
    1.0965    2.2052   -0.3118 C   0  0  0  0  0  0  0  0  0  0  0  0
    0.7681    0.7578   -0.2928 C   0  0  0  0  0  0  0  0  0  0  0  0
    0.0508    3.0394   -0.1908 C   0  0  0  0  0  0  0  0  0  0  0  0
   -1.2522    2.5081   -0.0578 C   0  0  0  0  0  0  0  0  0  0  0  0
   -2.7234    0.9025    0.0840 C   0  0  0  0  0  0  0  0  0  0  0  0
    1.6090   -1.4004   -0.4067 C   0  0  0  0  0  0  0  0  0  0  0  0
   -3.3109   -0.4143    0.1341 C   0  0  0  0  0  0  0  0  0  0  0  0
    2.9276   -2.0980   -0.5304 C   0  0  0  0  0  0  0  0  0  0  0  0
   -4.2542   -0.7938   -0.8208 C   0  0  0  0  0  0  0  0  0  0  0  0
   -2.9358   -1.3079    1.1373 C   0  0  0  0  0  0  0  0  0  0  0  0
   -4.8221   -2.0669   -0.7727 C   0  0  0  0  0  0  0  0  0  0  0  0
   -3.5038   -2.5810    1.1854 C   0  0  0  0  0  0  0  0  0  0  0  0
    3.4031   -2.2512    1.9423 C   0  0  0  0  0  0  0  0  0  0  0  0
   -4.4469   -2.9605    0.2304 C   0  0  0  0  0  0  0  0  0  0  0  0
    4.6768   -3.0414   -1.1688 C   0  0  0  0  0  0  0  0  0  0  0  0
    2.7411    2.8743   -1.5085 H   0  0  0  0  0  0  0  0  0  0  0  0
    4.1768    1.2635   -0.2557 H   0  0  0  0  0  0  0  0  0  0  0  0
    3.2256    1.4506    1.2445 H   0  0  0  0  0  0  0  0  0  0  0  0
    2.2619    4.0256    1.3706 H   0  0  0  0  0  0  0  0  0  0  0  0
    2.8052    4.9146   -0.0753 H   0  0  0  0  0  0  0  0  0  0  0  0
    4.6605    3.4328    1.6056 H   0  0  0  0  0  0  0  0  0  0  0  0
    4.9422    3.6267   -0.1446 H   0  0  0  0  0  0  0  0  0  0  0  0
    0.1686    4.1174   -0.2030 H   0  0  0  0  0  0  0  0  0  0  0  0
    1.1017   -1.7023    0.5173 H   0  0  0  0  0  0  0  0  0  0  0  0
    0.9898   -1.6769   -1.2691 H   0  0  0  0  0  0  0  0  0  0  0  0
   -5.5563   -2.3621   -1.5163 H   0  0  0  0  0  0  0  0  0  0  0  0
   -3.2113   -3.2766    1.9663 H   0  0  0  0  0  0  0  0  0  0  0  0
    3.1021   -1.2121    2.0954 H   0  0  0  0  0  0  0  0  0  0  0  0
    4.3024   -2.4604    2.5276 H   0  0  0  0  0  0  0  0  0  0  0  0
    2.6008   -2.9336    2.2328 H   0  0  0  0  0  0  0  0  0  0  0  0
   -4.8889   -3.9518    0.2678 H   0  0  0  0  0  0  0  0  0  0  0  0
    5.4321   -3.4632   -1.8148 H   0  0  0  0  0  0  0  0  0  0  0  0
  1 23  1  0  0  0  0
  2 24  1  0  0  0  0
  3 16  1  0  0  0  0
  3 20  1  0  0  0  0
  4  5  1  0  0  0  0
  4 18  1  0  0  0  0
  4 19  1  0  0  0  0
  5 16  2  0  0  0  0
  6  7  1  0  0  0  0
  6 18  2  0  0  0  0
  7 19  2  0  0  0  0
  8 10  1  0  0  0  0
  8 22  1  0  0  0  0
  8 27  1  0  0  0  0
  9 22  2  0  0  0  0
  9 29  1  0  0  0  0
 10 29  2  0  0  0  0
 11 12  1  0  0  0  0
 11 13  1  0  0  0  0
 11 15  1  0  0  0  0
 11 30  1  0  0  0  0
 12 14  1  0  0  0  0
 12 31  1  0  0  0  0
 12 32  1  0  0  0  0
 13 14  1  0  0  0  0
 13 33  1  0  0  0  0
 13 34  1  0  0  0  0
 14 35  1  0  0  0  0
 14 36  1  0  0  0  0
 15 16  1  0  0  0  0
 15 17  2  0  0  0  0
 17 18  1  0  0  0  0
 17 37  1  0  0  0  0
 19 21  1  0  0  0  0
 20 22  1  0  0  0  0
 20 38  1  0  0  0  0
 20 39  1  0  0  0  0
 21 23  2  0  0  0  0
 21 24  1  0  0  0  0
 23 25  1  0  0  0  0
 24 26  2  0  0  0  0
 25 28  2  0  0  0  0
 25 40  1  0  0  0  0
 26 28  1  0  0  0  0
 26 41  1  0  0  0  0
 27 42  1  0  0  0  0
 27 43  1  0  0  0  0
 27 44  1  0  0  0  0
 28 45  1  0  0  0  0
 29 46  1  0  0  0  0
M  END
> <DATABASE_ID>
DB13993

> <DATABASE_NAME>
drugbank

> <ORIGINAL_SOURCE>
PUBCHEM

> <ORIGINAL_SOURCE_URL>
https://pubchem.ncbi.nlm.nih.gov/rest/pug/compound/inchikey/GOIFCXRIFSYPFG-UHFFFAOYSA-N/SDF?record_type=3d

> <SMILES>
CN1N=CN=C1COC1=NN2C(C=C1C1CCC1)=NN=C2C1=C(F)C=CC=C1F

> <INCHI_IDENTIFIER>
InChI=1S/C19H17F2N7O/c1-27-16(22-10-23-27)9-29-19-12(11-4-2-5-11)8-15-24-25-18(28(15)26-19)17-13(20)6-3-7-14(17)21/h3,6-8,10-11H,2,4-5,9H2,1H3

> <INCHI_KEY>
GOIFCXRIFSYPFG-UHFFFAOYSA-N

> <FORMULA>
C19H17F2N7O

> <MOLECULAR_WEIGHT>
397.39

> <EXACT_MASS>
397.146264521

> <JCHEM_ACCEPTOR_COUNT>
6

> <JCHEM_ATOM_COUNT>
46

> <JCHEM_AVERAGE_POLARIZABILITY>
38.75722705239335

> <JCHEM_BIOAVAILABILITY>
1

> <JCHEM_DONOR_COUNT>
0

> <JCHEM_FORMAL_CHARGE>
0

> <JCHEM_GHOSE_FILTER>
0

> <JCHEM_IUPAC>
5-({[7-cyclobutyl-3-(2,6-difluorophenyl)-[1,2,4]triazolo[4,3-b]pyridazin-6-yl]oxy}methyl)-1-methyl-1H-1,2,4-triazole

> <ALOGPS_LOGP>
2.68

> <JCHEM_LOGP>
3.204313245333333

> <ALOGPS_LOGS>
-4.20

> <JCHEM_MDDR_LIKE_RULE>
0

> <JCHEM_NUMBER_OF_RINGS>
5

> <JCHEM_PHYSIOLOGICAL_CHARGE>
0

> <JCHEM_PKA_STRONGEST_BASIC>
1.2014510834167322

> <JCHEM_POLAR_SURFACE_AREA>
83.02

> <JCHEM_REFRACTIVITY>
135.3076

> <JCHEM_ROTATABLE_BOND_COUNT>
4

> <JCHEM_RULE_OF_FIVE>
1

> <ALOGPS_SOLUBILITY>
2.49e-02 g/l

> <JCHEM_TRADITIONAL_IUPAC>
5-({[7-cyclobutyl-3-(2,6-difluorophenyl)-[1,2,4]triazolo[4,3-b]pyridazin-6-yl]oxy}methyl)-1-methyl-1,2,4-triazole

> <JCHEM_VEBER_RULE>
0

> <DRUGBANK_ID>
DB13993

> <DRUG_GROUPS>
experimental

> <GENERIC_NAME>
MRK-409

$$$$
