REMARK  Name = 72065
REMARK  5 active torsions:
REMARK  status: ('A' for Active; 'I' for Inactive)
REMARK    1  A    between atoms: C_1  and  O_7
REMARK    2  A    between atoms: C_1  and  C_9
REMARK    3  A    between atoms: C_9  and  C_11
REMARK    4  A    between atoms: C_9  and  C_14
REMARK    5  A    between atoms: C_11  and  O_12
REMARK                            x       y       z     vdW  Elec       q    Type
REMARK                         _______ _______ _______ _____ _____    ______ ____
ROOT
ATOM      1  C   UNL     1      -0.432   0.136  -0.093  0.00  0.00    +0.098 C 
ATOM      2  C   UNL     1      -1.276   1.351   0.320  0.00  0.00    +0.027 C 
ATOM      3  C   UNL     1      -1.065  -1.169   0.417  0.00  0.00    +0.027 C 
ATOM      4  C   UNL     1      -2.741   1.209  -0.095  0.00  0.00    +0.002 C 
ATOM      5  C   UNL     1      -2.530  -1.304   0.000  0.00  0.00    +0.002 C 
ATOM      6  C   UNL     1      -3.349  -0.090   0.425  0.00  0.00    +0.000 C 
ENDROOT
BRANCH   1   7
ATOM      7  O   UNL     1      -0.379   0.101  -1.522  0.00  0.00    -0.386 OA
ATOM      8  H   UNL     1      -1.277   0.009  -1.877  0.00  0.00    +0.210 HD
ENDBRANCH   1   7
BRANCH   1   9
ATOM      9  C   UNL     1       1.001   0.280   0.423  0.00  0.00    +0.123 C 
BRANCH   9  11
ATOM     10  O   UNL     1       1.993  -1.273  -1.172  0.00  0.00    -0.250 OA
ATOM     11  C   UNL     1       1.792  -0.943  -0.010  0.00  0.00    +0.316 C 
BRANCH  11  12
ATOM     12  O   UNL     1       2.283  -1.637   1.049  0.00  0.00    -0.480 OA
ATOM     13  H   UNL     1       2.105  -1.349   1.922  0.00  0.00    +0.295 HD
ENDBRANCH  11  12
ENDBRANCH   9  11
BRANCH   9  14
ATOM     14  C   UNL     1       1.629   1.582  -0.098  0.00  0.00    +0.013 C 
ATOM     15  C   UNL     1       3.072   1.757   0.356  0.00  0.00    +0.001 C 
ENDBRANCH   9  14
ENDBRANCH   1   9
TORSDOF 5
