REMARK  Name = 4474062
REMARK  1 active torsions:
REMARK  status: ('A' for Active; 'I' for Inactive)
REMARK    1  A    between atoms: C_6  and  S_14
REMARK                            x       y       z     vdW  Elec       q    Type
REMARK                         _______ _______ _______ _____ _____    ______ ____
ROOT
ATOM      1  F   UNL     1      -4.609   0.192   0.211  0.00  0.00    -0.204 F 
ATOM      2  O   UNL     1       1.188  -2.248  -0.338  0.00  0.00    -0.286 OA
ATOM      3  N   UNL     1       0.013   1.646  -0.020  0.00  0.00    -0.283 N 
ATOM      4  C   UNL     1      -0.982   0.641  -0.010  0.00  0.00    +0.057 C 
ATOM      5  C   UNL     1      -0.603  -0.718  -0.113  0.00  0.00    +0.053 C 
ATOM      6  C   UNL     1       1.815   0.035  -0.221  0.00  0.00    +0.110 C 
ATOM      7  C   UNL     1       0.835  -1.080  -0.233  0.00  0.00    +0.206 C 
ATOM      8  C   UNL     1       1.344   1.283  -0.124  0.00  0.00    +0.077 C 
ATOM      9  C   UNL     1      -2.356   0.917   0.100  0.00  0.00    +0.045 C 
ATOM     10  C   UNL     1      -1.556  -1.745  -0.108  0.00  0.00    +0.007 C 
ATOM     11  C   UNL     1      -0.398   3.044   0.085  0.00  0.00    +0.117 C 
ATOM     12  C   UNL     1      -3.308  -0.108   0.105  0.00  0.00    +0.141 C 
ATOM     13  C   UNL     1      -2.908  -1.436   0.001  0.00  0.00    +0.030 C 
ENDROOT
BRANCH   6  14
ATOM     14  S   UNL     1       3.558  -0.250  -0.358  0.00  0.00    +0.070 S 
ATOM     15  O   UNL     1       4.221   1.077  -0.113  0.00  0.00    -0.251 OA
ATOM     16  C   UNL     1       3.746  -1.250   1.137  0.00  0.00    +0.111 C 
ENDBRANCH   6  14
TORSDOF 1
