REMARK  Name = 31508
REMARK  2 active torsions:
REMARK  status: ('A' for Active; 'I' for Inactive)
REMARK    1  A    between atoms: N_2  and  C_19
REMARK    2  A    between atoms: C_6  and  C_13
REMARK                            x       y       z     vdW  Elec       q    Type
REMARK                         _______ _______ _______ _____ _____    ______ ____
ROOT
ATOM      1  O   UNL     1      -1.381   3.145  -0.069  0.00  0.00    -0.193 OA
ATOM      2  N   UNL     1      -1.890   0.899   0.007  0.00  0.00    -0.208 N 
ATOM      3  N   UNL     1       0.368   1.718  -0.046  0.00  0.00    -0.321 NA
ATOM      4  C   UNL     1      -1.421  -0.446   0.012  0.00  0.00    +0.065 C 
ATOM      5  C   UNL     1      -0.044  -0.680  -0.016  0.00  0.00    +0.045 C 
ATOM      6  C   UNL     1       0.832   0.509  -0.024  0.00  0.00    +0.147 C 
ATOM      7  C   UNL     1      -2.291  -1.548   0.029  0.00  0.00    +0.011 C 
ATOM      8  C   UNL     1      -0.986   1.977  -0.040  0.00  0.00    +0.272 C 
ATOM      9  C   UNL     1       0.458  -1.987  -0.053  0.00  0.00    +0.004 C 
ATOM     10  C   UNL     1      -1.790  -2.851   0.007  0.00  0.00    -0.021 C 
ATOM     11  C   UNL     1      -0.418  -3.070  -0.039  0.00  0.00    -0.004 C 
ATOM     12  C   UNL     1      -2.729  -4.011   0.025  0.00  0.00    +0.031 C 
ENDROOT
BRANCH   6  13
ATOM     13  C   UNL     1       2.300   0.363  -0.003  0.00  0.00    +0.031 C 
ATOM     14  C   UNL     1       3.002   0.275  -1.201  0.00  0.00    +0.003 C 
ATOM     15  C   UNL     1       2.969   0.316   1.215  0.00  0.00    +0.003 C 
ATOM     16  C   UNL     1       4.390   0.138  -1.180  0.00  0.00    +0.000 C 
ATOM     17  C   UNL     1       4.357   0.179   1.236  0.00  0.00    +0.000 C 
ATOM     18  C   UNL     1       5.068   0.091   0.038  0.00  0.00    +0.000 C 
ENDBRANCH   6  13
BRANCH   2  19
ATOM     19  C   UNL     1      -3.328   1.156   0.034  0.00  0.00    +0.090 C 
ATOM     20  C   UNL     1      -3.756   1.902  -1.223  0.00  0.00    +0.023 C 
ATOM     21  C   UNL     1      -3.709   1.927   1.291  0.00  0.00    +0.023 C 
ENDBRANCH   2  19
TORSDOF 2
