REMARK  Name = 3033975
REMARK  5 active torsions:
REMARK  status: ('A' for Active; 'I' for Inactive)
REMARK    1  A    between atoms: C_1  and  C_2
REMARK    2  A    between atoms: C_1  and  N_9
REMARK    3  A    between atoms: C_1  and  C_18
REMARK    4  A    between atoms: C_10  and  C_13
REMARK    5  A    between atoms: C_18  and  C_19
REMARK                            x       y       z     vdW  Elec       q    Type
REMARK                         _______ _______ _______ _____ _____    ______ ____
ROOT
ATOM      1  C   UNL     1      -1.157   0.335  -0.061  0.00  0.00    +0.099 C 
ENDROOT
BRANCH   1   2
ATOM      2  C   UNL     1      -1.652   1.769   0.010  0.00  0.00    -0.004 C 
ATOM      3  C   UNL     1      -2.654   2.175  -0.850  0.00  0.00    -0.003 C 
ATOM      4  C   UNL     1      -1.087   2.627   0.933  0.00  0.00    -0.003 C 
ATOM      5  C   UNL     1      -3.109   3.492  -0.785  0.00  0.00    -0.000 C 
ATOM      6  C   UNL     1      -1.543   3.944   0.998  0.00  0.00    -0.000 C 
ATOM      7  C   UNL     1      -2.553   4.377   0.140  0.00  0.00    -0.000 C 
ENDBRANCH   1   2
BRANCH   1   9
ATOM      8  O   UNL     1       0.982   0.628  -1.954  0.00  0.00    -0.270 OA
ATOM      9  N   UNL     1       0.282   0.265   0.224  0.00  0.00    -0.298 N 
ATOM     10  C   UNL     1       1.220   0.421  -0.767  0.00  0.00    +0.248 C 
ATOM     11  H   UNL     1       0.582   0.101   1.147  0.00  0.00    +0.150 HD
BRANCH  10  13
ATOM     12  N   UNL     1       4.893  -0.252  -0.865  0.00  0.00    -0.242 NA
ATOM     13  C   UNL     1       2.632   0.296  -0.321  0.00  0.00    +0.072 C 
ATOM     14  C   UNL     1       2.967   0.595   0.977  0.00  0.00    +0.008 C 
ATOM     15  C   UNL     1       3.591  -0.116  -1.206  0.00  0.00    +0.103 C 
ATOM     16  C   UNL     1       4.297   0.467   1.365  0.00  0.00    +0.021 C 
ATOM     17  C   UNL     1       5.212   0.044   0.415  0.00  0.00    +0.099 C 
ENDBRANCH  10  13
ENDBRANCH   1   9
BRANCH   1  18
ATOM     18  C   UNL     1      -1.946  -0.623   0.874  0.00  0.00    +0.050 C 
BRANCH  18  19
ATOM     19  C   UNL     1      -1.834  -2.062   0.498  0.00  0.00    -0.020 C 
ATOM     20  C   UNL     1      -2.754  -2.625  -0.387  0.00  0.00    -0.004 C 
ATOM     21  C   UNL     1      -0.809  -2.844   1.030  0.00  0.00    -0.004 C 
ATOM     22  C   UNL     1      -2.649  -3.971  -0.738  0.00  0.00    -0.000 C 
ATOM     23  C   UNL     1      -0.705  -4.190   0.678  0.00  0.00    -0.000 C 
ATOM     24  C   UNL     1      -1.625  -4.753  -0.206  0.00  0.00    -0.000 C 
ENDBRANCH  18  19
ENDBRANCH   1  18
TORSDOF 5
