REMARK  Name = 24851355
REMARK  13 active torsions:
REMARK  status: ('A' for Active; 'I' for Inactive)
REMARK    1  A    between atoms: S_1  and  S_2
REMARK    2  A    between atoms: S_1  and  C_15
REMARK    3  A    between atoms: S_2  and  C_3
REMARK    4  A    between atoms: C_3  and  C_4
REMARK    5  A    between atoms: C_4  and  N_5
REMARK    6  A    between atoms: C_4  and  C_9
REMARK    7  A    between atoms: C_9  and  C_10
REMARK    8  A    between atoms: C_10  and  S_11
REMARK    9  A    between atoms: C_15  and  C_16
REMARK   10  A    between atoms: C_16  and  N_17
REMARK   11  A    between atoms: C_16  and  C_21
REMARK   12  A    between atoms: C_21  and  C_22
REMARK   13  A    between atoms: C_22  and  S_23
REMARK                            x       y       z     vdW  Elec       q    Type
REMARK                         _______ _______ _______ _____ _____    ______ ____
ROOT
ATOM      1  S   UNL     1      -0.816  -0.383   0.618  0.00  0.00    -0.084 S 
ENDROOT
BRANCH   1   2
ATOM      2  S   UNL     1       0.814  -0.384  -0.633  0.00  0.00    -0.084 S 
BRANCH   2   3
ATOM      3  C   UNL     1       1.870  -1.641   0.152  0.00  0.00    +0.047 C 
BRANCH   3   4
ATOM      4  C   UNL     1       2.651  -1.109   1.366  0.00  0.00    -0.052 C 
BRANCH   4   5
ATOM      5  N   UNL     1       3.477  -2.203   1.896  0.00  0.00    +0.382 N 
ATOM      6  H   UNL     1       4.004  -1.870   2.704  0.00  0.00    -0.089 HD
ATOM      7  H   UNL     1       4.124  -2.521   1.175  0.00  0.00    -0.089 HD
ATOM      8  H   UNL     1       2.875  -2.977   2.179  0.00  0.00    -0.089 HD
ENDBRANCH   4   5
BRANCH   4   9
ATOM      9  C   UNL     1       3.552   0.094   1.025  0.00  0.00    +0.005 C 
BRANCH   9  10
ATOM     10  C   UNL     1       4.560  -0.208  -0.080  0.00  0.00    +0.156 C 
BRANCH  10  11
ATOM     11  S   UNL     1       5.544   1.210  -0.453  0.00  0.00    +0.022 S 
ATOM     12  O   UNL     1       6.587   0.481  -1.473  0.00  0.00    -0.069 OA
ATOM     13  O   UNL     1       6.263   1.611   0.743  0.00  0.00    -0.069 OA
ATOM     14  O   UNL     1       4.737   2.153  -1.206  0.00  0.00    -0.069 OA
ENDBRANCH  10  11
ENDBRANCH   9  10
ENDBRANCH   4   9
ENDBRANCH   3   4
ENDBRANCH   2   3
ENDBRANCH   1   2
BRANCH   1  15
ATOM     15  C   UNL     1      -1.869  -1.640  -0.147  0.00  0.00    +0.047 C 
BRANCH  15  16
ATOM     16  C   UNL     1      -2.656  -1.119  -1.362  0.00  0.00    -0.052 C 
BRANCH  16  17
ATOM     17  N   UNL     1      -3.482  -2.218  -1.878  0.00  0.00    +0.382 N 
ATOM     18  H   UNL     1      -4.013  -1.893  -2.686  0.00  0.00    -0.089 HD
ATOM     19  H   UNL     1      -4.126  -2.530  -1.151  0.00  0.00    -0.089 HD
ATOM     20  H   UNL     1      -2.882  -2.994  -2.156  0.00  0.00    -0.089 HD
ENDBRANCH  16  17
BRANCH  16  21
ATOM     21  C   UNL     1      -3.555   0.086  -1.027  0.00  0.00    +0.005 C 
BRANCH  21  22
ATOM     22  C   UNL     1      -4.559  -0.206   0.085  0.00  0.00    +0.156 C 
BRANCH  22  23
ATOM     23  S   UNL     1      -5.542   1.215   0.449  0.00  0.00    +0.022 S 
ATOM     24  O   UNL     1      -6.580   0.494   1.480  0.00  0.00    -0.069 OA
ATOM     25  O   UNL     1      -6.266   1.604  -0.747  0.00  0.00    -0.069 OA
ATOM     26  O   UNL     1      -4.732   2.164   1.190  0.00  0.00    -0.069 OA
ENDBRANCH  22  23
ENDBRANCH  21  22
ENDBRANCH  16  21
ENDBRANCH  15  16
ENDBRANCH   1  15
TORSDOF 13
