REMARK  Name = 220401
REMARK  5 active torsions:
REMARK  status: ('A' for Active; 'I' for Inactive)
REMARK    1  A    between atoms: C_2  and  N_18
REMARK    2  A    between atoms: C_9  and  O_22
REMARK    3  A    between atoms: C_13  and  O_24
REMARK    4  A    between atoms: C_14  and  O_26
REMARK    5  A    between atoms: C_17  and  O_28
REMARK                            x       y       z     vdW  Elec       q    Type
REMARK                         _______ _______ _______ _____ _____    ______ ____
ROOT
ATOM      1  O   UNL     1      -4.490  -0.598   1.562  0.00  0.00    -0.283 OA
ATOM      2  C   UNL     1      -0.843   2.336   0.686  0.00  0.00    -0.038 C 
ATOM      3  C   UNL     1      -0.215   3.095  -0.509  0.00  0.00    -0.012 C 
ATOM      4  C   UNL     1       0.548   2.297  -1.575  0.00  0.00    +0.025 C 
ATOM      5  C   UNL     1      -1.538   1.008   0.345  0.00  0.00    -0.039 C 
ATOM      6  C   UNL     1       1.363   1.156  -1.028  0.00  0.00    -0.016 C 
ATOM      7  C   UNL     1       0.718   0.040  -0.455  0.00  0.00    +0.033 C 
ATOM      8  C   UNL     1      -0.771  -0.004  -0.399  0.00  0.00    -0.003 C 
ATOM      9  C   UNL     1       1.487  -1.003   0.084  0.00  0.00    +0.175 C 
ATOM     10  C   UNL     1       2.762   1.201  -1.064  0.00  0.00    +0.036 C 
ATOM     11  C   UNL     1      -2.787   0.832   0.815  0.00  0.00    +0.039 C 
ATOM     12  C   UNL     1      -1.313  -0.974  -1.161  0.00  0.00    +0.003 C 
ATOM     13  C   UNL     1       2.880  -0.945   0.040  0.00  0.00    +0.206 C 
ATOM     14  C   UNL     1       3.516   0.153  -0.534  0.00  0.00    +0.175 C 
ATOM     15  C   UNL     1      -3.698  -0.326   0.662  0.00  0.00    +0.229 C 
ATOM     16  C   UNL     1      -2.699  -1.264  -1.419  0.00  0.00    +0.040 C 
ATOM     17  C   UNL     1      -3.758  -1.044  -0.632  0.00  0.00    +0.177 C 
ENDROOT
BRANCH   2  18
ATOM     18  N   UNL     1       0.117   2.209   1.794  0.00  0.00    +0.386 N 
ATOM     19  C   UNL     1      -0.555   1.743   2.992  0.00  0.00    -0.105 C 
ATOM     20  H   UNL     1       0.541   3.118   1.978  0.00  0.00    -0.084 HD
ATOM     21  H   UNL     1       0.837   1.534   1.534  0.00  0.00    -0.084 HD
ENDBRANCH   2  18
BRANCH   9  22
ATOM     22  O   UNL     1       0.889  -2.099   0.639  0.00  0.00    -0.468 OA
ATOM     23  C   UNL     1       0.598  -2.037   2.033  0.00  0.00    +0.253 C 
ENDBRANCH   9  22
BRANCH  13  24
ATOM     24  O   UNL     1       3.623  -1.967   0.554  0.00  0.00    -0.465 OA
ATOM     25  C   UNL     1       4.521  -1.644   1.612  0.00  0.00    +0.253 C 
ENDBRANCH  13  24
BRANCH  14  26
ATOM     26  O   UNL     1       4.876   0.214  -0.592  0.00  0.00    -0.468 OA
ATOM     27  C   UNL     1       5.500  -0.335  -1.751  0.00  0.00    +0.253 C 
ENDBRANCH  14  26
BRANCH  17  28
ATOM     28  O   UNL     1      -5.015  -1.510  -0.978  0.00  0.00    -0.468 OA
ATOM     29  C   UNL     1      -5.717  -0.537  -1.723  0.00  0.00    +0.253 C 
ENDBRANCH  17  28
TORSDOF 5
