REMARK  Name = 10250769
REMARK  8 active torsions:
REMARK  status: ('A' for Active; 'I' for Inactive)
REMARK    1  A    between atoms: C_6  and  C_23
REMARK    2  A    between atoms: C_7  and  N_12
REMARK    3  A    between atoms: C_13  and  C_15
REMARK    4  A    between atoms: C_15  and  C_16
REMARK    5  A    between atoms: C_23  and  O_24
REMARK    6  A    between atoms: O_24  and  C_25
REMARK    7  A    between atoms: C_25  and  O_26
REMARK    8  A    between atoms: O_26  and  C_28
REMARK                            x       y       z     vdW  Elec       q    Type
REMARK                         _______ _______ _______ _____ _____    ______ ____
ROOT
ATOM      1  S   UNL     1       0.574   0.486   0.823  0.00  0.00    -0.118 S 
ATOM      2  O   UNL     1      -0.617  -3.102  -1.439  0.00  0.00    -0.273 OA
ATOM      3  N   UNL     1      -0.973  -1.523   0.279  0.00  0.00    -0.260 N 
ATOM      4  C   UNL     1       0.143  -1.254   1.190  0.00  0.00    +0.151 C 
ATOM      5  C   UNL     1      -1.198   0.877   0.402  0.00  0.00    +0.068 C 
ATOM      6  C   UNL     1      -1.699  -0.407  -0.293  0.00  0.00    +0.185 C 
ATOM      7  C   UNL     1       0.932  -2.335   0.440  0.00  0.00    +0.178 C 
ATOM      8  C   UNL     1      -0.327  -2.490  -0.435  0.00  0.00    +0.247 C 
ATOM      9  C   UNL     1      -1.230   2.075  -0.549  0.00  0.00    +0.013 C 
ATOM     10  C   UNL     1      -1.928   1.222   1.707  0.00  0.00    +0.013 C 
ENDROOT
BRANCH   7  12
ATOM     11  O   UNL     1       3.484  -1.577   1.561  0.00  0.00    -0.275 OA
ATOM     12  N   UNL     1       2.130  -1.928  -0.291  0.00  0.00    -0.296 N 
ATOM     13  C   UNL     1       3.324  -1.578   0.343  0.00  0.00    +0.227 C 
ATOM     14  H   UNL     1       2.094  -1.899  -1.274  0.00  0.00    +0.150 HD
BRANCH  13  15
ATOM     15  C   UNL     1       4.406  -1.195  -0.648  0.00  0.00    +0.111 C 
BRANCH  15  16
ATOM     16  C   UNL     1       4.907   0.214  -0.468  0.00  0.00    -0.013 C 
ATOM     17  C   UNL     1       4.295   1.265  -1.151  0.00  0.00    -0.004 C 
ATOM     18  C   UNL     1       5.983   0.468   0.383  0.00  0.00    -0.004 C 
ATOM     19  C   UNL     1       4.760   2.570  -0.985  0.00  0.00    -0.000 C 
ATOM     20  C   UNL     1       6.447   1.773   0.549  0.00  0.00    -0.000 C 
ATOM     21  C   UNL     1       5.835   2.824  -0.134  0.00  0.00    -0.000 C 
ENDBRANCH  15  16
ENDBRANCH  13  15
ENDBRANCH   7  12
BRANCH   6  23
ATOM     22  O   UNL     1      -3.632  -1.293   0.829  0.00  0.00    -0.248 OA
ATOM     23  C   UNL     1      -3.156  -0.697  -0.128  0.00  0.00    +0.339 C 
BRANCH  23  24
ATOM     24  O   UNL     1      -3.843  -0.201  -1.196  0.00  0.00    -0.407 OA
BRANCH  24  25
ATOM     25  C   UNL     1      -5.266  -0.404  -1.186  0.00  0.00    +0.433 C 
BRANCH  25  26
ATOM     26  O   UNL     1      -5.927   0.234  -0.082  0.00  0.00    -0.408 OA
BRANCH  26  28
ATOM     27  O   UNL     1      -5.131   2.299  -0.743  0.00  0.00    -0.250 OA
ATOM     28  C   UNL     1      -5.773   1.585   0.015  0.00  0.00    +0.320 C 
ATOM     29  C   UNL     1      -6.523   2.090   1.209  0.00  0.00    +0.121 C 
ENDBRANCH  26  28
ENDBRANCH  25  26
ENDBRANCH  24  25
ENDBRANCH  23  24
ENDBRANCH   6  23
TORSDOF 8
