REMARK  Name = 3007908
REMARK  4 active torsions:
REMARK  status: ('A' for Active; 'I' for Inactive)
REMARK    1  A    between atoms: C_3  and  O_16
REMARK    2  A    between atoms: C_5  and  N_9
REMARK    3  A    between atoms: C_6  and  C_18
REMARK    4  A    between atoms: C_18  and  O_19
REMARK                            x       y       z     vdW  Elec       q    Type
REMARK                         _______ _______ _______ _____ _____    ______ ____
ROOT
ATOM      1  F   UNL     1       0.903   0.315   1.834  0.00  0.00    -0.230 F 
ATOM      2  O   UNL     1       1.381  -0.323  -1.063  0.00  0.00    -0.332 OA
ATOM      3  C   UNL     1       2.766   0.794   0.519  0.00  0.00    +0.177 C 
ATOM      4  C   UNL     1       1.324   1.119   0.820  0.00  0.00    +0.237 C 
ATOM      5  C   UNL     1       0.617   0.734  -0.466  0.00  0.00    +0.235 C 
ATOM      6  C   UNL     1       2.667  -0.405  -0.418  0.00  0.00    +0.176 C 
ENDROOT
BRANCH   5   9
ATOM      7  O   UNL     1      -1.645   2.417  -0.648  0.00  0.00    -0.252 OA
ATOM      8  O   UNL     1      -4.527  -1.048   0.315  0.00  0.00    -0.270 OA
ATOM      9  N   UNL     1      -0.733   0.299  -0.269  0.00  0.00    -0.216 N 
ATOM     10  N   UNL     1      -3.079   0.690  -0.168  0.00  0.00    -0.236 N 
ATOM     11  C   UNL     1      -1.800   1.223  -0.382  0.00  0.00    +0.315 C 
ATOM     12  C   UNL     1      -0.999  -1.033   0.034  0.00  0.00    +0.076 C 
ATOM     13  C   UNL     1      -2.223  -1.527   0.235  0.00  0.00    +0.074 C 
ATOM     14  C   UNL     1      -3.389  -0.626   0.136  0.00  0.00    +0.254 C 
ATOM     15  H   UNL     1      -3.835   1.316  -0.241  0.00  0.00    +0.159 HD
ENDBRANCH   5   9
BRANCH   3  16
ATOM     16  O   UNL     1       3.378   1.893  -0.148  0.00  0.00    -0.379 OA
ATOM     17  H   UNL     1       3.435   2.649   0.458  0.00  0.00    +0.211 HD
ENDBRANCH   3  16
BRANCH   6  18
ATOM     18  C   UNL     1       2.735  -1.740   0.311  0.00  0.00    +0.169 C 
BRANCH  18  19
ATOM     19  O   UNL     1       2.624  -2.783  -0.641  0.00  0.00    -0.379 OA
ATOM     20  H   UNL     1       2.666  -3.640  -0.188  0.00  0.00    +0.211 HD
ENDBRANCH  18  19
ENDBRANCH   6  18
TORSDOF 4
