REMARK  Name = 68671
REMARK  10 active torsions:
REMARK  status: ('A' for Active; 'I' for Inactive)
REMARK    1  A    between atoms: O_1  and  C_3
REMARK    2  A    between atoms: O_1  and  C_15
REMARK    3  A    between atoms: C_3  and  C_4
REMARK    4  A    between atoms: C_4  and  O_7
REMARK    5  A    between atoms: O_7  and  C_9
REMARK    6  A    between atoms: C_15  and  C_16
REMARK    7  A    between atoms: C_16  and  C_17
REMARK    8  A    between atoms: C_17  and  O_18
REMARK    9  A    between atoms: O_18  and  C_20
REMARK   10  A    between atoms: C_20  and  C_22
REMARK                            x       y       z     vdW  Elec       q    Type
REMARK                         _______ _______ _______ _____ _____    ______ ____
ROOT
ATOM      1  O   UNL     1      -1.965   1.984  -0.333  0.00  0.00    -0.446 OA
ENDROOT
BRANCH   1   3
ATOM      2  O   UNL     1      -2.708   0.697  -2.093  0.00  0.00    -0.246 OA
ATOM      3  C   UNL     1      -2.729   1.009  -0.908  0.00  0.00    +0.353 C 
BRANCH   3   4
ATOM      4  C   UNL     1      -3.659   0.376   0.124  0.00  0.00    +0.221 C 
ATOM      5  C   UNL     1      -4.503   1.472   0.767  0.00  0.00    +0.055 C 
ATOM      6  C   UNL     1      -4.545  -0.685  -0.526  0.00  0.00    +0.055 C 
BRANCH   4   7
ATOM      7  O   UNL     1      -2.895  -0.248   1.147  0.00  0.00    -0.472 OA
BRANCH   7   9
ATOM      8 CL   UNL     1       0.752  -4.552  -0.514  0.00  0.00    -0.082 Cl
ATOM      9  C   UNL     1      -2.045  -1.251   0.758  0.00  0.00    +0.139 C 
ATOM     10  C   UNL     1      -0.732  -0.952   0.397  0.00  0.00    +0.038 C 
ATOM     11  C   UNL     1      -2.494  -2.572   0.728  0.00  0.00    +0.038 C 
ATOM     12  C   UNL     1       0.133  -1.973   0.004  0.00  0.00    +0.015 C 
ATOM     13  C   UNL     1      -1.629  -3.593   0.335  0.00  0.00    +0.015 C 
ATOM     14  C   UNL     1      -0.315  -3.293  -0.027  0.00  0.00    +0.058 C 
ENDBRANCH   7   9
ENDBRANCH   4   7
ENDBRANCH   3   4
ENDBRANCH   1   3
BRANCH   1  15
ATOM     15  C   UNL     1      -1.078   2.677  -1.217  0.00  0.00    +0.212 C 
BRANCH  15  16
ATOM     16  C   UNL     1      -0.296   3.727  -0.444  0.00  0.00    +0.095 C 
BRANCH  16  17
ATOM     17  C   UNL     1       0.521   3.114   0.681  0.00  0.00    +0.213 C 
BRANCH  17  18
ATOM     18  O   UNL     1       1.451   2.194   0.126  0.00  0.00    -0.445 OA
BRANCH  18  20
ATOM     19  O   UNL     1       2.261   1.706   2.225  0.00  0.00    -0.245 OA
ATOM     20  C   UNL     1       2.264   1.556   1.013  0.00  0.00    +0.343 C 
BRANCH  20  22
ATOM     21  N   UNL     1       3.959  -0.332  -1.770  0.00  0.00    -0.242 NA
ATOM     22  C   UNL     1       3.185   0.628   0.309  0.00  0.00    +0.095 C 
ATOM     23  C   UNL     1       4.111  -0.134   1.014  0.00  0.00    +0.010 C 
ATOM     24  C   UNL     1       3.149   0.494  -1.069  0.00  0.00    +0.105 C 
ATOM     25  C   UNL     1       4.961  -0.994   0.328  0.00  0.00    +0.021 C 
ATOM     26  C   UNL     1       4.846  -1.056  -1.052  0.00  0.00    +0.099 C 
ENDBRANCH  20  22
ENDBRANCH  18  20
ENDBRANCH  17  18
ENDBRANCH  16  17
ENDBRANCH  15  16
ENDBRANCH   1  15
TORSDOF 10
