REMARK  Name = 44608289
REMARK  2 active torsions:
REMARK  status: ('A' for Active; 'I' for Inactive)
REMARK    1  A    between atoms: C_3  and  C_9
REMARK    2  A    between atoms: C_4  and  C_17
REMARK                            x       y       z     vdW  Elec       q    Type
REMARK                         _______ _______ _______ _____ _____    ______ ____
ROOT
ATOM      1  N   UNL     1       0.061   1.572   0.661  0.00  0.00    -0.236 N 
ATOM      2  N   UNL     1      -1.269   1.763   0.653  0.00  0.00    -0.181 NA
ATOM      3  C   UNL     1       0.445   0.349   0.194  0.00  0.00    +0.067 C 
ATOM      4  C   UNL     1      -1.738   0.613   0.161  0.00  0.00    +0.100 C 
ATOM      5  C   UNL     1      -0.715  -0.305  -0.142  0.00  0.00    +0.037 C 
ATOM      6  H   UNL     1       0.700   2.252   0.975  0.00  0.00    +0.174 HD
ENDROOT
BRANCH   3   9
ATOM      7  O   UNL     1       5.227   1.230  -0.354  0.00  0.00    -0.435 OA
ATOM      8  O   UNL     1       5.790  -1.102  -0.124  0.00  0.00    -0.435 OA
ATOM      9  C   UNL     1       1.826  -0.063   0.117  0.00  0.00    +0.018 C 
ATOM     10  C   UNL     1       4.129   0.450  -0.158  0.00  0.00    +0.176 C 
ATOM     11  C   UNL     1       2.824   0.892  -0.090  0.00  0.00    +0.041 C 
ATOM     12  C   UNL     1       4.451  -0.881  -0.026  0.00  0.00    +0.176 C 
ATOM     13  C   UNL     1       2.154  -1.424   0.251  0.00  0.00    +0.005 C 
ATOM     14  C   UNL     1       3.484  -1.845   0.179  0.00  0.00    +0.040 C 
ATOM     15  C   UNL     1       6.276   0.240  -0.332  0.00  0.00    +0.429 C 
ENDBRANCH   3   9
BRANCH   4  17
ATOM     16 BR   UNL     1      -5.798  -2.800   0.066  0.00  0.00    -0.049 Br
ATOM     17  C   UNL     1      -3.153   0.412  -0.010  0.00  0.00    +0.020 C 
ATOM     18  C   UNL     1      -3.693  -0.870   0.093  0.00  0.00    +0.008 C 
ATOM     19  C   UNL     1      -3.984   1.500  -0.279  0.00  0.00    +0.002 C 
ATOM     20  C   UNL     1      -5.065  -1.064  -0.073  0.00  0.00    +0.035 C 
ATOM     21  C   UNL     1      -5.355   1.306  -0.445  0.00  0.00    +0.001 C 
ATOM     22  C   UNL     1      -5.896   0.024  -0.342  0.00  0.00    +0.007 C 
ENDBRANCH   4  17
TORSDOF 2
