REMARK  Name = 18735
REMARK  3 active torsions:
REMARK  status: ('A' for Active; 'I' for Inactive)
REMARK    1  A    between atoms: C_6  and  C_12
REMARK    2  A    between atoms: C_6  and  C_15
REMARK    3  A    between atoms: C_15  and  C_17
REMARK                            x       y       z     vdW  Elec       q    Type
REMARK                         _______ _______ _______ _____ _____    ______ ____
ROOT
ATOM      1  O   UNL     1       0.208  -1.051   1.971  0.00  0.00    -0.274 OA
ATOM      2  O   UNL     1      -1.105   0.735  -2.093  0.00  0.00    -0.274 OA
ATOM      3  O   UNL     1       3.278  -0.421  -1.458  0.00  0.00    -0.252 OA
ATOM      4  N   UNL     1       1.836  -0.599   0.370  0.00  0.00    -0.212 N 
ATOM      5  N   UNL     1       1.099   0.212  -1.725  0.00  0.00    -0.239 N 
ATOM      6  C   UNL     1      -0.371   0.487   0.203  0.00  0.00    +0.143 C 
ATOM      7  C   UNL     1       0.557  -0.480   0.937  0.00  0.00    +0.240 C 
ATOM      8  C   UNL     1      -0.196   0.471  -1.307  0.00  0.00    +0.237 C 
ATOM      9  C   UNL     1       2.160  -0.266  -0.960  0.00  0.00    +0.316 C 
ATOM     10  C   UNL     1       2.868  -1.261   1.159  0.00  0.00    +0.124 C 
ATOM     11  H   UNL     1       1.291   0.385  -2.675  0.00  0.00    +0.159 HD
ENDROOT
BRANCH   6  12
ATOM     12  C   UNL     1      -0.034   1.907   0.692  0.00  0.00    +0.017 C 
ATOM     13  C   UNL     1      -0.946   2.926   0.019  0.00  0.00    +0.001 C 
ATOM     14  C   UNL     1      -0.155   1.985   2.209  0.00  0.00    +0.001 C 
ENDBRANCH   6  12
BRANCH   6  15
ATOM     15  C   UNL     1      -1.834   0.170   0.551  0.00  0.00    +0.051 C 
BRANCH  15  17
ATOM     16 BR   UNL     1      -3.067  -1.317  -1.560  0.00  0.00    -0.054 Br
ATOM     17  C   UNL     1      -2.233  -1.206   0.113  0.00  0.00    +0.013 C 
ATOM     18  C   UNL     1      -2.065  -2.291   0.880  0.00  0.00    +0.003 C 
ENDBRANCH  15  17
ENDBRANCH   6  15
TORSDOF 3
