REMARK  Name = 12604
REMARK  10 active torsions:
REMARK  status: ('A' for Active; 'I' for Inactive)
REMARK    1  A    between atoms: C_3  and  C_20
REMARK    2  A    between atoms: C_11  and  O_13
REMARK    3  A    between atoms: O_13  and  C_14
REMARK    4  A    between atoms: C_14  and  C_16
REMARK    5  A    between atoms: C_16  and  O_17
REMARK    6  A    between atoms: O_17  and  C_18
REMARK    7  A    between atoms: C_20  and  C_21
REMARK    8  A    between atoms: C_21  and  N_22
REMARK    9  A    between atoms: N_22  and  C_24
REMARK   10  A    between atoms: N_22  and  C_26
REMARK                            x       y       z     vdW  Elec       q    Type
REMARK                         _______ _______ _______ _____ _____    ______ ____
ROOT
ATOM      1  O   UNL     1      -0.164  -1.431   0.126  0.00  0.00    -0.421 OA
ATOM      2  O   UNL     1      -2.060  -2.636  -0.197  0.00  0.00    -0.245 OA
ATOM      3  C   UNL     1      -2.233  -0.285  -0.543  0.00  0.00    +0.048 A 
ATOM      4  C   UNL     1      -1.617   0.915  -0.505  0.00  0.00    -0.017 A 
ATOM      5  C   UNL     1      -0.179   0.983  -0.171  0.00  0.00    +0.031 A 
ATOM      6  C   UNL     1       0.497  -0.194   0.135  0.00  0.00    +0.151 A 
ATOM      7  C   UNL     1      -1.505  -1.542  -0.201  0.00  0.00    +0.341 A 
ATOM      8  C   UNL     1      -2.318   2.224  -0.772  0.00  0.00    +0.031 C 
ATOM      9  C   UNL     1       0.566   2.173  -0.150  0.00  0.00    +0.006 C 
ATOM     10  C   UNL     1       1.856  -0.218   0.461  0.00  0.00    +0.074 C 
ATOM     11  C   UNL     1       2.572   0.973   0.481  0.00  0.00    +0.142 C 
ATOM     12  C   UNL     1       1.928   2.168   0.174  0.00  0.00    +0.037 C 
ENDROOT
BRANCH  11  13
ATOM     13  O   UNL     1       3.895   0.971   0.796  0.00  0.00    -0.464 OA
BRANCH  13  14
ATOM     14  C   UNL     1       4.641  -0.201   0.466  0.00  0.00    +0.314 C 
BRANCH  14  16
ATOM     15  O   UNL     1       6.503   1.334   0.238  0.00  0.00    -0.246 OA
ATOM     16  C   UNL     1       6.070   0.191   0.198  0.00  0.00    +0.362 C 
BRANCH  16  17
ATOM     17  O   UNL     1       6.790  -0.932  -0.094  0.00  0.00    -0.446 OA
BRANCH  17  18
ATOM     18  C   UNL     1       8.178  -0.717  -0.374  0.00  0.00    +0.209 C 
ATOM     19  C   UNL     1       8.831  -2.049  -0.676  0.00  0.00    +0.051 C 
ENDBRANCH  17  18
ENDBRANCH  16  17
ENDBRANCH  14  16
ENDBRANCH  13  14
ENDBRANCH  11  13
BRANCH   3  20
ATOM     20  C   UNL     1      -3.674  -0.503  -0.929  0.00  0.00    +0.010 C 
BRANCH  20  21
ATOM     21  C   UNL     1      -4.574  -0.425   0.292  0.00  0.00    -0.072 C 
BRANCH  21  22
ATOM     22  N   UNL     1      -5.962  -0.634  -0.106  0.00  0.00    +0.387 N 
ATOM     23  H   UNL     1      -5.981  -1.357  -0.826  0.00  0.00    -0.080 HD
BRANCH  22  24
ATOM     24  C   UNL     1      -6.762  -1.090   1.032  0.00  0.00    -0.077 C 
ATOM     25  C   UNL     1      -6.799  -0.042   2.131  0.00  0.00    -0.025 C 
ENDBRANCH  22  24
BRANCH  22  26
ATOM     26  C   UNL     1      -6.528   0.594  -0.666  0.00  0.00    -0.077 C 
ATOM     27  C   UNL     1      -7.952   0.373  -1.146  0.00  0.00    -0.025 C 
ENDBRANCH  22  26
ENDBRANCH  21  22
ENDBRANCH  20  21
ENDBRANCH   3  20
TORSDOF 10
