REMARK  Name = 25215
REMARK  1 active torsions:
REMARK  status: ('A' for Active; 'I' for Inactive)
REMARK    1  A    between atoms: C_5  and  C_18
REMARK                            x       y       z     vdW  Elec       q    Type
REMARK                         _______ _______ _______ _____ _____    ______ ____
ROOT
ATOM      1 CL   UNL     1      -0.065  -4.429   0.826  0.00  0.00    -0.082 Cl
ATOM      2  O   UNL     1      -2.588   3.208  -0.166  0.00  0.00    -0.272 OA
ATOM      3  N   UNL     1      -2.382   0.918  -0.549  0.00  0.00    -0.255 N 
ATOM      4  N   UNL     1       0.044   1.841   1.028  0.00  0.00    -0.261 NA
ATOM      5  C   UNL     1       0.407   0.707   0.529  0.00  0.00    +0.073 C 
ATOM      6  C   UNL     1      -0.485  -0.467   0.330  0.00  0.00    +0.031 C 
ATOM      7  C   UNL     1      -1.775  -0.347  -0.232  0.00  0.00    +0.055 C 
ATOM      8  C   UNL     1      -1.341   1.974   1.427  0.00  0.00    +0.210 C 
ATOM      9  C   UNL     1       0.027  -1.733   0.667  0.00  0.00    +0.014 C 
ATOM     10  C   UNL     1      -2.145   2.103   0.159  0.00  0.00    +0.254 C 
ATOM     11  C   UNL     1      -2.481  -1.536  -0.504  0.00  0.00    +0.016 C 
ATOM     12  C   UNL     1      -3.353   0.959  -1.643  0.00  0.00    +0.120 C 
ATOM     13  C   UNL     1      -0.707  -2.888   0.414  0.00  0.00    +0.058 C 
ATOM     14  C   UNL     1      -1.956  -2.790  -0.183  0.00  0.00    +0.013 C 
ENDROOT
BRANCH   5  18
ATOM     15  C   UNL     1       3.474  -0.125  -1.668  0.00  0.00    +0.005 C 
ATOM     16  C   UNL     1       2.075  -0.343  -1.082  0.00  0.00    +0.028 C 
ATOM     17  C   UNL     1       4.521   0.000  -0.565  0.00  0.00    +0.005 C 
ATOM     18  C   UNL     1       1.795   0.553   0.086  0.00  0.00    -0.009 C 
ATOM     19  C   UNL     1       4.196   1.156   0.386  0.00  0.00    +0.026 C 
ATOM     20  C   UNL     1       2.740   1.241   0.743  0.00  0.00    -0.029 C 
ENDBRANCH   5  18
TORSDOF 1
