REMARK  Name = 208903
REMARK  9 active torsions:
REMARK  status: ('A' for Active; 'I' for Inactive)
REMARK    1  A    between atoms: N_1  and  C_18
REMARK    2  A    between atoms: C_2  and  C_8
REMARK    3  A    between atoms: C_2  and  C_15
REMARK    4  A    between atoms: C_15  and  C_16
REMARK    5  A    between atoms: C_18  and  C_19
REMARK    6  A    between atoms: C_19  and  O_20
REMARK    7  A    between atoms: O_20  and  C_21
REMARK    8  A    between atoms: C_21  and  C_22
REMARK    9  A    between atoms: C_22  and  O_23
REMARK                            x       y       z     vdW  Elec       q    Type
REMARK                         _______ _______ _______ _____ _____    ______ ____
ROOT
ATOM      1  N   UNL     1       1.467   0.172   0.594  0.00  0.00    +0.389 N 
ATOM      2  C   UNL     1      -1.461  -0.072   0.086  0.00  0.00    +0.066 C 
ATOM      3  C   UNL     1      -0.825  -0.004   1.498  0.00  0.00    -0.012 C 
ATOM      4  C   UNL     1      -0.459   0.550  -0.921  0.00  0.00    -0.012 C 
ATOM      5  C   UNL     1       0.610  -0.541   1.546  0.00  0.00    -0.076 C 
ATOM      6  C   UNL     1       0.969   0.010  -0.775  0.00  0.00    -0.076 C 
ATOM      7  H   UNL     1       1.445   1.164   0.826  0.00  0.00    -0.080 HD
ENDROOT
BRANCH   2   8
ATOM      8  C   UNL     1      -2.829   0.624  -0.020  0.00  0.00    -0.016 C 
ATOM      9  C   UNL     1      -3.517   0.617  -1.230  0.00  0.00    -0.004 C 
ATOM     10  C   UNL     1      -3.372   1.256   1.095  0.00  0.00    -0.004 C 
ATOM     11  C   UNL     1      -4.758   1.248  -1.327  0.00  0.00    -0.000 C 
ATOM     12  C   UNL     1      -4.613   1.887   0.999  0.00  0.00    -0.000 C 
ATOM     13  C   UNL     1      -5.306   1.882  -0.212  0.00  0.00    -0.000 C 
ENDBRANCH   2   8
BRANCH   2  15
ATOM     14  O   UNL     1      -1.088  -2.058  -1.198  0.00  0.00    -0.296 OA
ATOM     15  C   UNL     1      -1.672  -1.534  -0.251  0.00  0.00    +0.153 C 
BRANCH  15  16
ATOM     16  C   UNL     1      -2.636  -2.293   0.643  0.00  0.00    +0.065 C 
ATOM     17  C   UNL     1      -3.369  -3.399  -0.093  0.00  0.00    +0.008 C 
ENDBRANCH  15  16
ENDBRANCH   2  15
BRANCH   1  18
ATOM     18  C   UNL     1       2.849  -0.298   0.695  0.00  0.00    -0.045 C 
BRANCH  18  19
ATOM     19  C   UNL     1       3.761   0.518  -0.207  0.00  0.00    +0.120 C 
BRANCH  19  20
ATOM     20  O   UNL     1       5.092   0.040  -0.063  0.00  0.00    -0.353 OA
BRANCH  20  21
ATOM     21  C   UNL     1       5.997   0.765  -0.884  0.00  0.00    +0.174 C 
BRANCH  21  22
ATOM     22  C   UNL     1       7.399   0.227  -0.670  0.00  0.00    +0.169 C 
BRANCH  22  23
ATOM     23  O   UNL     1       7.761   0.404   0.695  0.00  0.00    -0.379 OA
ATOM     24  H   UNL     1       8.657   0.061   0.838  0.00  0.00    +0.211 HD
ENDBRANCH  22  23
ENDBRANCH  21  22
ENDBRANCH  20  21
ENDBRANCH  19  20
ENDBRANCH  18  19
ENDBRANCH   1  18
TORSDOF 9
