REMARK  Name = 71741
REMARK  9 active torsions:
REMARK  status: ('A' for Active; 'I' for Inactive)
REMARK    1  A    between atoms: C_2  and  O_7
REMARK    2  A    between atoms: C_3  and  C_15
REMARK    3  A    between atoms: C_4  and  O_9
REMARK    4  A    between atoms: C_5  and  O_11
REMARK    5  A    between atoms: C_6  and  O_13
REMARK    6  A    between atoms: C_15  and  N_17
REMARK    7  A    between atoms: N_18  and  N_22
REMARK    8  A    between atoms: N_18  and  C_23
REMARK    9  A    between atoms: C_23  and  C_25
REMARK                            x       y       z     vdW  Elec       q    Type
REMARK                         _______ _______ _______ _____ _____    ______ ____
ROOT
ATOM      1  O   UNL     1      -1.558   0.721  -0.852  0.00  0.00    -0.327 OA
ATOM      2  C   UNL     1      -2.617  -1.429  -0.372  0.00  0.00    +0.169 C 
ATOM      3  C   UNL     1      -1.331  -0.592  -0.327  0.00  0.00    +0.166 C 
ATOM      4  C   UNL     1      -3.770  -0.709   0.331  0.00  0.00    +0.171 C 
ATOM      5  C   UNL     1      -3.891   0.729  -0.171  0.00  0.00    +0.196 C 
ATOM      6  C   UNL     1      -2.547   1.456  -0.129  0.00  0.00    +0.266 C 
ENDROOT
BRANCH   2   7
ATOM      7  O   UNL     1      -2.416  -2.681   0.279  0.00  0.00    -0.379 OA
ATOM      8  H   UNL     1      -1.688  -3.156  -0.151  0.00  0.00    +0.211 HD
ENDBRANCH   2   7
BRANCH   4   9
ATOM      9  O   UNL     1      -4.981  -1.410   0.037  0.00  0.00    -0.379 OA
ATOM     10  H   UNL     1      -4.910  -2.324   0.353  0.00  0.00    +0.211 HD
ENDBRANCH   4   9
BRANCH   5  11
ATOM     11  O   UNL     1      -4.853   1.423   0.616  0.00  0.00    -0.378 OA
ATOM     12  H   UNL     1      -5.700   0.951   0.581  0.00  0.00    +0.211 HD
ENDBRANCH   5  11
BRANCH   6  13
ATOM     13  O   UNL     1      -2.129   1.760   1.200  0.00  0.00    -0.326 OA
ATOM     14  C   UNL     1      -0.880   2.435   1.208  0.00  0.00    +0.177 C 
ENDBRANCH   6  13
BRANCH   3  15
ATOM     15  C   UNL     1      -0.212  -1.217  -1.155  0.00  0.00    +0.123 C 
BRANCH  15  17
ATOM     16  O   UNL     1       1.853  -1.476   0.744  0.00  0.00    -0.251 OA
ATOM     17  N   UNL     1       0.975  -0.418  -1.101  0.00  0.00    -0.285 N 
ATOM     18  N   UNL     1       3.070   0.255  -0.203  0.00  0.00    -0.163 N 
ATOM     19  C   UNL     1       1.962  -0.604  -0.125  0.00  0.00    +0.320 C 
ATOM     20  H   UNL     1       1.103   0.288  -1.775  0.00  0.00    +0.151 HD
BRANCH  18  22
ATOM     21  O   UNL     1       4.170   1.973  -1.234  0.00  0.00    -0.078 OA
ATOM     22  N   UNL     1       3.145   1.284  -1.279  0.00  0.00    +0.054 NA
ENDBRANCH  18  22
BRANCH  18  23
ATOM     23  C   UNL     1       4.168   0.165   0.751  0.00  0.00    +0.134 C 
BRANCH  23  25
ATOM     24 CL   UNL     1       6.581  -0.876   1.487  0.00  0.00    -0.112 Cl
ATOM     25  C   UNL     1       5.260  -0.788   0.295  0.00  0.00    +0.118 C 
ENDBRANCH  23  25
ENDBRANCH  18  23
ENDBRANCH  15  17
ENDBRANCH   3  15
TORSDOF 9
