5902
  -OEChem-10061700293D

 55 55  0     1  0  0  0  0  0999 V2000
   -2.1642   -0.1104   -0.0975 O   0  0  0  0  0  0  0  0  0  0  0  0
   -2.1363    2.1255    0.4589 O   0  0  0  0  0  0  0  0  0  0  0  0
    3.5308   -2.1606   -0.0799 N   0  0  0  0  0  0  0  0  0  0  0  0
    0.5257   -0.0244    0.4483 N   0  0  0  0  0  0  0  0  0  0  0  0
    2.3555   -1.6358    0.6067 C   0  0  0  0  0  0  0  0  0  0  0  0
    1.7069   -0.5352   -0.2274 C   0  0  0  0  0  0  0  0  0  0  0  0
   -0.1068    1.0323   -0.3460 C   0  0  2  0  0  0  0  0  0  0  0  0
   -5.5311   -1.7988    0.2944 C   0  0  0  0  0  0  0  0  0  0  0  0
   -4.0366   -1.6006   -0.0062 C   0  0  0  0  0  0  0  0  0  0  0  0
    3.1355   -3.0874   -1.1417 C   0  0  0  0  0  0  0  0  0  0  0  0
    4.4265   -2.8258    0.8676 C   0  0  0  0  0  0  0  0  0  0  0  0
    0.6129    2.3538   -0.1814 C   0  0  0  0  0  0  0  0  0  0  0  0
   -3.5466   -0.1770    0.2303 C   0  0  0  0  0  0  0  0  0  0  0  0
   -1.5686    1.1153    0.0629 C   0  0  0  0  0  0  0  0  0  0  0  0
   -6.3674   -0.8809   -0.6003 C   0  0  0  0  0  0  0  0  0  0  0  0
   -5.9759   -3.2497    0.1054 C   0  0  0  0  0  0  0  0  0  0  0  0
    4.3460   -3.5923   -1.9086 C   0  0  0  0  0  0  0  0  0  0  0  0
    3.7514   -4.0246    1.5123 C   0  0  0  0  0  0  0  0  0  0  0  0
    0.6452    3.2665   -1.2359 C   0  0  0  0  0  0  0  0  0  0  0  0
    1.2436    2.6592    1.0248 C   0  0  0  0  0  0  0  0  0  0  0  0
    1.3082    4.4842   -1.0844 C   0  0  0  0  0  0  0  0  0  0  0  0
    1.9065    3.8772    1.1762 C   0  0  0  0  0  0  0  0  0  0  0  0
    1.9388    4.7896    0.1216 C   0  0  0  0  0  0  0  0  0  0  0  0
    1.6179   -2.4195    0.8246 H   0  0  0  0  0  0  0  0  0  0  0  0
    2.6428   -1.1892    1.5688 H   0  0  0  0  0  0  0  0  0  0  0  0
    2.4412    0.2631   -0.3911 H   0  0  0  0  0  0  0  0  0  0  0  0
    1.4122   -0.9173   -1.2104 H   0  0  0  0  0  0  0  0  0  0  0  0
   -0.1156    0.7605   -1.4112 H   0  0  0  0  0  0  0  0  0  0  0  0
   -0.1300   -0.7969    0.5706 H   0  0  0  0  0  0  0  0  0  0  0  0
   -5.7191   -1.5249    1.3404 H   0  0  0  0  0  0  0  0  0  0  0  0
   -3.8173   -1.8897   -1.0427 H   0  0  0  0  0  0  0  0  0  0  0  0
   -3.4440   -2.2847    0.6153 H   0  0  0  0  0  0  0  0  0  0  0  0
    2.5198   -3.9262   -0.7981 H   0  0  0  0  0  0  0  0  0  0  0  0
    2.5219   -2.5574   -1.8785 H   0  0  0  0  0  0  0  0  0  0  0  0
    5.3739   -3.1185    0.4029 H   0  0  0  0  0  0  0  0  0  0  0  0
    4.7182   -2.1141    1.6510 H   0  0  0  0  0  0  0  0  0  0  0  0
   -3.6894    0.0994    1.2813 H   0  0  0  0  0  0  0  0  0  0  0  0
   -4.0815    0.5334   -0.4073 H   0  0  0  0  0  0  0  0  0  0  0  0
   -6.1180   -1.0157   -1.6582 H   0  0  0  0  0  0  0  0  0  0  0  0
   -6.2294    0.1732   -0.3426 H   0  0  0  0  0  0  0  0  0  0  0  0
   -7.4355   -1.0942   -0.4796 H   0  0  0  0  0  0  0  0  0  0  0  0
   -5.8326   -3.5762   -0.9302 H   0  0  0  0  0  0  0  0  0  0  0  0
   -7.0346   -3.3709    0.3575 H   0  0  0  0  0  0  0  0  0  0  0  0
   -5.3985   -3.9171    0.7537 H   0  0  0  0  0  0  0  0  0  0  0  0
    5.0114   -2.7726   -2.2008 H   0  0  0  0  0  0  0  0  0  0  0  0
    4.9223   -4.3327   -1.3457 H   0  0  0  0  0  0  0  0  0  0  0  0
    4.0162   -4.0864   -2.8295 H   0  0  0  0  0  0  0  0  0  0  0  0
    2.8269   -3.7765    2.0409 H   0  0  0  0  0  0  0  0  0  0  0  0
    3.5550   -4.8412    0.8122 H   0  0  0  0  0  0  0  0  0  0  0  0
    4.4287   -4.4379    2.2698 H   0  0  0  0  0  0  0  0  0  0  0  0
    0.1561    3.0415   -2.1799 H   0  0  0  0  0  0  0  0  0  0  0  0
    1.2221    1.9803    1.8726 H   0  0  0  0  0  0  0  0  0  0  0  0
    1.3328    5.1951   -1.9052 H   0  0  0  0  0  0  0  0  0  0  0  0
    2.3940    4.1173    2.1166 H   0  0  0  0  0  0  0  0  0  0  0  0
    2.4539    5.7383    0.2401 H   0  0  0  0  0  0  0  0  0  0  0  0
  1 13  1  0  0  0  0
  1 14  1  0  0  0  0
  2 14  2  0  0  0  0
  3  5  1  0  0  0  0
  3 10  1  0  0  0  0
  3 11  1  0  0  0  0
  4  6  1  0  0  0  0
  4  7  1  0  0  0  0
  4 29  1  0  0  0  0
  5  6  1  0  0  0  0
  5 24  1  0  0  0  0
  5 25  1  0  0  0  0
  6 26  1  0  0  0  0
  6 27  1  0  0  0  0
  7 12  1  0  0  0  0
  7 14  1  0  0  0  0
  7 28  1  0  0  0  0
  8  9  1  0  0  0  0
  8 15  1  0  0  0  0
  8 16  1  0  0  0  0
  8 30  1  0  0  0  0
  9 13  1  0  0  0  0
  9 31  1  0  0  0  0
  9 32  1  0  0  0  0
 10 17  1  0  0  0  0
 10 33  1  0  0  0  0
 10 34  1  0  0  0  0
 11 18  1  0  0  0  0
 11 35  1  0  0  0  0
 11 36  1  0  0  0  0
 12 19  2  0  0  0  0
 12 20  1  0  0  0  0
 13 37  1  0  0  0  0
 13 38  1  0  0  0  0
 15 39  1  0  0  0  0
 15 40  1  0  0  0  0
 15 41  1  0  0  0  0
 16 42  1  0  0  0  0
 16 43  1  0  0  0  0
 16 44  1  0  0  0  0
 17 45  1  0  0  0  0
 17 46  1  0  0  0  0
 17 47  1  0  0  0  0
 18 48  1  0  0  0  0
 18 49  1  0  0  0  0
 18 50  1  0  0  0  0
 19 21  1  0  0  0  0
 19 51  1  0  0  0  0
 20 22  2  0  0  0  0
 20 52  1  0  0  0  0
 21 23  2  0  0  0  0
 21 53  1  0  0  0  0
 22 23  1  0  0  0  0
 22 54  1  0  0  0  0
 23 55  1  0  0  0  0
M  END
> <DATABASE_ID>
DB13738

> <DATABASE_NAME>
drugbank

> <ORIGINAL_SOURCE>
PUBCHEM

> <ORIGINAL_SOURCE_URL>
https://pubchem.ncbi.nlm.nih.gov/rest/pug/compound/inchikey/RYOOHIUJEJZCFT-UHFFFAOYSA-N/SDF?record_type=3d

> <SMILES>
CCN(CC)CCNC(C(=O)OCCC(C)C)C1=CC=CC=C1

> <INCHI_IDENTIFIER>
InChI=1S/C19H32N2O2/c1-5-21(6-2)14-13-20-18(17-10-8-7-9-11-17)19(22)23-15-12-16(3)4/h7-11,16,18,20H,5-6,12-15H2,1-4H3

> <INCHI_KEY>
RYOOHIUJEJZCFT-UHFFFAOYSA-N

> <FORMULA>
C19H32N2O2

> <MOLECULAR_WEIGHT>
320.477

> <EXACT_MASS>
320.246378278

> <JCHEM_ACCEPTOR_COUNT>
3

> <JCHEM_ATOM_COUNT>
55

> <JCHEM_AVERAGE_POLARIZABILITY>
38.545334345985594

> <JCHEM_BIOAVAILABILITY>
1

> <JCHEM_DONOR_COUNT>
1

> <JCHEM_FORMAL_CHARGE>
0

> <JCHEM_GHOSE_FILTER>
1

> <JCHEM_IUPAC>
3-methylbutyl 2-{[2-(diethylamino)ethyl]amino}-2-phenylacetate

> <ALOGPS_LOGP>
3.40

> <JCHEM_LOGP>
3.7106068403333334

> <ALOGPS_LOGS>
-3.68

> <JCHEM_MDDR_LIKE_RULE>
0

> <JCHEM_NUMBER_OF_RINGS>
1

> <JCHEM_PHYSIOLOGICAL_CHARGE>
1

> <JCHEM_PKA_STRONGEST_BASIC>
9.188107078386318

> <JCHEM_POLAR_SURFACE_AREA>
41.57000000000001

> <JCHEM_REFRACTIVITY>
95.84349999999998

> <JCHEM_ROTATABLE_BOND_COUNT>
12

> <JCHEM_RULE_OF_FIVE>
1

> <ALOGPS_SOLUBILITY>
6.70e-02 g/l

> <JCHEM_TRADITIONAL_IUPAC>
adopon

> <JCHEM_VEBER_RULE>
0

> <DRUGBANK_ID>
DB13738

> <DRUG_GROUPS>
experimental

> <GENERIC_NAME>
Camylofin

$$$$
