REMARK  Name = 11226
REMARK  9 active torsions:
REMARK  status: ('A' for Active; 'I' for Inactive)
REMARK    1  A    between atoms: N_1  and  C_19
REMARK    2  A    between atoms: C_2  and  C_8
REMARK    3  A    between atoms: C_2  and  C_15
REMARK    4  A    between atoms: C_15  and  O_16
REMARK    5  A    between atoms: O_16  and  C_17
REMARK    6  A    between atoms: C_19  and  C_20
REMARK    7  A    between atoms: C_20  and  C_21
REMARK    8  A    between atoms: C_21  and  C_22
REMARK    9  A    between atoms: C_21  and  O_28
REMARK                            x       y       z     vdW  Elec       q    Type
REMARK                         _______ _______ _______ _____ _____    ______ ____
ROOT
ATOM      1  N   UNL     1      -0.961   0.783  -0.189  0.00  0.00    +0.387 N 
ATOM      2  C   UNL     1       1.930   0.052  -0.183  0.00  0.00    +0.104 C 
ATOM      3  C   UNL     1       1.042   0.102   1.087  0.00  0.00    -0.008 C 
ATOM      4  C   UNL     1       1.000  -0.118  -1.411  0.00  0.00    -0.008 C 
ATOM      5  C   UNL     1      -0.125   1.091   0.975  0.00  0.00    -0.076 C 
ATOM      6  C   UNL     1      -0.179   0.864  -1.426  0.00  0.00    -0.076 C 
ATOM      7  H   UNL     1      -1.305  -0.173  -0.091  0.00  0.00    -0.080 HD
ENDROOT
BRANCH   2   8
ATOM      8  C   UNL     1       2.995  -1.058  -0.160  0.00  0.00    -0.013 C 
ATOM      9  C   UNL     1       3.872  -1.198  -1.233  0.00  0.00    -0.004 C 
ATOM     10  C   UNL     1       3.077  -1.916   0.933  0.00  0.00    -0.004 C 
ATOM     11  C   UNL     1       4.838  -2.204  -1.212  0.00  0.00    -0.000 C 
ATOM     12  C   UNL     1       4.043  -2.922   0.954  0.00  0.00    -0.000 C 
ATOM     13  C   UNL     1       4.923  -3.066  -0.119  0.00  0.00    -0.000 C 
ENDBRANCH   2   8
BRANCH   2  15
ATOM     14  O   UNL     1       2.516   2.171  -1.202  0.00  0.00    -0.250 OA
ATOM     15  C   UNL     1       2.661   1.376  -0.283  0.00  0.00    +0.320 C 
BRANCH  15  16
ATOM     16  O   UNL     1       3.484   1.524   0.794  0.00  0.00    -0.448 OA
BRANCH  16  17
ATOM     17  C   UNL     1       4.240   2.739   0.827  0.00  0.00    +0.209 C 
ATOM     18  C   UNL     1       5.097   2.752   2.075  0.00  0.00    +0.051 C 
ENDBRANCH  16  17
ENDBRANCH  15  16
ENDBRANCH   2  15
BRANCH   1  19
ATOM     19  C   UNL     1      -2.110   1.685  -0.249  0.00  0.00    -0.075 C 
BRANCH  19  20
ATOM     20  C   UNL     1      -2.993   1.337  -1.447  0.00  0.00    +0.011 C 
BRANCH  20  21
ATOM     21  C   UNL     1      -3.553  -0.093  -1.385  0.00  0.00    +0.131 C 
BRANCH  21  22
ATOM     22  C   UNL     1      -4.439  -0.355  -0.189  0.00  0.00    +0.004 C 
ATOM     23  C   UNL     1      -3.871  -0.822   0.986  0.00  0.00    -0.002 C 
ATOM     24  C   UNL     1      -5.800  -0.122  -0.289  0.00  0.00    -0.002 C 
ATOM     25  C   UNL     1      -4.688  -1.063   2.090  0.00  0.00    -0.000 C 
ATOM     26  C   UNL     1      -6.617  -0.363   0.815  0.00  0.00    -0.000 C 
ATOM     27  C   UNL     1      -6.061  -0.834   2.005  0.00  0.00    -0.000 C 
ENDBRANCH  21  22
BRANCH  21  28
ATOM     28  O   UNL     1      -4.321  -0.341  -2.564  0.00  0.00    -0.380 OA
ATOM     29  H   UNL     1      -3.773  -0.179  -3.348  0.00  0.00    +0.211 HD
ENDBRANCH  21  28
ENDBRANCH  20  21
ENDBRANCH  19  20
ENDBRANCH   1  19
TORSDOF 9
