REMARK  Name = 66248
REMARK  8 active torsions:
REMARK  status: ('A' for Active; 'I' for Inactive)
REMARK    1  A    between atoms: C_1  and  C_2
REMARK    2  A    between atoms: C_1  and  C_8
REMARK    3  A    between atoms: C_1  and  C_15
REMARK    4  A    between atoms: C_1  and  O_26
REMARK    5  A    between atoms: C_15  and  O_16
REMARK    6  A    between atoms: O_16  and  C_20
REMARK    7  A    between atoms: N_17  and  C_22
REMARK    8  A    between atoms: N_17  and  C_24
REMARK                            x       y       z     vdW  Elec       q    Type
REMARK                         _______ _______ _______ _____ _____    ______ ____
ROOT
ATOM      1  C   UNL     1      -1.656   0.110  -0.733  0.00  0.00    +0.216 C 
ENDROOT
BRANCH   1   2
ATOM      2  C   UNL     1      -1.654  -1.323  -0.197  0.00  0.00    +0.016 C 
ATOM      3  C   UNL     1      -2.416  -2.269  -0.844  0.00  0.00    -0.001 C 
ATOM      4  C   UNL     1      -0.890  -1.612   0.910  0.00  0.00    -0.001 C 
ATOM      5  C   UNL     1      -2.414  -3.576  -0.355  0.00  0.00    -0.000 C 
ATOM      6  C   UNL     1      -0.889  -2.918   1.399  0.00  0.00    -0.000 C 
ATOM      7  C   UNL     1      -1.651  -3.900   0.766  0.00  0.00    -0.000 C 
ENDBRANCH   1   2
BRANCH   1   8
ATOM      8  C   UNL     1      -2.765   0.936  -0.077  0.00  0.00    +0.016 C 
ATOM      9  C   UNL     1      -2.748   1.095   1.289  0.00  0.00    -0.001 C 
ATOM     10  C   UNL     1      -3.737   1.488  -0.880  0.00  0.00    -0.001 C 
ATOM     11  C   UNL     1      -3.759   1.848   1.886  0.00  0.00    -0.000 C 
ATOM     12  C   UNL     1      -4.748   2.240  -0.282  0.00  0.00    -0.000 C 
ATOM     13  C   UNL     1      -4.759   2.420   1.101  0.00  0.00    -0.000 C 
ENDBRANCH   1   8
BRANCH   1  15
ATOM     14  O   UNL     1      -0.035   1.850  -0.156  0.00  0.00    -0.247 OA
ATOM     15  C   UNL     1      -0.274   0.765  -0.673  0.00  0.00    +0.349 C 
BRANCH  15  16
ATOM     16  O   UNL     1       0.675  -0.047  -1.245  0.00  0.00    -0.452 OA
BRANCH  16  20
ATOM     17  N   UNL     1       4.033   0.355   0.118  0.00  0.00    +0.392 N 
ATOM     18  C   UNL     1       2.511   0.586   0.208  0.00  0.00    -0.029 C 
ATOM     19  C   UNL     1       4.301  -0.125  -1.322  0.00  0.00    -0.069 C 
ATOM     20  C   UNL     1       2.004   0.436  -1.216  0.00  0.00    +0.147 C 
ATOM     21  C   UNL     1       2.948  -0.582  -1.821  0.00  0.00    +0.019 C 
BRANCH  17  22
ATOM     22  C   UNL     1       4.791   1.644   0.395  0.00  0.00    -0.073 C 
ATOM     23  C   UNL     1       6.276   1.390   0.249  0.00  0.00    -0.024 C 
ENDBRANCH  17  22
BRANCH  17  24
ATOM     24  C   UNL     1       4.466  -0.705   1.120  0.00  0.00    -0.073 C 
ATOM     25  C   UNL     1       4.218  -0.196   2.523  0.00  0.00    -0.024 C 
ENDBRANCH  17  24
ENDBRANCH  16  20
ENDBRANCH  15  16
ENDBRANCH   1  15
BRANCH   1  26
ATOM     26  O   UNL     1      -1.827   0.092  -2.165  0.00  0.00    -0.370 OA
ATOM     27  H   UNL     1      -1.119  -0.434  -2.569  0.00  0.00    +0.212 HD
ENDBRANCH   1  26
TORSDOF 8
