REMARK  Name = 26388
REMARK  6 active torsions:
REMARK  status: ('A' for Active; 'I' for Inactive)
REMARK    1  A    between atoms: N_2  and  C_19
REMARK    2  A    between atoms: C_8  and  S_15
REMARK    3  A    between atoms: C_19  and  C_20
REMARK    4  A    between atoms: C_20  and  C_21
REMARK    5  A    between atoms: C_21  and  N_22
REMARK    6  A    between atoms: C_23  and  C_31
REMARK                            x       y       z     vdW  Elec       q    Type
REMARK                         _______ _______ _______ _____ _____    ______ ____
ROOT
ATOM      1  S   UNL     1       3.112   0.964  -2.049  0.00  0.00    -0.084 S 
ATOM      2  N   UNL     1       1.980  -0.100   0.644  0.00  0.00    -0.286 N 
ATOM      3  C   UNL     1       1.273   0.985   0.066  0.00  0.00    +0.059 C 
ATOM      4  C   UNL     1       3.332  -0.429   0.372  0.00  0.00    +0.058 C 
ATOM      5  C   UNL     1       1.703   1.570  -1.142  0.00  0.00    +0.043 C 
ATOM      6  C   UNL     1       3.965   0.016  -0.805  0.00  0.00    +0.043 C 
ATOM      7  C   UNL     1       0.137   1.552   0.683  0.00  0.00    +0.034 C 
ATOM      8  C   UNL     1      -0.552   2.630   0.120  0.00  0.00    +0.107 C 
ATOM      9  C   UNL     1       4.115  -1.180   1.276  0.00  0.00    +0.015 C 
ATOM     10  C   UNL     1       1.003   2.651  -1.707  0.00  0.00    +0.009 C 
ATOM     11  C   UNL     1      -0.120   3.178  -1.078  0.00  0.00    +0.019 C 
ATOM     12  C   UNL     1       5.309  -0.307  -1.066  0.00  0.00    +0.008 C 
ATOM     13  C   UNL     1       5.451  -1.494   1.015  0.00  0.00    +0.001 C 
ATOM     14  C   UNL     1       6.048  -1.059  -0.159  0.00  0.00    +0.001 C 
ENDROOT
BRANCH   8  15
ATOM     15  S   UNL     1      -1.961   3.280   0.920  0.00  0.00    +0.010 S 
ATOM     16  O   UNL     1      -1.854   2.971   2.338  0.00  0.00    -0.169 OA
ATOM     17  O   UNL     1      -2.151   4.659   0.493  0.00  0.00    -0.169 OA
ATOM     18  C   UNL     1      -3.318   2.341   0.256  0.00  0.00    +0.182 C 
ENDBRANCH   8  15
BRANCH   2  19
ATOM     19  C   UNL     1       1.278  -0.902   1.655  0.00  0.00    +0.093 C 
BRANCH  19  20
ATOM     20  C   UNL     1       1.172  -2.360   1.209  0.00  0.00    -0.001 C 
BRANCH  20  21
ATOM     21  C   UNL     1       0.461  -2.566  -0.132  0.00  0.00    -0.076 C 
BRANCH  21  22
ATOM     22  N   UNL     1      -0.897  -2.024  -0.120  0.00  0.00    +0.387 N 
ATOM     23  C   UNL     1      -3.802  -2.149  -0.435  0.00  0.00    +0.072 C 
ATOM     24  C   UNL     1      -3.131  -2.132   0.938  0.00  0.00    -0.014 C 
ATOM     25  C   UNL     1      -2.897  -1.494  -1.476  0.00  0.00    -0.014 C 
ATOM     26  C   UNL     1      -1.722  -2.724   0.875  0.00  0.00    -0.077 C 
ATOM     27  C   UNL     1      -1.496  -2.108  -1.459  0.00  0.00    -0.077 C 
ATOM     28  H   UNL     1      -0.854  -1.039   0.144  0.00  0.00    -0.080 HD
BRANCH  23  31
ATOM     29  O   UNL     1      -5.516  -0.910   0.676  0.00  0.00    -0.275 OA
ATOM     30  N   UNL     1      -5.811  -1.429  -1.546  0.00  0.00    -0.329 N 
ATOM     31  C   UNL     1      -5.113  -1.430  -0.362  0.00  0.00    +0.219 C 
ATOM     32  H   UNL     1      -6.687  -0.981  -1.601  0.00  0.00    +0.145 HD
ATOM     33  H   UNL     1      -5.436  -1.876  -2.339  0.00  0.00    +0.145 HD
ENDBRANCH  23  31
ENDBRANCH  21  22
ENDBRANCH  20  21
ENDBRANCH  19  20
ENDBRANCH   2  19
TORSDOF 6
