REMARK  Name = 11660398
REMARK  4 active torsions:
REMARK  status: ('A' for Active; 'I' for Inactive)
REMARK    1  A    between atoms: N_1  and  C_10
REMARK    2  A    between atoms: C_3  and  C_7
REMARK    3  A    between atoms: C_7  and  O_8
REMARK    4  A    between atoms: C_10  and  C_13
REMARK                            x       y       z     vdW  Elec       q    Type
REMARK                         _______ _______ _______ _____ _____    ______ ____
ROOT
ATOM      1  N   UNL     1      -0.938   0.988   0.040  0.00  0.00    -0.261 N 
ATOM      2  N   UNL     1      -1.662   2.211  -1.615  0.00  0.00    -0.224 NA
ATOM      3  C   UNL     1      -2.093   0.405  -0.316  0.00  0.00    +0.149 C 
ATOM      4  C   UNL     1      -0.696   2.056  -0.738  0.00  0.00    +0.168 C 
ATOM      5  C   UNL     1      -2.536   1.185  -1.357  0.00  0.00    +0.122 C 
ENDROOT
BRANCH   3   7
ATOM      6  O   UNL     1      -2.593  -1.120   1.455  0.00  0.00    -0.243 OA
ATOM      7  C   UNL     1      -2.695  -0.751   0.267  0.00  0.00    +0.357 C 
BRANCH   7   8
ATOM      8  O   UNL     1      -3.444  -1.467  -0.647  0.00  0.00    -0.440 OA
ATOM      9  C   UNL     1      -4.100  -2.650  -0.176  0.00  0.00    +0.256 C 
ENDBRANCH   7   8
ENDBRANCH   3   7
BRANCH   1  10
ATOM     10  C   UNL     1      -0.043   0.532   1.135  0.00  0.00    +0.101 C 
ATOM     11  C   UNL     1      -0.053   1.553   2.297  0.00  0.00    +0.027 C 
BRANCH  10  13
ATOM     12  I   UNL     1       5.637  -1.258  -1.095  0.00  0.00    -0.043 I 
ATOM     13  C   UNL     1       1.290   0.112   0.614  0.00  0.00    -0.004 C 
ATOM     14  C   UNL     1       1.456  -1.162   0.071  0.00  0.00    -0.002 C 
ATOM     15  C   UNL     1       2.370   0.994   0.667  0.00  0.00    -0.002 C 
ATOM     16  C   UNL     1       2.702  -1.555  -0.417  0.00  0.00    +0.006 C 
ATOM     17  C   UNL     1       3.616   0.601   0.179  0.00  0.00    +0.006 C 
ATOM     18  C   UNL     1       3.782  -0.673  -0.364  0.00  0.00    +0.030 C 
ENDBRANCH  10  13
ENDBRANCH   1  10
TORSDOF 4
