REMARK  Name = 89683805
REMARK  7 active torsions:
REMARK  status: ('A' for Active; 'I' for Inactive)
REMARK    1  A    between atoms: N_1  and  C_31
REMARK    2  A    between atoms: N_4  and  C_22
REMARK    3  A    between atoms: C_7  and  C_12
REMARK    4  A    between atoms: C_14  and  C_20
REMARK    5  A    between atoms: C_25  and  C_30
REMARK    6  A    between atoms: C_31  and  C_32
REMARK    7  A    between atoms: C_32  and  O_35
REMARK                            x       y       z     vdW  Elec       q    Type
REMARK                         _______ _______ _______ _____ _____    ______ ____
ROOT
ATOM      1  N   UNL     1      -4.308   1.041  -0.077  0.00  0.00    -0.255 N 
ATOM      2  N   UNL     1      -2.507  -0.421   0.012  0.00  0.00    -0.258 NA
ATOM      3  N   UNL     1      -2.178   1.955   0.061  0.00  0.00    -0.247 NA
ATOM      4  N   UNL     1       0.003   2.805   0.200  0.00  0.00    -0.237 N 
ATOM      5  N   UNL     1      -0.288   0.479   0.153  0.00  0.00    -0.257 NA
ATOM      6  C   UNL     1      -2.939   0.850   0.003  0.00  0.00    +0.221 C 
ATOM      7  C   UNL     1      -1.171  -0.530   0.089  0.00  0.00    +0.193 C 
ATOM      8  C   UNL     1      -0.863   1.693   0.134  0.00  0.00    +0.224 C 
ATOM      9  H   UNL     1      -4.649   1.964  -0.086  0.00  0.00    +0.160 HD
ATOM     10  H   UNL     1      -0.463   3.672   0.183  0.00  0.00    +0.166 HD
ENDROOT
BRANCH   7  12
ATOM     11  N   UNL     1       0.718  -1.931   0.182  0.00  0.00    -0.390 NA
ATOM     12  C   UNL     1      -0.630  -1.863   0.104  0.00  0.00    +0.217 C 
ATOM     13  C   UNL     1      -1.460  -2.971   0.042  0.00  0.00    +0.040 C 
ATOM     14  C   UNL     1       1.257  -3.171   0.198  0.00  0.00    +0.185 C 
ATOM     15  C   UNL     1      -0.869  -4.229   0.061  0.00  0.00    -0.015 C 
ATOM     16  C   UNL     1       0.515  -4.340   0.140  0.00  0.00    +0.089 C 
BRANCH  14  20
ATOM     17  F   UNL     1       3.200  -4.539   0.293  0.00  0.00    -0.164 F 
ATOM     18  F   UNL     1       3.386  -2.644  -0.758  0.00  0.00    -0.164 F 
ATOM     19  F   UNL     1       3.260  -2.672   1.407  0.00  0.00    -0.164 F 
ATOM     20  C   UNL     1       2.745  -3.252   0.283  0.00  0.00    +0.443 C 
ENDBRANCH  14  20
ENDBRANCH   7  12
BRANCH   4  22
ATOM     21  N   UNL     1       4.185   3.143   0.454  0.00  0.00    -0.240 NA
ATOM     22  C   UNL     1       1.404   2.918   0.285  0.00  0.00    +0.061 C 
ATOM     23  C   UNL     1       2.218   1.944  -0.280  0.00  0.00    +0.038 C 
ATOM     24  C   UNL     1       1.978   4.005   0.935  0.00  0.00    +0.036 C 
ATOM     25  C   UNL     1       3.591   2.101  -0.169  0.00  0.00    +0.154 C 
ATOM     26  C   UNL     1       3.361   4.071   0.992  0.00  0.00    +0.100 C 
BRANCH  25  30
ATOM     27  F   UNL     1       5.336   1.574  -1.718  0.00  0.00    -0.164 F 
ATOM     28  F   UNL     1       5.311   0.470   0.149  0.00  0.00    -0.164 F 
ATOM     29  F   UNL     1       3.812   0.062  -1.372  0.00  0.00    -0.164 F 
ATOM     30  C   UNL     1       4.496   1.075  -0.764  0.00  0.00    +0.435 C 
ENDBRANCH  25  30
ENDBRANCH   4  22
BRANCH   1  31
ATOM     31  C   UNL     1      -5.265  -0.042  -0.148  0.00  0.00    +0.125 C 
BRANCH  31  32
ATOM     32  C   UNL     1      -6.706   0.486  -0.204  0.00  0.00    +0.107 C 
ATOM     33  C   UNL     1      -7.681  -0.693  -0.289  0.00  0.00    +0.031 C 
ATOM     34  C   UNL     1      -7.053   1.367   1.000  0.00  0.00    +0.031 C 
BRANCH  32  35
ATOM     35  O   UNL     1      -6.853   1.259  -1.397  0.00  0.00    -0.385 OA
ATOM     36  H   UNL     1      -6.636   0.710  -2.167  0.00  0.00    +0.210 HD
ENDBRANCH  32  35
ENDBRANCH  31  32
ENDBRANCH   1  31
TORSDOF 7
