REMARK  Name = 8395
REMARK  6 active torsions:
REMARK  status: ('A' for Active; 'I' for Inactive)
REMARK    1  A    between atoms: C_5  and  C_12
REMARK    2  A    between atoms: C_9  and  O_18
REMARK    3  A    between atoms: O_18  and  C_19
REMARK    4  A    between atoms: C_19  and  C_21
REMARK    5  A    between atoms: C_21  and  O_22
REMARK    6  A    between atoms: O_22  and  C_23
REMARK                            x       y       z     vdW  Elec       q    Type
REMARK                         _______ _______ _______ _____ _____    ______ ____
ROOT
ATOM      1  O   UNL     1       1.446   0.167   0.213  0.00  0.00    -0.453 OA
ATOM      2  O   UNL     1       2.443  -3.663  -0.757  0.00  0.00    -0.286 OA
ATOM      3  C   UNL     1       0.749  -2.131  -0.150  0.00  0.00    +0.074 C 
ATOM      4  C   UNL     1       0.477  -0.804   0.175  0.00  0.00    +0.151 C 
ATOM      5  C   UNL     1       2.750  -0.190  -0.095  0.00  0.00    +0.148 C 
ATOM      6  C   UNL     1       2.132  -2.516  -0.468  0.00  0.00    +0.202 C 
ATOM      7  C   UNL     1      -0.827  -0.414   0.482  0.00  0.00    +0.074 C 
ATOM      8  C   UNL     1      -0.279  -3.078  -0.172  0.00  0.00    +0.009 C 
ATOM      9  C   UNL     1      -1.855  -1.356   0.462  0.00  0.00    +0.142 C 
ATOM     10  C   UNL     1       3.137  -1.435  -0.417  0.00  0.00    +0.080 C 
ATOM     11  C   UNL     1      -1.582  -2.685   0.135  0.00  0.00    +0.037 C 
ENDROOT
BRANCH   5  12
ATOM     12  C   UNL     1       3.712   0.928  -0.019  0.00  0.00    +0.035 C 
ATOM     13  C   UNL     1       5.041   0.688   0.340  0.00  0.00    +0.003 C 
ATOM     14  C   UNL     1       3.298   2.231  -0.305  0.00  0.00    +0.003 C 
ATOM     15  C   UNL     1       5.949   1.743   0.412  0.00  0.00    +0.000 C 
ATOM     16  C   UNL     1       4.206   3.287  -0.233  0.00  0.00    +0.000 C 
ATOM     17  C   UNL     1       5.532   3.043   0.125  0.00  0.00    +0.000 C 
ENDBRANCH   5  12
BRANCH   9  18
ATOM     18  O   UNL     1      -3.129  -0.978   0.761  0.00  0.00    -0.464 OA
BRANCH  18  19
ATOM     19  C   UNL     1      -3.498   0.364   0.448  0.00  0.00    +0.314 C 
BRANCH  19  21
ATOM     20  O   UNL     1      -5.719  -0.564   0.163  0.00  0.00    -0.246 OA
ATOM     21  C   UNL     1      -4.974   0.407   0.153  0.00  0.00    +0.362 C 
BRANCH  21  22
ATOM     22  O   UNL     1      -5.335   1.694  -0.123  0.00  0.00    -0.446 OA
BRANCH  22  23
ATOM     23  C   UNL     1      -6.720   1.895  -0.424  0.00  0.00    +0.209 C 
ATOM     24  C   UNL     1      -6.955   3.364  -0.705  0.00  0.00    +0.051 C 
ENDBRANCH  22  23
ENDBRANCH  21  22
ENDBRANCH  19  21
ENDBRANCH  18  19
ENDBRANCH   9  18
TORSDOF 6
