REMARK  Name = 13129
REMARK  1 active torsions:
REMARK  status: ('A' for Active; 'I' for Inactive)
REMARK    1  A    between atoms: C_4  and  C_6
REMARK                            x       y       z     vdW  Elec       q    Type
REMARK                         _______ _______ _______ _____ _____    ______ ____
ROOT
ATOM      1  F   UNL     1      -1.452  -0.855  -0.047  0.00  0.00    -0.167 F 
ATOM      2  F   UNL     1      -0.501   0.721   1.124  0.00  0.00    -0.167 F 
ATOM      3  F   UNL     1      -0.480   0.822  -1.056  0.00  0.00    -0.167 F 
ATOM      4  C   UNL     1      -0.396  -0.017  -0.002  0.00  0.00    +0.430 C 
ENDROOT
BRANCH   4   6
ATOM      5  F   UNL     1       1.929   0.108   0.003  0.00  0.00    -0.225 F 
ATOM      6  C   UNL     1       0.899  -0.778  -0.022  0.00  0.00    +0.296 C 
ENDBRANCH   4   6
TORSDOF 1
