REMARK  Name = 22379
REMARK  6 active torsions:
REMARK  status: ('A' for Active; 'I' for Inactive)
REMARK    1  A    between atoms: N_2  and  C_6
REMARK    2  A    between atoms: C_3  and  C_13
REMARK    3  A    between atoms: C_13  and  N_14
REMARK    4  A    between atoms: N_14  and  C_17
REMARK    5  A    between atoms: C_17  and  C_18
REMARK    6  A    between atoms: C_18  and  C_19
REMARK                            x       y       z     vdW  Elec       q    Type
REMARK                         _______ _______ _______ _____ _____    ______ ____
ROOT
ATOM      1  O   UNL     1       0.184   0.011  -1.369  0.00  0.00    -0.277 OA
ATOM      2  N   UNL     1      -0.944   0.002   0.690  0.00  0.00    -0.285 N 
ATOM      3  C   UNL     1       0.173   0.006  -0.142  0.00  0.00    +0.205 C 
ATOM      4  H   UNL     1      -0.765  -0.006   1.658  0.00  0.00    +0.155 HD
ENDROOT
BRANCH   2   6
ATOM      5 CL   UNL     1      -2.205  -2.724   0.316  0.00  0.00    -0.081 Cl
ATOM      6  C   UNL     1      -2.307   0.007   0.307  0.00  0.00    +0.057 C 
ATOM      7  C   UNL     1      -2.950   1.224   0.135  0.00  0.00    -0.008 C 
ATOM      8  C   UNL     1      -2.977  -1.192   0.110  0.00  0.00    +0.071 C 
ATOM      9  C   UNL     1      -4.292   1.243  -0.243  0.00  0.00    -0.003 C 
ATOM     10  C   UNL     1      -2.244   2.525   0.342  0.00  0.00    +0.032 C 
ATOM     11  C   UNL     1      -4.319  -1.173  -0.268  0.00  0.00    +0.013 C 
ATOM     12  C   UNL     1      -4.977   0.045  -0.445  0.00  0.00    +0.001 C 
ENDBRANCH   2   6
BRANCH   3  13
ATOM     13  C   UNL     1       1.446  -0.002   0.688  0.00  0.00    +0.006 C 
BRANCH  13  14
ATOM     14  N   UNL     1       2.601  -0.003  -0.198  0.00  0.00    +0.390 N 
ATOM     15  H   UNL     1       2.565  -0.831  -0.794  0.00  0.00    -0.084 HD
ATOM     16  H   UNL     1       2.579   0.844  -0.765  0.00  0.00    -0.084 HD
BRANCH  14  17
ATOM     17  C   UNL     1       3.843  -0.020   0.566  0.00  0.00    -0.081 C 
BRANCH  17  18
ATOM     18  C   UNL     1       5.046   0.014  -0.375  0.00  0.00    -0.023 C 
BRANCH  18  19
ATOM     19  C   UNL     1       6.360   0.019   0.408  0.00  0.00    -0.002 C 
ATOM     20  C   UNL     1       7.563   0.017  -0.522  0.00  0.00    -0.000 C 
ENDBRANCH  18  19
ENDBRANCH  17  18
ENDBRANCH  14  17
ENDBRANCH  13  14
ENDBRANCH   3  13
TORSDOF 6
