REMARK  Name = 2377
REMARK  8 active torsions:
REMARK  status: ('A' for Active; 'I' for Inactive)
REMARK    1  A    between atoms: C_1  and  C_16
REMARK    2  A    between atoms: C_2  and  O_7
REMARK    3  A    between atoms: O_7  and  C_8
REMARK    4  A    between atoms: C_8  and  C_9
REMARK    5  A    between atoms: C_9  and  C_10
REMARK    6  A    between atoms: C_10  and  C_11
REMARK    7  A    between atoms: C_11  and  N_12
REMARK    8  A    between atoms: C_16  and  C_17
REMARK                            x       y       z     vdW  Elec       q    Type
REMARK                         _______ _______ _______ _____ _____    ______ ____
ROOT
ATOM      1  C   UNL     1       1.440  -1.168   0.610  0.00  0.00    +0.016 C 
ATOM      2  C   UNL     1       0.516  -1.529  -0.365  0.00  0.00    +0.135 C 
ATOM      3  C   UNL     1       2.439  -2.068   0.983  0.00  0.00    -0.001 C 
ATOM      4  C   UNL     1       0.579  -2.780  -0.970  0.00  0.00    +0.037 C 
ATOM      5  C   UNL     1       2.507  -3.324   0.380  0.00  0.00    -0.000 C 
ATOM      6  C   UNL     1       1.577  -3.680  -0.597  0.00  0.00    +0.003 C 
ENDROOT
BRANCH   2   7
ATOM      7  O   UNL     1      -0.471  -0.658  -0.743  0.00  0.00    -0.476 OA
BRANCH   7   8
ATOM      8  C   UNL     1      -1.813  -1.088  -0.556  0.00  0.00    +0.205 C 
BRANCH   8   9
ATOM      9  C   UNL     1      -2.714   0.118  -0.321  0.00  0.00    +0.045 C 
BRANCH   9  10
ATOM     10  C   UNL     1      -4.166  -0.300  -0.094  0.00  0.00    -0.020 C 
BRANCH  10  11
ATOM     11  C   UNL     1      -5.067   0.919   0.098  0.00  0.00    -0.082 C 
BRANCH  11  12
ATOM     12  N   UNL     1      -6.445   0.499   0.322  0.00  0.00    +0.382 N 
ATOM     13  C   UNL     1      -7.311   1.651   0.531  0.00  0.00    -0.106 C 
ATOM     14  H   UNL     1      -6.482  -0.100   1.147  0.00  0.00    -0.085 HD
ATOM     15  H   UNL     1      -6.770  -0.007  -0.501  0.00  0.00    -0.085 HD
ENDBRANCH  11  12
ENDBRANCH  10  11
ENDBRANCH   9  10
ENDBRANCH   8   9
ENDBRANCH   7   8
ENDBRANCH   2   7
BRANCH   1  16
ATOM     16  C   UNL     1       1.383   0.172   1.266  0.00  0.00    +0.056 C 
BRANCH  16  17
ATOM     17  C   UNL     1       2.191   1.238   0.555  0.00  0.00    -0.018 C 
ATOM     18  C   UNL     1       1.585   1.998  -0.429  0.00  0.00    -0.004 C 
ATOM     19  C   UNL     1       3.515   1.427   0.907  0.00  0.00    -0.004 C 
ATOM     20  C   UNL     1       2.329   2.980  -1.084  0.00  0.00    -0.000 C 
ATOM     21  C   UNL     1       4.259   2.408   0.252  0.00  0.00    -0.000 C 
ATOM     22  C   UNL     1       3.666   3.184  -0.744  0.00  0.00    -0.000 C 
ENDBRANCH  16  17
ENDBRANCH   1  16
TORSDOF 8
