REMARK  Name = 6093
REMARK  1 active torsions:
REMARK  status: ('A' for Active; 'I' for Inactive)
REMARK    1  A    between atoms: C_10  and  N_15
REMARK                            x       y       z     vdW  Elec       q    Type
REMARK                         _______ _______ _______ _____ _____    ______ ____
ROOT
ATOM      1  S   UNL     1      -0.927   1.069  -0.008  0.00  0.00    -0.027 S 
ATOM      2  O   UNL     1       2.718  -1.907  -0.026  0.00  0.00    -0.252 OA
ATOM      3  N   UNL     1       1.586   0.212  -0.010  0.00  0.00    -0.221 N 
ATOM      4  N   UNL     1       3.858   0.112   0.008  0.00  0.00    -0.287 N 
ATOM      5  N   UNL     1      -0.237  -1.422   0.008  0.00  0.00    -0.220 NA
ATOM      6  C   UNL     1       2.061   1.584  -0.114  0.00  0.00    +0.123 C 
ATOM      7  C   UNL     1       3.557   1.509   0.116  0.00  0.00    +0.113 C 
ATOM      8  C   UNL     1       2.695  -0.683  -0.006  0.00  0.00    +0.309 C 
ATOM      9  C   UNL     1       0.237  -0.194  -0.003  0.00  0.00    +0.172 C 
ATOM     10  C   UNL     1      -2.174  -0.109   0.004  0.00  0.00    +0.194 C 
ATOM     11  C   UNL     1      -1.617  -1.371   0.012  0.00  0.00    +0.132 C 
ATOM     12  H   UNL     1       4.771  -0.251  -0.049  0.00  0.00    +0.151 HD
ENDROOT
BRANCH  10  15
ATOM     13  O   UNL     1      -4.428  -0.595   0.016  0.00  0.00    -0.126 OA
ATOM     14  O   UNL     1      -3.813   1.513  -0.003  0.00  0.00    -0.126 OA
ATOM     15  N   UNL     1      -3.517   0.283   0.006  0.00  0.00    +0.065 N 
ENDBRANCH  10  15
TORSDOF 1
