65755
  -OEChem-10061700313D

 40 43  0     1  0  0  0  0  0999 V2000
   -0.0591   -0.6704    2.4756 S   0  0  0  0  0  0  0  0  0  0  0  0
   -3.9220    1.2616    0.3715 S   0  0  0  0  0  0  0  0  0  0  0  0
   -6.4895    2.8477   -0.0307 S   0  0  0  0  0  0  0  0  0  0  0  0
    1.4026   -1.3886   -1.8788 O   0  0  0  0  0  0  0  0  0  0  0  0
   -2.2907   -2.0602   -2.1813 O   0  0  0  0  0  0  0  0  0  0  0  0
   -1.6577    0.1325   -2.3270 O   0  0  0  0  0  0  0  0  0  0  0  0
    4.2465   -0.8964   -0.6299 O   0  0  0  0  0  0  0  0  0  0  0  0
   -0.1020   -1.4439   -0.0639 N   0  0  0  0  0  0  0  0  0  0  0  0
    2.6554   -0.6789    1.0460 N   0  0  0  0  0  0  0  0  0  0  0  0
    5.7333    1.2508    0.3168 N   0  0  0  0  0  0  0  0  0  0  0  0
    6.9076    0.7197    0.6427 N   0  0  0  0  0  0  0  0  0  0  0  0
   -6.4197    0.2942    0.1729 N   0  0  0  0  0  0  0  0  0  0  0  0
    7.1296    2.1884   -1.0198 N   0  0  0  0  0  0  0  0  0  0  0  0
    7.7684    1.3000   -0.1845 N   0  0  0  0  0  0  0  0  0  0  0  0
   -7.7538    0.6192   -0.0001 N   0  0  0  0  0  0  0  0  0  0  0  0
    0.3823   -1.8996    1.2264 C   0  0  1  0  0  0  0  0  0  0  0  0
    1.8007   -1.7886    0.6254 C   0  0  1  0  0  0  0  0  0  0  0  0
    1.0722   -1.5350   -0.7252 C   0  0  0  0  0  0  0  0  0  0  0  0
   -1.3895   -1.0845   -0.3028 C   0  0  0  0  0  0  0  0  0  0  0  0
   -2.2561   -0.8438    0.7097 C   0  0  0  0  0  0  0  0  0  0  0  0
   -1.8511   -0.8526    2.1821 C   0  0  0  0  0  0  0  0  0  0  0  0
   -3.7196   -0.5206    0.5268 C   0  0  0  0  0  0  0  0  0  0  0  0
   -1.7820   -0.9054   -1.7086 C   0  0  0  0  0  0  0  0  0  0  0  0
    3.8231   -0.3235    0.3705 C   0  0  0  0  0  0  0  0  0  0  0  0
    4.5155    0.8558    1.0182 C   0  0  0  0  0  0  0  0  0  0  0  0
   -5.6767    1.3656    0.1734 C   0  0  0  0  0  0  0  0  0  0  0  0
    5.8605    2.1382   -0.6864 C   0  0  0  0  0  0  0  0  0  0  0  0
   -7.9283    1.9181   -0.1190 C   0  0  0  0  0  0  0  0  0  0  0  0
    0.0772   -2.9269    1.4581 H   0  0  0  0  0  0  0  0  0  0  0  0
    2.3478   -2.7388    0.6414 H   0  0  0  0  0  0  0  0  0  0  0  0
   -2.1922   -1.7849    2.6455 H   0  0  0  0  0  0  0  0  0  0  0  0
   -2.3298   -0.0239    2.7138 H   0  0  0  0  0  0  0  0  0  0  0  0
    2.4016   -0.1353    1.8677 H   0  0  0  0  0  0  0  0  0  0  0  0
   -4.2995   -0.9026    1.3750 H   0  0  0  0  0  0  0  0  0  0  0  0
   -4.1135   -1.0138   -0.3684 H   0  0  0  0  0  0  0  0  0  0  0  0
    4.7891    0.6110    2.0501 H   0  0  0  0  0  0  0  0  0  0  0  0
    3.8448    1.7216    1.0224 H   0  0  0  0  0  0  0  0  0  0  0  0
   -2.5677   -1.9850   -3.1194 H   0  0  0  0  0  0  0  0  0  0  0  0
    5.0491    2.6990   -1.1265 H   0  0  0  0  0  0  0  0  0  0  0  0
   -8.9017    2.3659   -0.2614 H   0  0  0  0  0  0  0  0  0  0  0  0
  1 16  1  0  0  0  0
  1 21  1  0  0  0  0
  2 22  1  0  0  0  0
  2 26  1  0  0  0  0
  3 26  1  0  0  0  0
  3 28  1  0  0  0  0
  4 18  2  0  0  0  0
  5 23  1  0  0  0  0
  5 38  1  0  0  0  0
  6 23  2  0  0  0  0
  7 24  2  0  0  0  0
  8 16  1  0  0  0  0
  8 18  1  0  0  0  0
  8 19  1  0  0  0  0
  9 17  1  0  0  0  0
  9 24  1  0  0  0  0
  9 33  1  0  0  0  0
 10 11  1  0  0  0  0
 10 25  1  0  0  0  0
 10 27  1  0  0  0  0
 11 14  2  0  0  0  0
 12 15  1  0  0  0  0
 12 26  2  0  0  0  0
 13 14  1  0  0  0  0
 13 27  2  0  0  0  0
 15 28  2  0  0  0  0
 16 17  1  0  0  0  0
 16 29  1  0  0  0  0
 17 18  1  0  0  0  0
 17 30  1  0  0  0  0
 19 20  2  0  0  0  0
 19 23  1  0  0  0  0
 20 21  1  0  0  0  0
 20 22  1  0  0  0  0
 21 31  1  0  0  0  0
 21 32  1  0  0  0  0
 22 34  1  0  0  0  0
 22 35  1  0  0  0  0
 24 25  1  0  0  0  0
 25 36  1  0  0  0  0
 25 37  1  0  0  0  0
 27 39  1  0  0  0  0
 28 40  1  0  0  0  0
M  END
> <DATABASE_ID>
DB13821

> <DATABASE_NAME>
drugbank

> <ORIGINAL_SOURCE>
PUBCHEM

> <ORIGINAL_SOURCE_URL>
https://pubchem.ncbi.nlm.nih.gov/rest/pug/compound/inchikey/DZMVCVMFETWNIU-LDYMZIIASA-N/SDF?record_type=3d

> <SMILES>
OC(=O)C1=C(CSC2=NN=CS2)CS[C@@H]2[C@H](NC(=O)CN3C=NN=N3)C(=O)N12

> <INCHI_IDENTIFIER>
InChI=1S/C13H12N8O4S3/c22-7(1-20-4-14-18-19-20)16-8-10(23)21-9(12(24)25)6(2-26-11(8)21)3-27-13-17-15-5-28-13/h4-5,8,11H,1-3H2,(H,16,22)(H,24,25)/t8-,11-/m1/s1

> <INCHI_KEY>
DZMVCVMFETWNIU-LDYMZIIASA-N

> <FORMULA>
C13H12N8O4S3

> <MOLECULAR_WEIGHT>
440.47

> <EXACT_MASS>
440.01436442

> <JCHEM_ACCEPTOR_COUNT>
9

> <JCHEM_ATOM_COUNT>
40

> <JCHEM_AVERAGE_POLARIZABILITY>
40.10158941816125

> <JCHEM_BIOAVAILABILITY>
1

> <JCHEM_DONOR_COUNT>
2

> <JCHEM_FORMAL_CHARGE>
0

> <JCHEM_GHOSE_FILTER>
0

> <JCHEM_IUPAC>
(6R,7R)-8-oxo-7-[2-(1H-1,2,3,4-tetrazol-1-yl)acetamido]-3-[(1,3,4-thiadiazol-2-ylsulfanyl)methyl]-5-thia-1-azabicyclo[4.2.0]oct-2-ene-2-carboxylic acid

> <ALOGPS_LOGP>
-0.99

> <JCHEM_LOGP>
-1.6424748216666658

> <ALOGPS_LOGS>
-2.71

> <JCHEM_MDDR_LIKE_RULE>
1

> <JCHEM_NUMBER_OF_RINGS>
4

> <JCHEM_PHYSIOLOGICAL_CHARGE>
-1

> <JCHEM_PKA>
10.809828322529794

> <JCHEM_PKA_STRONGEST_ACIDIC>
2.8817599534562848

> <JCHEM_PKA_STRONGEST_BASIC>
-0.3582832573125302

> <JCHEM_POLAR_SURFACE_AREA>
156.08999999999997

> <JCHEM_REFRACTIVITY>
115.41549999999997

> <JCHEM_ROTATABLE_BOND_COUNT>
7

> <JCHEM_RULE_OF_FIVE>
1

> <ALOGPS_SOLUBILITY>
8.67e-01 g/l

> <JCHEM_TRADITIONAL_IUPAC>
ceftezole

> <JCHEM_VEBER_RULE>
0

> <DRUGBANK_ID>
DB13821

> <DRUG_GROUPS>
experimental

> <GENERIC_NAME>
Ceftezole

> <SYNONYMS>
ceftezol; Ceftezole

$$$$
