REMARK  Name = 68942
REMARK  1 active torsions:
REMARK  status: ('A' for Active; 'I' for Inactive)
REMARK    1  A    between atoms: C_3  and  C_13
REMARK                            x       y       z     vdW  Elec       q    Type
REMARK                         _______ _______ _______ _____ _____    ______ ____
ROOT
ATOM      1  O   UNL     1       0.513   2.147   1.271  0.00  0.00    -0.291 OA
ATOM      2  O   UNL     1       0.475  -2.490   0.261  0.00  0.00    -0.291 OA
ATOM      3  C   UNL     1      -0.042  -0.240   1.105  0.00  0.00    +0.146 C 
ATOM      4  C   UNL     1       0.797   1.016   0.926  0.00  0.00    +0.184 C 
ATOM      5  C   UNL     1       0.778  -1.322   0.417  0.00  0.00    +0.184 C 
ATOM      6  C   UNL     1       2.040   0.641   0.247  0.00  0.00    +0.038 C 
ATOM      7  C   UNL     1       2.029  -0.719  -0.049  0.00  0.00    +0.038 C 
ATOM      8  C   UNL     1       3.107   1.449  -0.095  0.00  0.00    +0.003 C 
ATOM      9  C   UNL     1       3.083  -1.329  -0.700  0.00  0.00    +0.003 C 
ATOM     10  C   UNL     1       4.184   0.849  -0.753  0.00  0.00    +0.000 C 
ATOM     11  C   UNL     1       4.172  -0.528  -1.052  0.00  0.00    +0.000 C 
ENDROOT
BRANCH   3  13
ATOM     12  F   UNL     1      -5.150   0.302  -1.177  0.00  0.00    -0.204 F 
ATOM     13  C   UNL     1      -1.393  -0.098   0.501  0.00  0.00    -0.008 C 
ATOM     14  C   UNL     1      -2.481  -0.786   1.044  0.00  0.00    -0.001 C 
ATOM     15  C   UNL     1      -1.581   0.726  -0.612  0.00  0.00    -0.001 C 
ATOM     16  C   UNL     1      -3.749  -0.651   0.477  0.00  0.00    +0.029 C 
ATOM     17  C   UNL     1      -2.849   0.861  -1.178  0.00  0.00    +0.029 C 
ATOM     18  C   UNL     1      -3.933   0.172  -0.633  0.00  0.00    +0.140 C 
ENDBRANCH   3  13
TORSDOF 1
