REMARK  Name = 14652
REMARK  2 active torsions:
REMARK  status: ('A' for Active; 'I' for Inactive)
REMARK    1  A    between atoms: C_1  and  C_9
REMARK    2  A    between atoms: C_2  and  S_16
REMARK                            x       y       z     vdW  Elec       q    Type
REMARK                         _______ _______ _______ _____ _____    ______ ____
ROOT
ATOM      1  C   UNL     1       0.312   0.007  -0.032  0.00  0.00    +0.027 C 
ATOM      2  C   UNL     1       3.108   0.020  -0.064  0.00  0.00    +0.106 C 
ATOM      3  C   UNL     1       1.017  -1.135  -0.424  0.00  0.00    +0.004 C 
ATOM      4  C   UNL     1       1.015   1.155   0.345  0.00  0.00    +0.004 C 
ATOM      5  C   UNL     1       2.412  -1.128  -0.440  0.00  0.00    +0.018 C 
ATOM      6  C   UNL     1       2.410   1.162   0.329  0.00  0.00    +0.018 C 
ENDROOT
BRANCH   1   9
ATOM      7  N   UNL     1      -3.188  -0.671   0.142  0.00  0.00    -0.255 N 
ATOM      8  N   UNL     1      -1.891   1.112  -0.232  0.00  0.00    -0.389 NA
ATOM      9  C   UNL     1      -1.117   0.000  -0.016  0.00  0.00    +0.131 C 
ATOM     10  C   UNL     1      -3.136   0.693  -0.134  0.00  0.00    +0.187 C 
ATOM     11  C   UNL     1      -1.892  -1.112   0.217  0.00  0.00    +0.157 C 
ATOM     12  C   UNL     1      -4.376  -1.381   0.299  0.00  0.00    +0.068 C 
ATOM     13  C   UNL     1      -4.381   1.376  -0.259  0.00  0.00    +0.048 C 
ATOM     14  C   UNL     1      -5.545  -0.729   0.180  0.00  0.00    +0.016 C 
ATOM     15  C   UNL     1      -5.534   0.696  -0.109  0.00  0.00    +0.005 C 
ENDBRANCH   1   9
BRANCH   2  16
ATOM     16  S   UNL     1       4.854   0.029  -0.085  0.00  0.00    +0.010 S 
ATOM     17  O   UNL     1       5.296  -0.979  -1.039  0.00  0.00    -0.169 OA
ATOM     18  O   UNL     1       5.318   1.403  -0.219  0.00  0.00    -0.169 OA
ATOM     19  C   UNL     1       5.318  -0.518   1.542  0.00  0.00    +0.182 C 
ENDBRANCH   2  16
TORSDOF 2
