REMARK  Name = 68760
REMARK  4 active torsions:
REMARK  status: ('A' for Active; 'I' for Inactive)
REMARK    1  A    between atoms: C_1  and  C_6
REMARK    2  A    between atoms: C_1  and  C_15
REMARK    3  A    between atoms: C_18  and  O_21
REMARK    4  A    between atoms: C_19  and  O_23
REMARK                            x       y       z     vdW  Elec       q    Type
REMARK                         _______ _______ _______ _____ _____    ______ ____
ROOT
ATOM      1  C   UNL     1      -0.837  -0.005   1.811  0.00  0.00    +0.058 C 
ENDROOT
BRANCH   1   6
ATOM      2  N   UNL     1      -3.643   0.898  -0.553  0.00  0.00    -0.323 NA
ATOM      3  N   UNL     1      -3.522  -1.500  -0.348  0.00  0.00    -0.170 NA
ATOM      4  N   UNL     1      -2.129   2.278   0.641  0.00  0.00    -0.332 N 
ATOM      5  N   UNL     1      -5.130  -0.488  -1.725  0.00  0.00    -0.293 N 
ATOM      6  C   UNL     1      -2.003  -0.109   0.849  0.00  0.00    +0.047 C 
ATOM      7  C   UNL     1      -2.604   0.987   0.303  0.00  0.00    +0.188 C 
ATOM      8  C   UNL     1      -2.487  -1.337   0.502  0.00  0.00    +0.112 C 
ATOM      9  C   UNL     1      -4.045  -0.357  -0.831  0.00  0.00    +0.143 C 
ATOM     10  H   UNL     1      -2.555   3.076   0.254  0.00  0.00    +0.145 HD
ATOM     11  H   UNL     1      -1.372   2.376   1.264  0.00  0.00    +0.145 HD
ATOM     12  H   UNL     1      -5.552   0.315  -2.109  0.00  0.00    +0.155 HD
ATOM     13  H   UNL     1      -5.466  -1.382  -1.964  0.00  0.00    +0.155 HD
ENDBRANCH   1   6
BRANCH   1  15
ATOM     14 BR   UNL     1       4.697  -0.023  -0.947  0.00  0.00    -0.043 Br
ATOM     15  C   UNL     1       0.498  -0.009   1.146  0.00  0.00    -0.012 C 
ATOM     16  C   UNL     1       1.161  -1.216   0.920  0.00  0.00    +0.034 C 
ATOM     17  C   UNL     1       1.084   1.193   0.751  0.00  0.00    +0.034 C 
ATOM     18  C   UNL     1       2.333   1.189   0.128  0.00  0.00    +0.147 C 
ATOM     19  C   UNL     1       2.409  -1.220   0.298  0.00  0.00    +0.147 C 
ATOM     20  C   UNL     1       2.995  -0.017  -0.098  0.00  0.00    +0.102 C 
BRANCH  18  21
ATOM     21  O   UNL     1       2.875   2.383  -0.245  0.00  0.00    -0.471 OA
ATOM     22  C   UNL     1       2.567   2.852  -1.556  0.00  0.00    +0.252 C 
ENDBRANCH  18  21
BRANCH  19  23
ATOM     23  O   UNL     1       3.027  -2.417   0.092  0.00  0.00    -0.471 OA
ATOM     24  C   UNL     1       2.755  -3.083  -1.139  0.00  0.00    +0.252 C 
ENDBRANCH  19  23
ENDBRANCH   1  15
TORSDOF 4
