REMARK  Name = 9470
REMARK  4 active torsions:
REMARK  status: ('A' for Active; 'I' for Inactive)
REMARK    1  A    between atoms: C_1  and  C_2
REMARK    2  A    between atoms: C_1  and  O_8
REMARK    3  A    between atoms: C_1  and  C_10
REMARK    4  A    between atoms: C_10  and  N_11
REMARK                            x       y       z     vdW  Elec       q    Type
REMARK                         _______ _______ _______ _____ _____    ______ ____
ROOT
ATOM      1  C   UNL     1      -1.144  -1.044   0.364  0.00  0.00    +0.152 C 
ENDROOT
BRANCH   1   2
ATOM      2  C   UNL     1      -2.436  -0.322   0.178  0.00  0.00    +0.006 C 
ATOM      3  C   UNL     1      -3.039   0.319   1.261  0.00  0.00    -0.002 C 
ATOM      4  C   UNL     1      -3.040  -0.285  -1.079  0.00  0.00    -0.002 C 
ATOM      5  C   UNL     1      -4.246   0.995   1.087  0.00  0.00    -0.000 C 
ATOM      6  C   UNL     1      -4.248   0.391  -1.252  0.00  0.00    -0.000 C 
ATOM      7  C   UNL     1      -4.851   1.031  -0.170  0.00  0.00    -0.000 C 
ENDBRANCH   1   2
BRANCH   1   8
ATOM      8  O   UNL     1      -1.094  -2.152  -0.545  0.00  0.00    -0.378 OA
ATOM      9  H   UNL     1      -0.256  -2.627  -0.429  0.00  0.00    +0.211 HD
ENDBRANCH   1   8
BRANCH   1  10
ATOM     10  C   UNL     1       0.075  -0.130   0.127  0.00  0.00    +0.122 C 
BRANCH  10  11
ATOM     11  N   UNL     1       1.331  -0.853   0.310  0.00  0.00    -0.316 N 
ATOM     12  H   UNL     1       1.293  -1.802   0.569  0.00  0.00    +0.148 HD
ATOM     13  N   UNL     1       3.709  -1.006   0.322  0.00  0.00    -0.229 NA
ATOM     14  C   UNL     1       2.566  -0.270   0.136  0.00  0.00    +0.129 C 
ATOM     15  C   UNL     1       2.627   1.083  -0.234  0.00  0.00    +0.034 C 
ATOM     16  C   UNL     1       3.867   1.686  -0.415  0.00  0.00    +0.004 C 
ATOM     17  C   UNL     1       4.896  -0.386   0.138  0.00  0.00    +0.100 C 
ATOM     18  C   UNL     1       5.028   0.944  -0.227  0.00  0.00    +0.021 C 
ENDBRANCH  10  11
ENDBRANCH   1  10
TORSDOF 4
