REMARK  Name = 44251605
REMARK  2 active torsions:
REMARK  status: ('A' for Active; 'I' for Inactive)
REMARK    1  A    between atoms: C_3  and  C_12
REMARK    2  A    between atoms: C_6  and  C_21
REMARK                            x       y       z     vdW  Elec       q    Type
REMARK                         _______ _______ _______ _____ _____    ______ ____
ROOT
ATOM      1  F   UNL     1      -2.370   2.225   0.018  0.00  0.00    -0.204 F 
ATOM      2  F   UNL     1       2.240   2.480  -0.985  0.00  0.00    -0.204 F 
ATOM      3  C   UNL     1      -0.980   0.363   0.503  0.00  0.00    +0.025 C 
ATOM      4  C   UNL     1       0.287  -0.220   0.494  0.00  0.00    +0.002 C 
ATOM      5  C   UNL     1      -1.156   1.657   0.012  0.00  0.00    +0.140 C 
ATOM      6  C   UNL     1       1.378   0.490  -0.008  0.00  0.00    +0.030 C 
ATOM      7  C   UNL     1      -0.065   2.367  -0.489  0.00  0.00    +0.059 C 
ATOM      8  C   UNL     1       1.202   1.784  -0.500  0.00  0.00    +0.142 C 
ENDROOT
BRANCH   3  12
ATOM      9  S   UNL     1      -3.183  -1.624  -1.645  0.00  0.00    -0.081 S 
ATOM     10  N   UNL     1      -3.471   0.013   0.507  0.00  0.00    -0.251 NA
ATOM     11  N   UNL     1      -5.156  -0.006  -1.099  0.00  0.00    -0.338 N 
ATOM     12  C   UNL     1      -2.179  -0.421   1.055  0.00  0.00    +0.108 C 
ATOM     13  C   UNL     1      -2.071  -1.952   0.885  0.00  0.00    +0.039 C 
ATOM     14  C   UNL     1      -2.268  -0.115   2.568  0.00  0.00    +0.029 C 
ATOM     15  C   UNL     1      -1.948  -2.378  -0.569  0.00  0.00    +0.067 C 
ATOM     16  C   UNL     1      -3.953  -0.435  -0.601  0.00  0.00    +0.148 C 
ATOM     17  H   UNL     1      -5.495  -0.369  -1.949  0.00  0.00    +0.144 HD
ATOM     18  H   UNL     1      -5.681   0.665  -0.606  0.00  0.00    +0.144 HD
ENDBRANCH   3  12
BRANCH   6  21
ATOM     19  N   UNL     1       4.164  -1.883  -0.733  0.00  0.00    -0.222 NA
ATOM     20  N   UNL     1       4.996  -0.114   0.677  0.00  0.00    -0.222 NA
ATOM     21  C   UNL     1       2.691  -0.119  -0.017  0.00  0.00    +0.041 C 
ATOM     22  C   UNL     1       2.954  -1.286  -0.705  0.00  0.00    +0.102 C 
ATOM     23  C   UNL     1       3.760   0.428   0.662  0.00  0.00    +0.102 C 
ATOM     24  C   UNL     1       5.125  -1.252  -0.031  0.00  0.00    +0.199 C 
ENDBRANCH   6  21
TORSDOF 2
