REMARK  Name = 6575
REMARK  0 active torsions:
REMARK  status: ('A' for Active; 'I' for Inactive)
REMARK                            x       y       z     vdW  Elec       q    Type
REMARK                         _______ _______ _______ _____ _____    ______ ____
ROOT
ATOM      1 CL   UNL     1      -2.063   0.706   0.000  0.00  0.00    -0.069 Cl
ATOM      2 CL   UNL     1      -0.346  -1.692   0.000  0.00  0.00    -0.069 Cl
ATOM      3 CL   UNL     1       2.243   0.174   0.000  0.00  0.00    -0.080 Cl
ATOM      4  C   UNL     1      -0.472   0.034   0.000  0.00  0.00    +0.126 C 
ATOM      5  C   UNL     1       0.638   0.777   0.000  0.00  0.00    +0.091 C 
ENDROOT
TORSDOF 0
