REMARK  Name = 54684617
REMARK  5 active torsions:
REMARK  status: ('A' for Active; 'I' for Inactive)
REMARK    1  A    between atoms: C_5  and  C_26
REMARK    2  A    between atoms: C_6  and  C_15
REMARK    3  A    between atoms: C_7  and  O_24
REMARK    4  A    between atoms: N_14  and  C_16
REMARK    5  A    between atoms: N_14  and  C_22
REMARK                            x       y       z     vdW  Elec       q    Type
REMARK                         _______ _______ _______ _____ _____    ______ ____
ROOT
ATOM      1  O   UNL     1       0.614   3.162  -0.306  0.00  0.00    -0.267 OA
ATOM      2  N   UNL     1       2.547   1.893  -0.133  0.00  0.00    -0.293 N 
ATOM      3  C   UNL     1       2.346  -0.541  -0.188  0.00  0.00    +0.046 A 
ATOM      4  C   UNL     1       3.156   0.602  -0.093  0.00  0.00    +0.065 A 
ATOM      5  C   UNL     1       2.949  -1.813  -0.148  0.00  0.00    -0.018 C 
ATOM      6  C   UNL     1       0.321   0.827  -0.369  0.00  0.00    +0.143 A 
ATOM      7  C   UNL     1       0.887  -0.394  -0.328  0.00  0.00    +0.144 A 
ATOM      8  C   UNL     1       1.169   2.061  -0.267  0.00  0.00    +0.268 A 
ATOM      9  C   UNL     1       4.549   0.444   0.039  0.00  0.00    +0.017 C 
ATOM     10  C   UNL     1       4.330  -1.953  -0.016  0.00  0.00    -0.004 C 
ATOM     11  C   UNL     1       5.130  -0.823   0.078  0.00  0.00    +0.001 C 
ATOM     12  C   UNL     1       3.397   3.079  -0.031  0.00  0.00    +0.134 C 
ENDROOT
BRANCH   6  15
ATOM     13  O   UNL     1      -1.523   1.607  -1.529  0.00  0.00    -0.269 OA
ATOM     14  N   UNL     1      -1.955   0.408   0.451  0.00  0.00    -0.255 N 
ATOM     15  C   UNL     1      -1.138   0.987  -0.537  0.00  0.00    +0.260 C 
BRANCH  14  16
ATOM     16  C   UNL     1      -3.279  -0.069   0.088  0.00  0.00    +0.054 C 
ATOM     17  C   UNL     1      -3.520  -0.541  -1.202  0.00  0.00    +0.015 C 
ATOM     18  C   UNL     1      -4.308  -0.056   1.029  0.00  0.00    +0.015 C 
ATOM     19  C   UNL     1      -4.791  -1.000  -1.551  0.00  0.00    +0.001 C 
ATOM     20  C   UNL     1      -5.578  -0.514   0.681  0.00  0.00    +0.001 C 
ATOM     21  C   UNL     1      -5.820  -0.986  -0.610  0.00  0.00    +0.000 C 
ENDBRANCH  14  16
BRANCH  14  22
ATOM     22  C   UNL     1      -1.499   0.276   1.845  0.00  0.00    +0.099 C 
ATOM     23  C   UNL     1      -1.867   1.494   2.666  0.00  0.00    +0.024 C 
ENDBRANCH  14  22
ENDBRANCH   6  15
BRANCH   7  24
ATOM     24  O   UNL     1       0.168  -1.569  -0.392  0.00  0.00    -0.505 OA
ATOM     25  H   UNL     1       0.612  -2.393  -0.359  0.00  0.00    +0.292 HD
ENDBRANCH   7  24
BRANCH   5  26
ATOM     26  C   UNL     1       2.204  -3.110  -0.242  0.00  0.00    +0.027 C 
ATOM     27  C   UNL     1       1.512  -3.470   1.067  0.00  0.00    +0.005 C 
ENDBRANCH   5  26
TORSDOF 5
