REMARK  Name = 6764
REMARK  0 active torsions:
REMARK  status: ('A' for Active; 'I' for Inactive)
REMARK                            x       y       z     vdW  Elec       q    Type
REMARK                         _______ _______ _______ _____ _____    ______ ____
ROOT
ATOM      1  O   UNL     1      -1.333  -2.749  -0.002  0.00  0.00    -0.281 OA
ATOM      2  O   UNL     1       1.333  -2.749   0.001  0.00  0.00    -0.281 OA
ATOM      3  N   UNL     1      -2.811  -0.503   0.000  0.00  0.00    -0.240 NA
ATOM      4  N   UNL     1       2.811  -0.504   0.000  0.00  0.00    -0.240 NA
ATOM      5  C   UNL     1      -0.738   0.806   0.000  0.00  0.00    +0.023 C 
ATOM      6  C   UNL     1       0.738   0.806   0.000  0.00  0.00    +0.023 C 
ATOM      7  C   UNL     1      -1.460  -0.391   0.000  0.00  0.00    +0.123 C 
ATOM      8  C   UNL     1       1.460  -0.391   0.000  0.00  0.00    +0.123 C 
ATOM      9  C   UNL     1      -0.750  -1.677  -0.001  0.00  0.00    +0.253 C 
ATOM     10  C   UNL     1       0.750  -1.677   0.000  0.00  0.00    +0.253 C 
ATOM     11  C   UNL     1      -1.523   1.968   0.000  0.00  0.00    +0.003 C 
ATOM     12  C   UNL     1       1.523   1.968  -0.001  0.00  0.00    +0.003 C 
ATOM     13  C   UNL     1      -2.916   1.898   0.000  0.00  0.00    +0.021 C 
ATOM     14  C   UNL     1       2.917   1.898  -0.001  0.00  0.00    +0.021 C 
ATOM     15  C   UNL     1      -3.507   0.649   0.000  0.00  0.00    +0.099 C 
ATOM     16  C   UNL     1       3.507   0.649   0.000  0.00  0.00    +0.099 C 
ENDROOT
TORSDOF 0
