REMARK  Name = 25116064
REMARK  6 active torsions:
REMARK  status: ('A' for Active; 'I' for Inactive)
REMARK    1  A    between atoms: N_2  and  C_27
REMARK    2  A    between atoms: C_11  and  C_17
REMARK    3  A    between atoms: C_27  and  C_28
REMARK    4  A    between atoms: C_28  and  O_29
REMARK    5  A    between atoms: C_28  and  C_31
REMARK    6  A    between atoms: C_31  and  N_33
REMARK                            x       y       z     vdW  Elec       q    Type
REMARK                         _______ _______ _______ _____ _____    ______ ____
ROOT
ATOM      1  O   UNL     1       1.667   2.644   0.517  0.00  0.00    -0.270 OA
ATOM      2  N   UNL     1       2.568   0.676  -0.340  0.00  0.00    -0.274 N 
ATOM      3  N   UNL     1      -1.428   0.260  -1.749  0.00  0.00    -0.357 N 
ATOM      4  C   UNL     1       2.347  -0.734  -0.680  0.00  0.00    +0.094 C 
ATOM      5  C   UNL     1       1.958  -0.968  -2.141  0.00  0.00    +0.028 C 
ATOM      6  C   UNL     1       0.880  -0.038  -2.700  0.00  0.00    +0.045 C 
ATOM      7  C   UNL     1      -0.071   0.442  -1.660  0.00  0.00    +0.038 A 
ATOM      8  C   UNL     1       0.190   1.158  -0.503  0.00  0.00    +0.062 A 
ATOM      9  C   UNL     1       1.516   1.567  -0.057  0.00  0.00    +0.250 C 
ATOM     10  C   UNL     1      -1.068   1.458   0.087  0.00  0.00    -0.001 A 
ATOM     11  C   UNL     1      -2.044   0.880  -0.694  0.00  0.00    +0.053 A 
ATOM     12  C   UNL     1      -1.330   2.231   1.319  0.00  0.00    +0.033 C 
ATOM     13  H   UNL     1      -1.888  -0.240  -2.461  0.00  0.00    +0.166 HD
ENDROOT
BRANCH  11  17
ATOM     14  F   UNL     1      -9.036   0.913  -0.569  0.00  0.00    -0.204 F 
ATOM     15  O   UNL     1      -2.463  -1.608   0.841  0.00  0.00    -0.270 OA
ATOM     16  N   UNL     1      -4.763  -2.046   1.158  0.00  0.00    -0.280 N 
ATOM     17  C   UNL     1      -3.446   0.811  -0.622  0.00  0.00    +0.021 C 
ATOM     18  C   UNL     1      -4.220  -0.155  -0.013  0.00  0.00    +0.056 C 
ATOM     19  C   UNL     1      -5.674  -0.238   0.068  0.00  0.00    +0.020 C 
ATOM     20  C   UNL     1      -3.643  -1.342   0.703  0.00  0.00    +0.250 C 
ATOM     21  C   UNL     1      -5.950  -1.403   0.789  0.00  0.00    +0.051 C 
ATOM     22  C   UNL     1      -6.700   0.561  -0.401  0.00  0.00    +0.031 C 
ATOM     23  C   UNL     1      -7.239  -1.813   1.067  0.00  0.00    +0.017 C 
ATOM     24  C   UNL     1      -8.014   0.164  -0.131  0.00  0.00    +0.140 C 
ATOM     25  C   UNL     1      -8.281  -1.012   0.596  0.00  0.00    +0.031 C 
ATOM     26  H   UNL     1      -4.721  -2.884   1.672  0.00  0.00    +0.155 HD
ENDBRANCH  11  17
BRANCH   2  27
ATOM     27  C   UNL     1       3.948   1.096  -0.149  0.00  0.00    +0.121 C 
BRANCH  27  28
ATOM     28  C   UNL     1       4.484   0.776   1.248  0.00  0.00    +0.110 C 
BRANCH  28  29
ATOM     29  O   UNL     1       3.953   1.737   2.162  0.00  0.00    -0.385 OA
ATOM     30  H   UNL     1       2.985   1.748   2.093  0.00  0.00    +0.210 HD
ENDBRANCH  28  29
BRANCH  28  31
ATOM     31  C   UNL     1       6.012   0.772   1.369  0.00  0.00    -0.045 C 
BRANCH  31  33
ATOM     32  O   UNL     1       8.632  -2.072  -0.263  0.00  0.00    -0.358 OA
ATOM     33  N   UNL     1       6.634  -0.170   0.441  0.00  0.00    +0.392 N 
ATOM     34  C   UNL     1       6.631  -1.530   0.998  0.00  0.00    -0.045 C 
ATOM     35  C   UNL     1       8.009   0.241   0.124  0.00  0.00    -0.045 C 
ATOM     36  C   UNL     1       7.296  -2.493   0.019  0.00  0.00    +0.119 C 
ATOM     37  C   UNL     1       8.641  -0.764  -0.835  0.00  0.00    +0.119 C 
ATOM     38  H   UNL     1       6.087  -0.169  -0.419  0.00  0.00    -0.079 HD
ENDBRANCH  31  33
ENDBRANCH  28  31
ENDBRANCH  27  28
ENDBRANCH   2  27
TORSDOF 6
