REMARK  Name = 8708
REMARK  6 active torsions:
REMARK  status: ('A' for Active; 'I' for Inactive)
REMARK    1  A    between atoms: C_4  and  O_13
REMARK    2  A    between atoms: O_13  and  C_14
REMARK    3  A    between atoms: C_14  and  C_15
REMARK    4  A    between atoms: C_15  and  N_16
REMARK    5  A    between atoms: N_16  and  C_18
REMARK    6  A    between atoms: N_16  and  C_20
REMARK                            x       y       z     vdW  Elec       q    Type
REMARK                         _______ _______ _______ _____ _____    ______ ____
ROOT
ATOM      1  S   UNL     1      -3.657  -1.458   0.397  0.00  0.00    -0.056 S 
ATOM      2  N   UNL     1      -5.798   0.065   0.009  0.00  0.00    -0.275 N 
ATOM      3  N   UNL     1      -3.662   1.029  -0.286  0.00  0.00    -0.384 NA
ATOM      4  C   UNL     1       0.257  -0.408   0.052  0.00  0.00    +0.136 C 
ATOM      5  C   UNL     1      -2.128  -0.695   0.166  0.00  0.00    +0.132 C 
ATOM      6  C   UNL     1      -2.334   0.639  -0.198  0.00  0.00    +0.126 C 
ATOM      7  C   UNL     1      -0.840  -1.238   0.296  0.00  0.00    +0.029 C 
ATOM      8  C   UNL     1       0.078   0.922  -0.311  0.00  0.00    +0.039 C 
ATOM      9  C   UNL     1      -1.208   1.457  -0.439  0.00  0.00    +0.032 C 
ATOM     10  C   UNL     1      -4.439   0.012   0.004  0.00  0.00    +0.211 C 
ATOM     11  C   UNL     1      -6.540   1.292  -0.317  0.00  0.00    +0.115 C 
ATOM     12  C   UNL     1      -6.631  -1.103   0.334  0.00  0.00    +0.115 C 
ENDROOT
BRANCH   4  13
ATOM     13  O   UNL     1       1.518  -0.911   0.172  0.00  0.00    -0.478 OA
BRANCH  13  14
ATOM     14  C   UNL     1       2.598  -0.017  -0.090  0.00  0.00    +0.183 C 
BRANCH  14  15
ATOM     15  C   UNL     1       3.908  -0.760   0.119  0.00  0.00    -0.029 C 
BRANCH  15  16
ATOM     16  N   UNL     1       5.042   0.110  -0.154  0.00  0.00    +0.389 N 
ATOM     17  H   UNL     1       4.970   0.427  -1.121  0.00  0.00    -0.080 HD
BRANCH  16  18
ATOM     18  C   UNL     1       6.304  -0.617   0.006  0.00  0.00    -0.077 C 
ATOM     19  C   UNL     1       6.359  -1.837  -0.890  0.00  0.00    -0.025 C 
ENDBRANCH  16  18
BRANCH  16  20
ATOM     20  C   UNL     1       5.019   1.282   0.724  0.00  0.00    -0.077 C 
ATOM     21  C   UNL     1       6.154   2.235   0.407  0.00  0.00    -0.025 C 
ENDBRANCH  16  20
ENDBRANCH  15  16
ENDBRANCH  14  15
ENDBRANCH  13  14
ENDBRANCH   4  13
TORSDOF 6
