REMARK  Name = 15985904
REMARK  7 active torsions:
REMARK  status: ('A' for Active; 'I' for Inactive)
REMARK    1  A    between atoms: N_1  and  S_6
REMARK    2  A    between atoms: C_4  and  C_21
REMARK    3  A    between atoms: S_6  and  C_9
REMARK    4  A    between atoms: C_10  and  C_17
REMARK    5  A    between atoms: C_22  and  C_25
REMARK    6  A    between atoms: N_24  and  C_27
REMARK    7  A    between atoms: C_28  and  N_33
REMARK                            x       y       z     vdW  Elec       q    Type
REMARK                         _______ _______ _______ _____ _____    ______ ____
ROOT
ATOM      1  N   UNL     1      -0.857  -2.492   0.076  0.00  0.00    -0.167 N 
ATOM      2  C   UNL     1       0.000  -1.926  -0.774  0.00  0.00    +0.089 C 
ATOM      3  C   UNL     1      -0.414  -2.569   1.331  0.00  0.00    +0.089 C 
ATOM      4  C   UNL     1       1.105  -1.599  -0.019  0.00  0.00    +0.018 C 
ATOM      5  C   UNL     1       0.843  -2.006   1.313  0.00  0.00    +0.019 C 
ENDROOT
BRANCH   1   6
ATOM      6  S   UNL     1      -2.410  -3.077  -0.408  0.00  0.00    +0.080 S 
ATOM      7  O   UNL     1      -2.691  -4.104   0.579  0.00  0.00    -0.149 OA
ATOM      8  O   UNL     1      -2.300  -3.369  -1.825  0.00  0.00    -0.149 OA
BRANCH   6   9
ATOM      9  C   UNL     1      -3.502  -1.729  -0.211  0.00  0.00    +0.126 C 
ATOM     10  C   UNL     1      -5.248   0.424   0.103  0.00  0.00    +0.003 C 
ATOM     11  C   UNL     1      -4.161  -1.537   1.003  0.00  0.00    +0.020 C 
ATOM     12  C   UNL     1      -3.716  -0.844  -1.268  0.00  0.00    +0.020 C 
ATOM     13  C   UNL     1      -5.034  -0.461   1.160  0.00  0.00    +0.001 C 
ATOM     14  C   UNL     1      -4.589   0.232  -1.111  0.00  0.00    +0.001 C 
BRANCH  10  17
ATOM     15  N   UNL     1      -7.593   3.096  -0.192  0.00  0.00    -0.208 N 
ATOM     16  N   UNL     1      -7.380   3.243   1.127  0.00  0.00    -0.176 NA
ATOM     17  C   UNL     1      -6.147   1.532   0.265  0.00  0.00    +0.037 C 
ATOM     18  C   UNL     1      -6.877   2.082  -0.757  0.00  0.00    +0.086 C 
ATOM     19  C   UNL     1      -6.494   2.282   1.399  0.00  0.00    +0.119 C 
ATOM     20  C   UNL     1      -8.515   3.975  -0.871  0.00  0.00    +0.140 C 
ENDBRANCH  10  17
ENDBRANCH   6   9
ENDBRANCH   1   6
BRANCH   4  21
ATOM     21  C   UNL     1       2.268  -0.973  -0.514  0.00  0.00    +0.006 C 
ATOM     22  C   UNL     1       3.395  -0.621   0.168  0.00  0.00    +0.058 C 
BRANCH  22  25
ATOM     23  O   UNL     1       4.520   0.291  -1.718  0.00  0.00    -0.270 OA
ATOM     24  N   UNL     1       5.577   0.303   0.378  0.00  0.00    -0.279 N 
ATOM     25  C   UNL     1       4.549   0.042  -0.518  0.00  0.00    +0.250 C 
ATOM     26  H   UNL     1       5.422   0.030   1.312  0.00  0.00    +0.155 HD
BRANCH  24  27
ATOM     27  C   UNL     1       6.823   0.917   0.101  0.00  0.00    +0.064 C 
ATOM     28  C   UNL     1       7.750   1.108   1.113  0.00  0.00    +0.055 C 
ATOM     29  C   UNL     1       7.084   1.316  -1.200  0.00  0.00    +0.016 C 
ATOM     30  C   UNL     1       8.970   1.715   0.816  0.00  0.00    +0.015 C 
ATOM     31  C   UNL     1       8.304   1.923  -1.497  0.00  0.00    +0.001 C 
ATOM     32  C   UNL     1       9.247   2.123  -0.489  0.00  0.00    +0.001 C 
BRANCH  28  33
ATOM     33  N   UNL     1       7.492   0.702   2.441  0.00  0.00    -0.356 N 
ATOM     34  H   UNL     1       6.635   0.272   2.666  0.00  0.00    +0.142 HD
ATOM     35  H   UNL     1       8.168   0.848   3.141  0.00  0.00    +0.142 HD
ENDBRANCH  28  33
ENDBRANCH  24  27
ENDBRANCH  22  25
ENDBRANCH   4  21
TORSDOF 7
