REMARK  Name = 36131
REMARK  9 active torsions:
REMARK  status: ('A' for Active; 'I' for Inactive)
REMARK    1  A    between atoms: N_2  and  C_14
REMARK    2  A    between atoms: N_2  and  C_22
REMARK    3  A    between atoms: C_3  and  C_4
REMARK    4  A    between atoms: C_14  and  C_15
REMARK    5  A    between atoms: C_15  and  N_16
REMARK    6  A    between atoms: N_16  and  C_18
REMARK    7  A    between atoms: N_16  and  C_20
REMARK    8  A    between atoms: C_22  and  C_23
REMARK    9  A    between atoms: C_23  and  C_24
REMARK                            x       y       z     vdW  Elec       q    Type
REMARK                         _______ _______ _______ _____ _____    ______ ____
ROOT
ATOM      1  O   UNL     1       1.199  -1.662  -2.133  0.00  0.00    -0.270 OA
ATOM      2  N   UNL     1       1.597  -0.024  -0.513  0.00  0.00    -0.278 N 
ATOM      3  C   UNL     1       0.780  -0.861  -1.290  0.00  0.00    +0.249 C 
ENDROOT
BRANCH   3   4
ATOM      4  C   UNL     1      -0.666  -0.810  -1.094  0.00  0.00    +0.054 C 
ATOM      5  C   UNL     1      -1.330  -1.630  -0.167  0.00  0.00    +0.004 C 
ATOM      6  C   UNL     1      -2.734  -1.524  -0.032  0.00  0.00    +0.000 C 
ATOM      7  C   UNL     1      -1.376   0.101  -1.876  0.00  0.00    +0.005 C 
ATOM      8  C   UNL     1      -0.630  -2.552   0.629  0.00  0.00    +0.000 C 
ATOM      9  C   UNL     1      -3.434  -0.602  -0.827  0.00  0.00    +0.000 C 
ATOM     10  C   UNL     1      -2.758   0.205  -1.743  0.00  0.00    +0.000 C 
ATOM     11  C   UNL     1      -3.399  -2.344   0.895  0.00  0.00    +0.000 C 
ATOM     12  C   UNL     1      -1.306  -3.359   1.544  0.00  0.00    +0.000 C 
ATOM     13  C   UNL     1      -2.688  -3.255   1.677  0.00  0.00    +0.000 C 
ENDBRANCH   3   4
BRANCH   2  14
ATOM     14  C   UNL     1       1.046   0.905   0.471  0.00  0.00    +0.071 C 
BRANCH  14  15
ATOM     15  C   UNL     1       0.756   2.262  -0.155  0.00  0.00    -0.055 C 
BRANCH  15  16
ATOM     16  N   UNL     1       0.181   3.164   0.835  0.00  0.00    +0.388 N 
ATOM     17  H   UNL     1       0.675   3.023   1.717  0.00  0.00    -0.080 HD
BRANCH  16  18
ATOM     18  C   UNL     1       0.352   4.559   0.424  0.00  0.00    -0.077 C 
ATOM     19  C   UNL     1      -0.387   4.843  -0.873  0.00  0.00    -0.025 C 
ENDBRANCH  16  18
BRANCH  16  20
ATOM     20  C   UNL     1      -1.238   2.867   1.042  0.00  0.00    -0.077 C 
ATOM     21  C   UNL     1      -1.833   3.756   2.121  0.00  0.00    -0.025 C 
ENDBRANCH  16  20
ENDBRANCH  15  16
ENDBRANCH  14  15
ENDBRANCH   2  14
BRANCH   2  22
ATOM     22  C   UNL     1       3.048  -0.026  -0.635  0.00  0.00    +0.094 C 
BRANCH  22  23
ATOM     23  C   UNL     1       3.710  -1.026   0.306  0.00  0.00    +0.022 C 
BRANCH  23  24
ATOM     24  C   UNL     1       5.237  -1.012   0.200  0.00  0.00    +0.002 C 
ATOM     25  C   UNL     1       5.871  -1.975   1.192  0.00  0.00    +0.000 C 
ENDBRANCH  23  24
ENDBRANCH  22  23
ENDBRANCH   2  22
TORSDOF 9
