REMARK  Name = 16058
REMARK  13 active torsions:
REMARK  status: ('A' for Active; 'I' for Inactive)
REMARK    1  A    between atoms: C_1  and  O_2
REMARK    2  A    between atoms: C_1  and  C_10
REMARK    3  A    between atoms: O_2  and  C_3
REMARK    4  A    between atoms: C_3  and  C_4
REMARK    5  A    between atoms: C_4  and  O_5
REMARK    6  A    between atoms: O_5  and  C_6
REMARK    7  A    between atoms: C_6  and  C_8
REMARK    8  A    between atoms: C_10  and  O_11
REMARK    9  A    between atoms: O_11  and  C_12
REMARK   10  A    between atoms: C_12  and  C_13
REMARK   11  A    between atoms: C_13  and  O_14
REMARK   12  A    between atoms: O_14  and  C_15
REMARK   13  A    between atoms: C_15  and  C_17
REMARK                            x       y       z     vdW  Elec       q    Type
REMARK                         _______ _______ _______ _____ _____    ______ ____
ROOT
ATOM      1  C   UNL     1      -2.761  -2.578  -0.093  0.00  0.00    +0.174 C 
ENDROOT
BRANCH   1   2
ATOM      2  O   UNL     1      -2.631  -1.214   0.281  0.00  0.00    -0.348 OA
BRANCH   2   3
ATOM      3  C   UNL     1      -3.725  -0.437  -0.191  0.00  0.00    +0.174 C 
BRANCH   3   4
ATOM      4  C   UNL     1      -3.530   1.005   0.238  0.00  0.00    +0.174 C 
BRANCH   4   5
ATOM      5  O   UNL     1      -2.305   1.487  -0.299  0.00  0.00    -0.348 OA
BRANCH   5   6
ATOM      6  C   UNL     1      -2.080   2.845   0.054  0.00  0.00    +0.174 C 
BRANCH   6   8
ATOM      7  O   UNL     1       0.339   3.181   0.344  0.00  0.00    -0.348 OA
ATOM      8  C   UNL     1      -0.789   3.304  -0.531  0.00  0.00    +0.174 C 
ATOM      9  C   UNL     1      -0.077   4.511   0.009  0.00  0.00    +0.174 C 
ENDBRANCH   6   8
ENDBRANCH   5   6
ENDBRANCH   4   5
ENDBRANCH   3   4
ENDBRANCH   2   3
ENDBRANCH   1   2
BRANCH   1  10
ATOM     10  C   UNL     1      -1.557  -3.348   0.416  0.00  0.00    +0.174 C 
BRANCH  10  11
ATOM     11  O   UNL     1      -0.380  -2.812  -0.175  0.00  0.00    -0.348 OA
BRANCH  11  12
ATOM     12  C   UNL     1       0.785  -3.483   0.284  0.00  0.00    +0.174 C 
BRANCH  12  13
ATOM     13  C   UNL     1       2.003  -2.869  -0.379  0.00  0.00    +0.174 C 
BRANCH  13  14
ATOM     14  O   UNL     1       2.061  -1.486  -0.054  0.00  0.00    -0.348 OA
BRANCH  14  15
ATOM     15  C   UNL     1       3.199  -0.862  -0.632  0.00  0.00    +0.174 C 
BRANCH  15  17
ATOM     16  O   UNL     1       4.526   1.137  -0.089  0.00  0.00    -0.348 OA
ATOM     17  C   UNL     1       3.217   0.582  -0.264  0.00  0.00    +0.174 C 
ATOM     18  C   UNL     1       3.705   1.035   1.081  0.00  0.00    +0.174 C 
ENDBRANCH  15  17
ENDBRANCH  14  15
ENDBRANCH  13  14
ENDBRANCH  12  13
ENDBRANCH  11  12
ENDBRANCH  10  11
ENDBRANCH   1  10
TORSDOF 13
