REMARK  Name = 2467
REMARK  8 active torsions:
REMARK  status: ('A' for Active; 'I' for Inactive)
REMARK    1  A    between atoms: C_1  and  C_8
REMARK    2  A    between atoms: C_2  and  O_18
REMARK    3  A    between atoms: C_3  and  O_20
REMARK    4  A    between atoms: C_6  and  O_22
REMARK    5  A    between atoms: C_8  and  C_9
REMARK    6  A    between atoms: C_9  and  C_10
REMARK    7  A    between atoms: C_10  and  C_11
REMARK    8  A    between atoms: C_11  and  N_12
REMARK                            x       y       z     vdW  Elec       q    Type
REMARK                         _______ _______ _______ _____ _____    ______ ____
ROOT
ATOM      1  C   UNL     1       1.456   0.442  -0.041  0.00  0.00    +0.103 C 
ATOM      2  C   UNL     1       1.563  -0.932  -0.049  0.00  0.00    +0.147 C 
ATOM      3  C   UNL     1       2.544   1.266   0.155  0.00  0.00    +0.147 C 
ATOM      4  C   UNL     1       2.817  -1.510   0.148  0.00  0.00    +0.074 C 
ATOM      5  C   UNL     1       3.799   0.688   0.352  0.00  0.00    +0.074 C 
ATOM      6  C   UNL     1       3.935  -0.700   0.349  0.00  0.00    +0.145 C 
ENDROOT
BRANCH   1   8
ATOM      7  O   UNL     1      -0.239   1.344  -1.392  0.00  0.00    -0.291 OA
ATOM      8  C   UNL     1       0.115   1.060  -0.251  0.00  0.00    +0.179 C 
BRANCH   8   9
ATOM      9  C   UNL     1      -0.758   1.336   0.965  0.00  0.00    +0.067 C 
BRANCH   9  10
ATOM     10  C   UNL     1      -2.257   1.315   0.653  0.00  0.00    -0.015 C 
BRANCH  10  11
ATOM     11  C   UNL     1      -2.732  -0.060   0.180  0.00  0.00    -0.077 C 
BRANCH  11  12
ATOM     12  N   UNL     1      -4.159  -0.030  -0.105  0.00  0.00    +0.387 N 
ATOM     13  C   UNL     1      -4.662  -1.318  -0.580  0.00  0.00    -0.077 C 
ATOM     14  C   UNL     1      -4.959   0.276   1.081  0.00  0.00    -0.077 C 
ATOM     15  C   UNL     1      -6.169  -1.172  -0.434  0.00  0.00    -0.025 C 
ATOM     16  C   UNL     1      -6.364  -0.121   0.655  0.00  0.00    -0.025 C 
ATOM     17  H   UNL     1      -4.253   0.694  -0.817  0.00  0.00    -0.080 HD
ENDBRANCH  11  12
ENDBRANCH  10  11
ENDBRANCH   9  10
ENDBRANCH   8   9
ENDBRANCH   1   8
BRANCH   2  18
ATOM     18  O   UNL     1       0.484  -1.743  -0.242  0.00  0.00    -0.471 OA
ATOM     19  C   UNL     1       0.180  -2.104  -1.588  0.00  0.00    +0.252 C 
ENDBRANCH   2  18
BRANCH   3  20
ATOM     20  O   UNL     1       2.433   2.624   0.162  0.00  0.00    -0.471 OA
ATOM     21  C   UNL     1       2.589   3.293  -1.088  0.00  0.00    +0.252 C 
ENDBRANCH   3  20
BRANCH   6  22
ATOM     22  O   UNL     1       5.159  -1.264   0.542  0.00  0.00    -0.471 OA
ATOM     23  C   UNL     1       5.226  -2.689   0.526  0.00  0.00    +0.252 C 
ENDBRANCH   6  22
TORSDOF 8
