REMARK  Name = 59239165
REMARK  4 active torsions:
REMARK  status: ('A' for Active; 'I' for Inactive)
REMARK    1  A    between atoms: N_2  and  C_34
REMARK    2  A    between atoms: C_17  and  C_19
REMARK    3  A    between atoms: C_24  and  N_26
REMARK    4  A    between atoms: N_27  and  C_31
REMARK                            x       y       z     vdW  Elec       q    Type
REMARK                         _______ _______ _______ _____ _____    ______ ____
ROOT
ATOM      1  O   UNL     1      -2.301  -5.367  -0.323  0.00  0.00    -0.350 OA
ATOM      2  N   UNL     1      -4.417   1.897  -0.010  0.00  0.00    +0.396 N 
ATOM      3  N   UNL     1      -2.060  -2.574  -0.092  0.00  0.00    -0.283 N 
ATOM      4  N   UNL     1      -0.777   1.347  -0.355  0.00  0.00    -0.350 NA
ATOM      5  N   UNL     1      -0.305  -1.011  -0.195  0.00  0.00    -0.329 NA
ATOM      6  C   UNL     1      -4.903   0.677  -0.669  0.00  0.00    -0.076 C 
ATOM      7  C   UNL     1      -3.057   2.219  -0.476  0.00  0.00    -0.020 C 
ATOM      8  C   UNL     1      -4.058  -0.526  -0.232  0.00  0.00    -0.008 C 
ATOM      9  C   UNL     1      -2.588  -0.241  -0.280  0.00  0.00    +0.112 C 
ATOM     10  C   UNL     1      -2.099   1.060  -0.344  0.00  0.00    +0.086 C 
ATOM     11  C   UNL     1      -1.634  -1.240  -0.195  0.00  0.00    +0.178 C 
ATOM     12  C   UNL     1      -1.549  -3.444   0.988  0.00  0.00    +0.104 C 
ATOM     13  C   UNL     1      -2.221  -3.215  -1.408  0.00  0.00    +0.125 C 
ATOM     14  C   UNL     1      -2.324  -4.772   0.974  0.00  0.00    +0.162 C 
ATOM     15  C   UNL     1      -2.970  -4.529  -1.263  0.00  0.00    +0.164 C 
ATOM     16  C   UNL     1      -1.724  -2.812   2.373  0.00  0.00    +0.024 C 
ATOM     17  C   UNL     1       0.047   0.285  -0.277  0.00  0.00    +0.138 C 
ATOM     18  H   UNL     1      -4.399   1.743   0.998  0.00  0.00    -0.079 HD
ENDROOT
BRANCH  17  19
ATOM     19  C   UNL     1       1.459   0.567  -0.283  0.00  0.00    +0.086 C 
ATOM     20  C   UNL     1       1.943   1.688  -0.958  0.00  0.00    +0.013 C 
ATOM     21  C   UNL     1       2.342  -0.279   0.387  0.00  0.00    +0.013 C 
ATOM     22  C   UNL     1       3.311   1.962  -0.963  0.00  0.00    +0.015 C 
ATOM     23  C   UNL     1       3.710  -0.005   0.382  0.00  0.00    +0.015 C 
ATOM     24  C   UNL     1       4.194   1.115  -0.293  0.00  0.00    +0.052 C 
BRANCH  24  26
ATOM     25  O   UNL     1       6.477  -0.367   0.970  0.00  0.00    -0.252 OA
ATOM     26  N   UNL     1       5.562   1.389  -0.299  0.00  0.00    -0.268 N 
ATOM     27  N   UNL     1       7.842   1.268   0.071  0.00  0.00    -0.289 N 
ATOM     28  C   UNL     1       6.605   0.662   0.311  0.00  0.00    +0.304 C 
ATOM     29  H   UNL     1       5.835   2.195  -0.793  0.00  0.00    +0.156 HD
ATOM     30  H   UNL     1       7.865   2.092  -0.467  0.00  0.00    +0.151 HD
BRANCH  27  31
ATOM     31  C   UNL     1       9.089   0.741   0.576  0.00  0.00    +0.091 C 
ATOM     32  C   UNL     1       9.594  -0.404  -0.278  0.00  0.00    +0.023 C 
ENDBRANCH  27  31
ENDBRANCH  24  26
ENDBRANCH  17  19
BRANCH   2  34
ATOM     33  O   UNL     1      -6.232   3.883   1.394  0.00  0.00    -0.358 OA
ATOM     34  C   UNL     1      -5.316   3.019  -0.330  0.00  0.00    +0.003 C 
ATOM     35  C   UNL     1      -6.610   2.847   0.458  0.00  0.00    +0.124 C 
ATOM     36  C   UNL     1      -5.032   4.162   0.638  0.00  0.00    +0.124 C 
ENDBRANCH   2  34
TORSDOF 4
