REMARK  Name = 92874
REMARK  0 active torsions:
REMARK  status: ('A' for Active; 'I' for Inactive)
REMARK                            x       y       z     vdW  Elec       q    Type
REMARK                         _______ _______ _______ _____ _____    ______ ____
ROOT
ATOM      1  O   UNL     1       1.382  -2.435  -0.202  0.00  0.00    -0.291 OA
ATOM      2  C   UNL     1      -1.298   0.079  -0.292  0.00  0.00    +0.010 C 
ATOM      3  C   UNL     1      -0.378   1.048   0.525  0.00  0.00    +0.019 C 
ATOM      4  C   UNL     1      -0.576  -1.038   0.537  0.00  0.00    +0.062 C 
ATOM      5  C   UNL     1      -0.589   0.023   1.691  0.00  0.00    +0.012 C 
ATOM      6  C   UNL     1       1.046   1.081   0.017  0.00  0.00    -0.041 C 
ATOM      7  C   UNL     1      -1.028   0.046  -1.788  0.00  0.00    +0.001 C 
ATOM      8  C   UNL     1      -2.794   0.203  -0.084  0.00  0.00    +0.001 C 
ATOM      9  C   UNL     1       0.879  -1.335   0.009  0.00  0.00    +0.172 C 
ATOM     10  C   UNL     1       1.665  -0.088  -0.237  0.00  0.00    +0.029 C 
ATOM     11  C   UNL     1       1.691   2.415  -0.177  0.00  0.00    +0.026 C 
ENDROOT
TORSDOF 0
