REMARK  Name = 47608
REMARK  2 active torsions:
REMARK  status: ('A' for Active; 'I' for Inactive)
REMARK    1  A    between atoms: N_5  and  N_21
REMARK    2  A    between atoms: C_11  and  C_15
REMARK                            x       y       z     vdW  Elec       q    Type
REMARK                         _______ _______ _______ _____ _____    ______ ____
ROOT
ATOM      1  O   UNL     1      -2.714   2.419  -0.126  0.00  0.00    -0.270 OA
ATOM      2  N   UNL     1      -0.715   1.317   0.382  0.00  0.00    -0.272 N 
ATOM      3  N   UNL     1       3.384   1.404  -0.538  0.00  0.00    -0.151 NA
ATOM      4  N   UNL     1       4.171   0.298  -0.440  0.00  0.00    -0.132 NA
ATOM      5  N   UNL     1       4.446  -2.007   0.095  0.00  0.00    -0.266 N 
ATOM      6  C   UNL     1       0.043   2.554   0.570  0.00  0.00    +0.100 C 
ATOM      7  C   UNL     1       0.030   0.067   0.610  0.00  0.00    +0.122 C 
ATOM      8  C   UNL     1       1.253   2.578  -0.355  0.00  0.00    +0.069 C 
ATOM      9  C   UNL     1       1.486   0.146   0.235  0.00  0.00    +0.016 C 
ATOM     10  C   UNL     1       2.076   1.330  -0.200  0.00  0.00    +0.080 C 
ATOM     11  C   UNL     1      -2.076   1.385   0.067  0.00  0.00    +0.249 C 
ATOM     12  C   UNL     1       2.298  -0.978   0.335  0.00  0.00    +0.036 C 
ATOM     13  C   UNL     1       3.628  -0.858  -0.011  0.00  0.00    +0.163 C 
ATOM     14  H   UNL     1       5.424  -1.905   0.055  0.00  0.00    +0.168 HD
ENDROOT
BRANCH  11  15
ATOM     15  C   UNL     1      -2.827   0.125  -0.042  0.00  0.00    +0.054 C 
ATOM     16  C   UNL     1      -3.450  -0.410   1.082  0.00  0.00    +0.005 C 
ATOM     17  C   UNL     1      -2.910  -0.525  -1.270  0.00  0.00    +0.005 C 
ATOM     18  C   UNL     1      -4.162  -1.605   0.978  0.00  0.00    +0.000 C 
ATOM     19  C   UNL     1      -3.622  -1.721  -1.374  0.00  0.00    +0.000 C 
ATOM     20  C   UNL     1      -4.248  -2.260  -0.251  0.00  0.00    +0.000 C 
ENDBRANCH  11  15
BRANCH   5  21
ATOM     21  N   UNL     1       3.909  -3.261   0.253  0.00  0.00    -0.255 NA
ATOM     22  H   UNL     1       2.892  -3.195   0.275  0.00  0.00    +0.140 HD
ATOM     23  H   UNL     1       4.243  -3.666   1.128  0.00  0.00    +0.140 HD
ENDBRANCH   5  21
TORSDOF 2
