REMARK  Name = 65050
REMARK  4 active torsions:
REMARK  status: ('A' for Active; 'I' for Inactive)
REMARK    1  A    between atoms: N_3  and  C1*_15
REMARK    2  A    between atoms: C3*_13  and  O3*_17
REMARK    3  A    between atoms: C4*_16  and  C5*_19
REMARK    4  A    between atoms: C5*_19  and  O5*_20
REMARK                            x       y       z     vdW  Elec       q    Type
REMARK                         _______ _______ _______ _____ _____    ______ ____
ROOT
ATOM      1  I   UNL     1      -2.715  -3.010   0.366  0.00  0.00    -0.037 I 
ATOM      2  O   UNL     1      -1.059   2.799  -0.363  0.00  0.00    -0.193 OA
ATOM      3  N   UNL     1      -0.430   0.588  -0.180  0.00  0.00    -0.180 N 
ATOM      4  N   UNL     1      -2.728   1.290  -0.083  0.00  0.00    -0.306 NA
ATOM      5  N   UNL     1      -4.461  -0.208   0.201  0.00  0.00    -0.332 N 
ATOM      6  C   UNL     1      -0.841  -0.725  -0.013  0.00  0.00    +0.089 C 
ATOM      7  C   UNL     1      -1.394   1.622  -0.216  0.00  0.00    +0.275 C 
ATOM      8  C   UNL     1      -2.123  -1.076   0.119  0.00  0.00    +0.090 C 
ATOM      9  C   UNL     1      -3.113   0.048   0.075  0.00  0.00    +0.198 C 
ATOM     10  H   UNL     1      -5.108   0.533   0.171  0.00  0.00    +0.145 HD
ATOM     11  H   UNL     1      -4.777  -1.133   0.320  0.00  0.00    +0.145 HD
ENDROOT
BRANCH   3  15
ATOM     12  O4* UNL     1       1.624  -0.182  -0.995  0.00  0.00    -0.334 OA
ATOM     13  C3* UNL     1       3.054   0.572   0.740  0.00  0.00    +0.144 C 
ATOM     14  C2* UNL     1       1.660   1.083   1.022  0.00  0.00    +0.084 C 
ATOM     15  C1* UNL     1       0.964   0.896  -0.317  0.00  0.00    +0.209 C 
ATOM     16  C4* UNL     1       2.814  -0.544  -0.268  0.00  0.00    +0.173 C 
BRANCH  13  17
ATOM     17  O3* UNL     1       3.833   1.606   0.143  0.00  0.00    -0.382 OA
ATOM     18  H3* UNL     1       3.981   2.314   0.790  0.00  0.00    +0.210 HD
ENDBRANCH  13  17
BRANCH  16  19
ATOM     19  C5* UNL     1       2.569  -1.895   0.391  0.00  0.00    +0.169 C 
BRANCH  19  20
ATOM     20  O5* UNL     1       2.347  -2.864  -0.621  0.00  0.00    -0.379 OA
ATOM     21  H5* UNL     1       2.189  -3.729  -0.211  0.00  0.00    +0.211 HD
ENDBRANCH  19  20
ENDBRANCH  16  19
ENDBRANCH   3  15
TORSDOF 4
