REMARK  Name = 3275
REMARK  10 active torsions:
REMARK  status: ('A' for Active; 'I' for Inactive)
REMARK    1  A    between atoms: C_1  and  C_8
REMARK    2  A    between atoms: C_2  and  O_17
REMARK    3  A    between atoms: C_8  and  C_9
REMARK    4  A    between atoms: C_9  and  C_10
REMARK    5  A    between atoms: C_10  and  C_11
REMARK    6  A    between atoms: O_17  and  C_18
REMARK    7  A    between atoms: C_18  and  C_19
REMARK    8  A    between atoms: C_19  and  N_20
REMARK    9  A    between atoms: N_20  and  C_22
REMARK   10  A    between atoms: N_20  and  C_24
REMARK                            x       y       z     vdW  Elec       q    Type
REMARK                         _______ _______ _______ _____ _____    ______ ____
ROOT
ATOM      1  C   UNL     1       0.263  -2.235  -0.273  0.00  0.00    +0.069 C 
ATOM      2  C   UNL     1       1.657  -2.191  -0.254  0.00  0.00    +0.141 C 
ATOM      3  C   UNL     1      -0.411  -3.270   0.375  0.00  0.00    +0.006 C 
ATOM      4  C   UNL     1       2.377  -3.182   0.413  0.00  0.00    +0.037 C 
ATOM      5  C   UNL     1       0.309  -4.261   1.042  0.00  0.00    +0.000 C 
ATOM      6  C   UNL     1       1.703  -4.217   1.061  0.00  0.00    +0.003 C 
ENDROOT
BRANCH   1   8
ATOM      7  O   UNL     1      -0.041  -0.630  -1.965  0.00  0.00    -0.291 OA
ATOM      8  C   UNL     1      -0.508  -1.211  -0.965  0.00  0.00    +0.176 C 
BRANCH   8   9
ATOM      9  C   UNL     1      -1.913  -0.838  -0.461  0.00  0.00    +0.074 C 
BRANCH   9  10
ATOM     10  C   UNL     1      -2.280   0.626  -0.716  0.00  0.00    +0.034 C 
BRANCH  10  11
ATOM     11  C   UNL     1      -3.657   0.954  -0.201  0.00  0.00    -0.022 C 
ATOM     12  C   UNL     1      -4.767   0.800  -1.032  0.00  0.00    -0.004 C 
ATOM     13  C   UNL     1      -3.823   1.409   1.107  0.00  0.00    -0.004 C 
ATOM     14  C   UNL     1      -6.043   1.103  -0.556  0.00  0.00    -0.000 C 
ATOM     15  C   UNL     1      -5.099   1.712   1.583  0.00  0.00    -0.000 C 
ATOM     16  C   UNL     1      -6.208   1.559   0.752  0.00  0.00    -0.000 C 
ENDBRANCH  10  11
ENDBRANCH   9  10
ENDBRANCH   8   9
ENDBRANCH   1   8
BRANCH   2  17
ATOM     17  O   UNL     1       2.338  -1.184  -0.886  0.00  0.00    -0.478 OA
BRANCH  17  18
ATOM     18  C   UNL     1       3.176  -0.370  -0.076  0.00  0.00    +0.183 C 
BRANCH  18  19
ATOM     19  C   UNL     1       3.254   1.017  -0.693  0.00  0.00    -0.029 C 
BRANCH  19  20
ATOM     20  N   UNL     1       4.095   1.896   0.119  0.00  0.00    +0.389 N 
ATOM     21  H   UNL     1       4.904   1.364   0.439  0.00  0.00    -0.080 HD
BRANCH  20  22
ATOM     22  C   UNL     1       4.571   3.027  -0.678  0.00  0.00    -0.077 C 
ATOM     23  C   UNL     1       3.412   3.882  -1.163  0.00  0.00    -0.025 C 
ENDBRANCH  20  22
BRANCH  20  24
ATOM     24  C   UNL     1       3.358   2.370   1.290  0.00  0.00    -0.077 C 
ATOM     25  C   UNL     1       4.236   3.236   2.177  0.00  0.00    -0.025 C 
ENDBRANCH  20  24
ENDBRANCH  19  20
ENDBRANCH  18  19
ENDBRANCH  17  18
ENDBRANCH   2  17
TORSDOF 10
