REMARK  Name = 4249
REMARK  7 active torsions:
REMARK  status: ('A' for Active; 'I' for Inactive)
REMARK    1  A    between atoms: N_1  and  C_17
REMARK    2  A    between atoms: C_2  and  C_8
REMARK    3  A    between atoms: C_2  and  O_15
REMARK    4  A    between atoms: C_17  and  C_18
REMARK    5  A    between atoms: C_18  and  C_19
REMARK    6  A    between atoms: C_19  and  C_21
REMARK    7  A    between atoms: C_21  and  C_23
REMARK                            x       y       z     vdW  Elec       q    Type
REMARK                         _______ _______ _______ _____ _____    ______ ____
ROOT
ATOM      1  N   UNL     1       0.475  -0.383   0.734  0.00  0.00    +0.387 N 
ATOM      2  C   UNL     1       3.183   0.359  -0.236  0.00  0.00    +0.103 C 
ATOM      3  C   UNL     1       2.464  -0.956  -0.613  0.00  0.00    +0.008 C 
ATOM      4  C   UNL     1       2.575   0.892   1.082  0.00  0.00    +0.008 C 
ATOM      5  C   UNL     1       0.936  -0.835  -0.583  0.00  0.00    -0.075 C 
ATOM      6  C   UNL     1       1.041   0.927   1.071  0.00  0.00    -0.075 C 
ATOM      7  H   UNL     1       0.801  -1.056   1.429  0.00  0.00    -0.080 HD
ENDROOT
BRANCH   2   8
ATOM      8  C   UNL     1       4.704   0.253  -0.120  0.00  0.00    +0.002 C 
ATOM      9  C   UNL     1       5.335  -0.969  -0.350  0.00  0.00    -0.002 C 
ATOM     10  C   UNL     1       5.457   1.377   0.214  0.00  0.00    -0.002 C 
ATOM     11  C   UNL     1       6.723  -1.065  -0.245  0.00  0.00    -0.005 C 
ATOM     12  C   UNL     1       6.844   1.280   0.319  0.00  0.00    -0.005 C 
ATOM     13  C   UNL     1       7.477   0.059   0.089  0.00  0.00    -0.022 C 
ATOM     14  C   UNL     1       8.961  -0.045   0.202  0.00  0.00    +0.031 C 
ENDBRANCH   2   8
BRANCH   2  15
ATOM     15  O   UNL     1       2.945   1.306  -1.289  0.00  0.00    -0.383 OA
ATOM     16  H   UNL     1       1.990   1.419  -1.413  0.00  0.00    +0.211 HD
ENDBRANCH   2  15
BRANCH   1  17
ATOM     17  C   UNL     1      -0.986  -0.338   0.778  0.00  0.00    -0.077 C 
BRANCH  17  18
ATOM     18  C   UNL     1      -1.568  -1.723   0.490  0.00  0.00    -0.015 C 
BRANCH  18  19
ATOM     19  C   UNL     1      -3.099  -1.728   0.521  0.00  0.00    +0.067 C 
BRANCH  19  21
ATOM     20  O   UNL     1      -3.176  -0.629  -1.626  0.00  0.00    -0.291 OA
ATOM     21  C   UNL     1      -3.728  -0.851  -0.551  0.00  0.00    +0.173 C 
BRANCH  21  23
ATOM     22  F   UNL     1      -8.758   1.367   0.426  0.00  0.00    -0.204 F 
ATOM     23  C   UNL     1      -5.072  -0.259  -0.291  0.00  0.00    +0.035 C 
ATOM     24  C   UNL     1      -5.950  -0.944   0.519  0.00  0.00    +0.005 C 
ATOM     25  C   UNL     1      -5.384   0.951  -0.869  0.00  0.00    +0.005 C 
ATOM     26  C   UNL     1      -7.207  -0.389   0.763  0.00  0.00    +0.030 C 
ATOM     27  C   UNL     1      -6.641   1.506  -0.625  0.00  0.00    +0.030 C 
ATOM     28  C   UNL     1      -7.552   0.835   0.192  0.00  0.00    +0.140 C 
ENDBRANCH  21  23
ENDBRANCH  19  21
ENDBRANCH  18  19
ENDBRANCH  17  18
ENDBRANCH   1  17
TORSDOF 7
