122553
  -OEChem-10061700213D

 56 58  0     1  0  0  0  0  0999 V2000
   -3.7728   -0.8139    1.5870 O   0  0  0  0  0  0  0  0  0  0  0  0
    4.4884   -1.2881   -1.5318 O   0  0  0  0  0  0  0  0  0  0  0  0
    1.3458   -1.8302   -0.1499 N   0  0  0  0  0  0  0  0  0  0  0  0
   -1.5103   -1.3841   -0.1059 N   0  0  0  0  0  0  0  0  0  0  0  0
    0.4054   -2.8669   -0.5930 C   0  0  0  0  0  0  0  0  0  0  0  0
    0.7233   -0.9739    0.8672 C   0  0  0  0  0  0  0  0  0  0  0  0
   -0.8883   -2.2398   -1.1238 C   0  0  0  0  0  0  0  0  0  0  0  0
   -0.5699   -0.3467    0.3352 C   0  0  0  0  0  0  0  0  0  0  0  0
    2.5775   -2.4300    0.3596 C   0  0  0  0  0  0  0  0  0  0  0  0
   -2.7429   -0.7853   -0.6139 C   0  0  0  0  0  0  0  0  0  0  0  0
    3.5905   -1.3392    0.7084 C   0  0  0  0  0  0  0  0  0  0  0  0
   -3.4467    0.0263    0.4806 C   0  0  1  0  0  0  0  0  0  0  0  0
    3.9619   -0.4575   -0.4950 C   0  0  1  0  0  0  0  0  0  0  0  0
   -4.7254    0.6533   -0.0299 C   0  0  0  0  0  0  0  0  0  0  0  0
    4.9888    0.6062   -0.1832 C   0  0  0  0  0  0  0  0  0  0  0  0
   -4.6807    1.9174   -0.5922 C   0  0  0  0  0  0  0  0  0  0  0  0
   -5.9127   -0.0506    0.0757 C   0  0  0  0  0  0  0  0  0  0  0  0
    4.5644    1.8525    0.2478 C   0  0  0  0  0  0  0  0  0  0  0  0
    6.3346    0.3144   -0.3337 C   0  0  0  0  0  0  0  0  0  0  0  0
   -4.3808   -0.0747    2.6348 C   0  0  0  0  0  0  0  0  0  0  0  0
   -5.8595    2.4955   -1.0633 C   0  0  0  0  0  0  0  0  0  0  0  0
   -7.0914    0.5275   -0.3955 C   0  0  0  0  0  0  0  0  0  0  0  0
   -7.0648    1.8006   -0.9649 C   0  0  0  0  0  0  0  0  0  0  0  0
    5.5122    2.8345    0.5359 C   0  0  0  0  0  0  0  0  0  0  0  0
    7.2823    1.2964   -0.0455 C   0  0  0  0  0  0  0  0  0  0  0  0
    6.8711    2.5565    0.3892 C   0  0  0  0  0  0  0  0  0  0  0  0
    0.1707   -3.5590    0.2271 H   0  0  0  0  0  0  0  0  0  0  0  0
    0.8572   -3.4571   -1.3995 H   0  0  0  0  0  0  0  0  0  0  0  0
    1.3680   -0.1330    1.1394 H   0  0  0  0  0  0  0  0  0  0  0  0
    0.5114   -1.5408    1.7840 H   0  0  0  0  0  0  0  0  0  0  0  0
   -0.6736   -1.6691   -2.0376 H   0  0  0  0  0  0  0  0  0  0  0  0
   -1.5749   -3.0498   -1.3985 H   0  0  0  0  0  0  0  0  0  0  0  0
   -0.9674    0.2360    1.1705 H   0  0  0  0  0  0  0  0  0  0  0  0
   -0.3384    0.3510   -0.4810 H   0  0  0  0  0  0  0  0  0  0  0  0
    2.3816   -3.0382    1.2525 H   0  0  0  0  0  0  0  0  0  0  0  0
    3.0096   -3.1059   -0.3879 H   0  0  0  0  0  0  0  0  0  0  0  0
   -2.5464   -0.1552   -1.4917 H   0  0  0  0  0  0  0  0  0  0  0  0
   -3.4142   -1.5921   -0.9374 H   0  0  0  0  0  0  0  0  0  0  0  0
    3.2780   -0.7315    1.5642 H   0  0  0  0  0  0  0  0  0  0  0  0
    4.4990   -1.8569    1.0486 H   0  0  0  0  0  0  0  0  0  0  0  0
   -2.8143    0.8461    0.8383 H   0  0  0  0  0  0  0  0  0  0  0  0
    3.0760    0.0390   -0.9093 H   0  0  0  0  0  0  0  0  0  0  0  0
   -3.7465    2.4653   -0.6757 H   0  0  0  0  0  0  0  0  0  0  0  0
   -5.9601   -1.0590    0.4767 H   0  0  0  0  0  0  0  0  0  0  0  0
    3.7410   -1.7456   -1.9526 H   0  0  0  0  0  0  0  0  0  0  0  0
    3.5084    2.0769    0.3675 H   0  0  0  0  0  0  0  0  0  0  0  0
    6.6824   -0.6628   -0.6551 H   0  0  0  0  0  0  0  0  0  0  0  0
   -3.9029    0.8991    2.7887 H   0  0  0  0  0  0  0  0  0  0  0  0
   -4.2373   -0.6498    3.5557 H   0  0  0  0  0  0  0  0  0  0  0  0
   -5.4600    0.0415    2.5185 H   0  0  0  0  0  0  0  0  0  0  0  0
   -5.8386    3.4862   -1.5078 H   0  0  0  0  0  0  0  0  0  0  0  0
   -8.0287   -0.0171   -0.3276 H   0  0  0  0  0  0  0  0  0  0  0  0
   -7.9823    2.2497   -1.3338 H   0  0  0  0  0  0  0  0  0  0  0  0
    5.1922    3.8152    0.8754 H   0  0  0  0  0  0  0  0  0  0  0  0
    8.3407    1.0791   -0.1558 H   0  0  0  0  0  0  0  0  0  0  0  0
    7.6091    3.3207    0.6147 H   0  0  0  0  0  0  0  0  0  0  0  0
  1 12  1  0  0  0  0
  1 20  1  0  0  0  0
  2 13  1  0  0  0  0
  2 45  1  0  0  0  0
  3  5  1  0  0  0  0
  3  6  1  0  0  0  0
  3  9  1  0  0  0  0
  4  7  1  0  0  0  0
  4  8  1  0  0  0  0
  4 10  1  0  0  0  0
  5  7  1  0  0  0  0
  5 27  1  0  0  0  0
  5 28  1  0  0  0  0
  6  8  1  0  0  0  0
  6 29  1  0  0  0  0
  6 30  1  0  0  0  0
  7 31  1  0  0  0  0
  7 32  1  0  0  0  0
  8 33  1  0  0  0  0
  8 34  1  0  0  0  0
  9 11  1  0  0  0  0
  9 35  1  0  0  0  0
  9 36  1  0  0  0  0
 10 12  1  0  0  0  0
 10 37  1  0  0  0  0
 10 38  1  0  0  0  0
 11 13  1  0  0  0  0
 11 39  1  0  0  0  0
 11 40  1  0  0  0  0
 12 14  1  0  0  0  0
 12 41  1  0  0  0  0
 13 15  1  0  0  0  0
 13 42  1  0  0  0  0
 14 16  2  0  0  0  0
 14 17  1  0  0  0  0
 15 18  2  0  0  0  0
 15 19  1  0  0  0  0
 16 21  1  0  0  0  0
 16 43  1  0  0  0  0
 17 22  2  0  0  0  0
 17 44  1  0  0  0  0
 18 24  1  0  0  0  0
 18 46  1  0  0  0  0
 19 25  2  0  0  0  0
 19 47  1  0  0  0  0
 20 48  1  0  0  0  0
 20 49  1  0  0  0  0
 20 50  1  0  0  0  0
 21 23  2  0  0  0  0
 21 51  1  0  0  0  0
 22 23  1  0  0  0  0
 22 52  1  0  0  0  0
 23 53  1  0  0  0  0
 24 26  2  0  0  0  0
 24 54  1  0  0  0  0
 25 26  1  0  0  0  0
 25 55  1  0  0  0  0
 26 56  1  0  0  0  0
M  END
> <DATABASE_ID>
DB13395

> <DATABASE_NAME>
drugbank

> <ORIGINAL_SOURCE>
PUBCHEM

> <ORIGINAL_SOURCE_URL>
https://pubchem.ncbi.nlm.nih.gov/rest/pug/compound/inchikey/QSRHLIUOSXVKTG-UHFFFAOYSA-N/SDF?record_type=3d

> <SMILES>
COC(CN1CCN(CCC(O)C2=CC=CC=C2)CC1)C1=CC=CC=C1

> <INCHI_IDENTIFIER>
InChI=1S/C22H30N2O2/c1-26-22(20-10-6-3-7-11-20)18-24-16-14-23(15-17-24)13-12-21(25)19-8-4-2-5-9-19/h2-11,21-22,25H,12-18H2,1H3

> <INCHI_KEY>
QSRHLIUOSXVKTG-UHFFFAOYSA-N

> <FORMULA>
C22H30N2O2

> <MOLECULAR_WEIGHT>
354.494

> <EXACT_MASS>
354.230728214

> <JCHEM_ACCEPTOR_COUNT>
4

> <JCHEM_ATOM_COUNT>
56

> <JCHEM_AVERAGE_POLARIZABILITY>
41.938528159466

> <JCHEM_BIOAVAILABILITY>
1

> <JCHEM_DONOR_COUNT>
1

> <JCHEM_FORMAL_CHARGE>
0

> <JCHEM_GHOSE_FILTER>
1

> <JCHEM_IUPAC>
3-[4-(2-methoxy-2-phenylethyl)piperazin-1-yl]-1-phenylpropan-1-ol

> <ALOGPS_LOGP>
2.94

> <JCHEM_LOGP>
2.9286516379999994

> <ALOGPS_LOGS>
-3.31

> <JCHEM_MDDR_LIKE_RULE>
1

> <JCHEM_NUMBER_OF_RINGS>
3

> <JCHEM_PHYSIOLOGICAL_CHARGE>
1

> <JCHEM_PKA_STRONGEST_ACIDIC>
14.443494050149575

> <JCHEM_PKA_STRONGEST_BASIC>
7.891905658746726

> <JCHEM_POLAR_SURFACE_AREA>
35.94

> <JCHEM_REFRACTIVITY>
106.80500000000004

> <JCHEM_ROTATABLE_BOND_COUNT>
8

> <JCHEM_RULE_OF_FIVE>
1

> <ALOGPS_SOLUBILITY>
1.74e-01 g/l

> <JCHEM_TRADITIONAL_IUPAC>
eprozinol

> <JCHEM_VEBER_RULE>
1

> <DRUGBANK_ID>
DB13395

> <DRUG_GROUPS>
experimental

> <GENERIC_NAME>
Eprozinol

$$$$
