REMARK  Name = 2904
REMARK  4 active torsions:
REMARK  status: ('A' for Active; 'I' for Inactive)
REMARK    1  A    between atoms: C_7  and  C_22
REMARK    2  A    between atoms: C_12  and  S_16
REMARK    3  A    between atoms: S_16  and  N_19
REMARK    4  A    between atoms: C_22  and  C_23
REMARK                            x       y       z     vdW  Elec       q    Type
REMARK                         _______ _______ _______ _____ _____    ______ ____
ROOT
ATOM      1 CL   UNL     1      -4.132   2.674  -0.141  0.00  0.00    -0.081 Cl
ATOM      2  S   UNL     1       0.359  -1.679   0.152  0.00  0.00    +0.063 S 
ATOM      3  O   UNL     1       0.572  -2.162  -1.198  0.00  0.00    -0.153 OA
ATOM      4  O   UNL     1      -0.001  -2.573   1.234  0.00  0.00    -0.153 OA
ATOM      5  N   UNL     1       1.703  -0.747   0.648  0.00  0.00    -0.163 NA
ATOM      6  N   UNL     1       0.783   1.385  -0.073  0.00  0.00    -0.320 N 
ATOM      7  C   UNL     1       1.924   0.491  -0.135  0.00  0.00    +0.147 C 
ATOM      8  C   UNL     1      -0.525   0.922  -0.062  0.00  0.00    +0.065 C 
ATOM      9  C   UNL     1      -0.884  -0.430   0.042  0.00  0.00    +0.136 C 
ATOM     10  C   UNL     1      -2.217  -0.847   0.085  0.00  0.00    +0.042 C 
ATOM     11  C   UNL     1      -1.574   1.856  -0.108  0.00  0.00    +0.028 C 
ATOM     12  C   UNL     1      -3.233   0.102   0.025  0.00  0.00    +0.134 C 
ATOM     13  C   UNL     1      -2.912   1.453  -0.070  0.00  0.00    +0.078 C 
ATOM     14  H   UNL     1       2.538  -1.327   0.567  0.00  0.00    +0.151 HD
ATOM     15  H   UNL     1       0.943   2.356  -0.037  0.00  0.00    +0.148 HD
ENDROOT
BRANCH  12  16
ATOM     16  S   UNL     1      -4.891  -0.461   0.076  0.00  0.00    +0.058 S 
ATOM     17  O   UNL     1      -4.910  -1.757   0.736  0.00  0.00    -0.153 OA
ATOM     18  O   UNL     1      -5.726   0.621   0.572  0.00  0.00    -0.153 OA
BRANCH  16  19
ATOM     19  N   UNL     1      -5.205  -0.681  -1.588  0.00  0.00    -0.203 NA
ATOM     20  H   UNL     1      -6.160  -1.016  -1.713  0.00  0.00    +0.144 HD
ATOM     21  H   UNL     1      -4.552  -1.366  -1.970  0.00  0.00    +0.144 HD
ENDBRANCH  16  19
ENDBRANCH  12  16
BRANCH   7  22
ATOM     22  C   UNL     1       3.156   1.199   0.415  0.00  0.00    +0.038 C 
BRANCH  22  23
ATOM     23  C   UNL     1       4.382   0.303   0.361  0.00  0.00    +0.003 C 
ATOM     24  C   UNL     1       4.721  -0.167  -1.050  0.00  0.00    +0.000 C 
ATOM     25  C   UNL     1       5.664   1.012   0.785  0.00  0.00    +0.000 C 
ATOM     26  C   UNL     1       6.171  -0.631  -0.948  0.00  0.00    +0.000 C 
ATOM     27  C   UNL     1       6.774   0.119   0.241  0.00  0.00    +0.000 C 
ENDBRANCH  22  23
ENDBRANCH   7  22
TORSDOF 4
