REMARK  Name = 28329
REMARK  5 active torsions:
REMARK  status: ('A' for Active; 'I' for Inactive)
REMARK    1  A    between atoms: N_3  and  C_14
REMARK    2  A    between atoms: C_14  and  C_15
REMARK    3  A    between atoms: C_15  and  N_16
REMARK    4  A    between atoms: N_16  and  C_18
REMARK    5  A    between atoms: N_16  and  C_20
REMARK                            x       y       z     vdW  Elec       q    Type
REMARK                         _______ _______ _______ _____ _____    ______ ____
ROOT
ATOM      1  O   UNL     1      -0.046   1.935   0.303  0.00  0.00    -0.272 OA
ATOM      2  O   UNL     1      -4.557   1.093  -0.675  0.00  0.00    -0.252 OA
ATOM      3  N   UNL     1       0.196  -1.022   0.686  0.00  0.00    -0.242 NA
ATOM      4  N   UNL     1      -3.192  -0.717  -0.152  0.00  0.00    -0.228 N 
ATOM      5  N   UNL     1      -2.309   1.538  -0.190  0.00  0.00    -0.211 N 
ATOM      6  N   UNL     1      -1.519  -2.424   0.433  0.00  0.00    -0.240 NA
ATOM      7  C   UNL     1      -0.880  -0.253   0.345  0.00  0.00    +0.192 C 
ATOM      8  C   UNL     1      -1.915  -1.135   0.197  0.00  0.00    +0.136 C 
ATOM      9  C   UNL     1      -0.239  -2.321   0.726  0.00  0.00    +0.203 C 
ATOM     10  C   UNL     1      -0.988   1.159   0.165  0.00  0.00    +0.254 C 
ATOM     11  C   UNL     1      -3.441   0.662  -0.363  0.00  0.00    +0.318 C 
ATOM     12  C   UNL     1      -4.262  -1.695  -0.298  0.00  0.00    +0.123 C 
ATOM     13  C   UNL     1      -2.546   2.963  -0.402  0.00  0.00    +0.124 C 
ENDROOT
BRANCH   3  14
ATOM     14  C   UNL     1       1.542  -0.578   0.958  0.00  0.00    +0.052 C 
BRANCH  14  15
ATOM     15  C   UNL     1       2.400  -0.554  -0.304  0.00  0.00    -0.060 C 
BRANCH  15  16
ATOM     16  N   UNL     1       3.741  -0.078   0.009  0.00  0.00    +0.388 N 
ATOM     17  H   UNL     1       4.144  -0.700   0.710  0.00  0.00    -0.080 HD
BRANCH  16  18
ATOM     18  C   UNL     1       3.691   1.277   0.563  0.00  0.00    -0.077 C 
ATOM     19  C   UNL     1       5.076   1.761   0.957  0.00  0.00    -0.025 C 
ENDBRANCH  16  18
BRANCH  16  20
ATOM     20  C   UNL     1       4.591  -0.106  -1.183  0.00  0.00    -0.077 C 
ATOM     21  C   UNL     1       4.658  -1.504  -1.776  0.00  0.00    -0.025 C 
ENDBRANCH  16  20
ENDBRANCH  15  16
ENDBRANCH  14  15
ENDBRANCH   3  14
TORSDOF 5
