REMARK  Name = 65787
REMARK  12 active torsions:
REMARK  status: ('A' for Active; 'I' for Inactive)
REMARK    1  A    between atoms: C_1  and  S_2
REMARK    2  A    between atoms: C_1  and  S_8
REMARK    3  A    between atoms: C_1  and  S_14
REMARK    4  A    between atoms: S_2  and  C_3
REMARK    5  A    between atoms: C_3  and  C_5
REMARK    6  A    between atoms: C_5  and  O_6
REMARK    7  A    between atoms: S_8  and  C_9
REMARK    8  A    between atoms: C_9  and  C_11
REMARK    9  A    between atoms: C_11  and  O_12
REMARK   10  A    between atoms: S_14  and  C_15
REMARK   11  A    between atoms: C_15  and  C_17
REMARK   12  A    between atoms: C_17  and  O_18
REMARK                            x       y       z     vdW  Elec       q    Type
REMARK                         _______ _______ _______ _____ _____    ______ ____
ROOT
ATOM      1  C   UNL     1       0.000   0.000  -0.224  0.00  0.00    +0.144 C 
ENDROOT
BRANCH   1   2
ATOM      2  S   UNL     1      -1.504  -0.861   0.376  0.00  0.00    -0.108 S 
BRANCH   2   3
ATOM      3  C   UNL     1      -2.770   0.197  -0.370  0.00  0.00    +0.168 C 
BRANCH   3   5
ATOM      4  O   UNL     1      -4.382  -0.923   1.029  0.00  0.00    -0.249 OA
ATOM      5  C   UNL     1      -4.132  -0.324  -0.009  0.00  0.00    +0.325 C 
BRANCH   5   6
ATOM      6  O   UNL     1      -5.067  -0.045  -0.952  0.00  0.00    -0.480 OA
ATOM      7  H   UNL     1      -4.824   0.417  -1.730  0.00  0.00    +0.295 HD
ENDBRANCH   5   6
ENDBRANCH   3   5
ENDBRANCH   2   3
ENDBRANCH   1   2
BRANCH   1   8
ATOM      8  S   UNL     1       1.497  -0.872   0.376  0.00  0.00    -0.108 S 
BRANCH   8   9
ATOM      9  C   UNL     1       1.215  -2.497  -0.370  0.00  0.00    +0.168 C 
BRANCH   9  11
ATOM     10  O   UNL     1       2.990  -3.333   1.029  0.00  0.00    -0.249 OA
ATOM     11  C   UNL     1       2.346  -3.416  -0.009  0.00  0.00    +0.325 C 
BRANCH  11  12
ATOM     12  O   UNL     1       2.573  -4.364  -0.952  0.00  0.00    -0.480 OA
ATOM     13  H   UNL     1       2.052  -4.385  -1.730  0.00  0.00    +0.295 HD
ENDBRANCH  11  12
ENDBRANCH   9  11
ENDBRANCH   8   9
ENDBRANCH   1   8
BRANCH   1  14
ATOM     14  S   UNL     1       0.006   1.733   0.377  0.00  0.00    -0.108 S 
BRANCH  14  15
ATOM     15  C   UNL     1       1.555   2.300  -0.370  0.00  0.00    +0.168 C 
BRANCH  15  17
ATOM     16  O   UNL     1       1.392   4.256   1.029  0.00  0.00    -0.249 OA
ATOM     17  C   UNL     1       1.786   3.739  -0.009  0.00  0.00    +0.325 C 
BRANCH  17  18
ATOM     18  O   UNL     1       2.494   4.410  -0.952  0.00  0.00    -0.480 OA
ATOM     19  H   UNL     1       2.773   3.968  -1.731  0.00  0.00    +0.295 HD
ENDBRANCH  17  18
ENDBRANCH  15  17
ENDBRANCH  14  15
ENDBRANCH   1  14
TORSDOF 12
