REMARK  Name = 219105
REMARK  4 active torsions:
REMARK  status: ('A' for Active; 'I' for Inactive)
REMARK    1  A    between atoms: C_1  and  C_9
REMARK    2  A    between atoms: C_4  and  O_7
REMARK    3  A    between atoms: C_9  and  C_10
REMARK    4  A    between atoms: C_10  and  N_12
REMARK                            x       y       z     vdW  Elec       q    Type
REMARK                         _______ _______ _______ _____ _____    ______ ____
ROOT
ATOM      1  C   UNL     1      -0.090  -0.418   0.399  0.00  0.00    -0.021 C 
ATOM      2  C   UNL     1       0.669   0.739   0.477  0.00  0.00    +0.032 C 
ATOM      3  C   UNL     1       0.455  -1.607  -0.059  0.00  0.00    -0.004 C 
ATOM      4  C   UNL     1       2.007   0.706   0.087  0.00  0.00    +0.133 C 
ATOM      5  C   UNL     1       1.794  -1.640  -0.449  0.00  0.00    +0.003 C 
ATOM      6  C   UNL     1       2.570  -0.483  -0.376  0.00  0.00    +0.037 C 
ENDROOT
BRANCH   4   7
ATOM      7  O   UNL     1       2.765   1.834   0.158  0.00  0.00    -0.506 OA
ATOM      8  H   UNL     1       2.387   2.633   0.469  0.00  0.00    +0.292 HD
ENDBRANCH   4   7
BRANCH   1   9
ATOM      9  C   UNL     1      -1.539  -0.383   0.822  0.00  0.00    +0.005 C 
BRANCH   9  10
ATOM     10  C   UNL     1      -2.507  -0.033  -0.323  0.00  0.00    -0.061 C 
ATOM     11  C   UNL     1      -2.240   1.351  -0.913  0.00  0.00    -0.024 C 
BRANCH  10  12
ATOM     12  N   UNL     1      -3.885  -0.064   0.176  0.00  0.00    +0.382 N 
ATOM     13  H   UNL     1      -4.082  -0.982   0.575  0.00  0.00    -0.089 HD
ATOM     14  H   UNL     1      -4.529   0.118  -0.593  0.00  0.00    -0.089 HD
ATOM     15  H   UNL     1      -4.003   0.651   0.894  0.00  0.00    -0.089 HD
ENDBRANCH  10  12
ENDBRANCH   9  10
ENDBRANCH   1   9
TORSDOF 4
