REMARK  Name = 437740
REMARK  5 active torsions:
REMARK  status: ('A' for Active; 'I' for Inactive)
REMARK    1  A    between atoms: S_1  and  C_4
REMARK    2  A    between atoms: S_1  and  C_8
REMARK    3  A    between atoms: C_8  and  C_9
REMARK    4  A    between atoms: C_9  and  C_10
REMARK    5  A    between atoms: C_10  and  C_12
REMARK                            x       y       z     vdW  Elec       q    Type
REMARK                         _______ _______ _______ _____ _____    ______ ____
ROOT
ATOM      1  S   UNL     1       1.502   0.756  -0.654  0.00  0.00    -0.081 S 
ENDROOT
BRANCH   1   4
ATOM      2  N   UNL     1       3.789   0.823   0.654  0.00  0.00    -0.338 N 
ATOM      3  N   UNL     1       3.209  -1.258  -0.299  0.00  0.00    -0.280 NA
ATOM      4  C   UNL     1       2.972  -0.009  -0.058  0.00  0.00    +0.144 C 
ATOM      5  H   UNL     1       3.534   1.764   0.793  0.00  0.00    +0.144 HD
ATOM      6  H   UNL     1       4.634   0.482   1.029  0.00  0.00    +0.144 HD
ATOM      7  H   UNL     1       2.566  -1.790  -0.822  0.00  0.00    +0.189 HD
ENDBRANCH   1   4
BRANCH   1   8
ATOM      8  C   UNL     1       0.217  -0.244   0.151  0.00  0.00    +0.066 C 
BRANCH   8   9
ATOM      9  C   UNL     1      -1.173   0.278  -0.203  0.00  0.00    +0.028 C 
BRANCH   9  10
ATOM     10  C   UNL     1      -2.259  -0.557   0.478  0.00  0.00    +0.106 C 
BRANCH  10  12
ATOM     11  N   UNL     1      -4.659   0.293  -0.180  0.00  0.00    -0.196 NA
ATOM     12  C   UNL     1      -3.599  -0.082   0.110  0.00  0.00    +0.073 C 
ENDBRANCH  10  12
ENDBRANCH   9  10
ENDBRANCH   8   9
ENDBRANCH   1   8
TORSDOF 5
