REMARK  Name = 23403
REMARK  16 active torsions:
REMARK  status: ('A' for Active; 'I' for Inactive)
REMARK    1  A    between atoms: C_1  and  C_2
REMARK    2  A    between atoms: C_1  and  C_12
REMARK    3  A    between atoms: C_2  and  C_3
REMARK    4  A    between atoms: C_3  and  C_4
REMARK    5  A    between atoms: C_5  and  C_6
REMARK    6  A    between atoms: C_6  and  S_7
REMARK    7  A    between atoms: S_7  and  C_8
REMARK    8  A    between atoms: C_8  and  C_9
REMARK    9  A    between atoms: C_9  and  O_10
REMARK   10  A    between atoms: C_12  and  C_13
REMARK   11  A    between atoms: C_13  and  C_14
REMARK   12  A    between atoms: C_14  and  C_15
REMARK   13  A    between atoms: C_15  and  S_16
REMARK   14  A    between atoms: S_16  and  C_17
REMARK   15  A    between atoms: C_17  and  C_18
REMARK   16  A    between atoms: C_18  and  O_19
REMARK                            x       y       z     vdW  Elec       q    Type
REMARK                         _______ _______ _______ _____ _____    ______ ____
ROOT
ATOM      1  C   UNL     1      -0.305  -0.859   0.769  0.00  0.00    +0.000 C 
ENDROOT
BRANCH   1   2
ATOM      2  C   UNL     1       0.884  -0.713  -0.184  0.00  0.00    +0.005 C 
BRANCH   2   3
ATOM      3  C   UNL     1       2.145  -1.352   0.402  0.00  0.00    +0.026 C 
BRANCH   3   4
ATOM      4  C   UNL     1       3.389  -1.156  -0.470  0.00  0.00    -0.030 C 
ATOM      5  C   UNL     1       4.694  -1.738   0.088  0.00  0.00    -0.019 C 
BRANCH   5   6
ATOM      6  C   UNL     1       5.930  -1.597  -0.800  0.00  0.00    +0.083 C 
BRANCH   6   7
ATOM      7  S   UNL     1       6.306   0.127  -1.232  0.00  0.00    -0.133 S 
BRANCH   7   8
ATOM      8  C   UNL     1       7.129   0.608   0.303  0.00  0.00    +0.090 C 
BRANCH   8   9
ATOM      9  C   UNL     1       7.584   2.058   0.259  0.00  0.00    +0.149 C 
BRANCH   9  10
ATOM     10  O   UNL     1       6.465   2.914   0.063  0.00  0.00    -0.381 OA
ATOM     11  H   UNL     1       6.765   3.836   0.036  0.00  0.00    +0.210 HD
ENDBRANCH   9  10
ENDBRANCH   8   9
ENDBRANCH   7   8
ENDBRANCH   6   7
ENDBRANCH   5   6
ENDBRANCH   3   4
ENDBRANCH   2   3
ENDBRANCH   1   2
BRANCH   1  12
ATOM     12  C   UNL     1      -1.574  -0.249   0.172  0.00  0.00    +0.000 C 
BRANCH  12  13
ATOM     13  C   UNL     1      -2.756  -0.365   1.138  0.00  0.00    +0.001 C 
BRANCH  13  14
ATOM     14  C   UNL     1      -4.013   0.288   0.556  0.00  0.00    +0.012 C 
BRANCH  14  15
ATOM     15  C   UNL     1      -5.229   0.207   1.478  0.00  0.00    +0.058 C 
BRANCH  15  16
ATOM     16  S   UNL     1      -6.705   0.994   0.769  0.00  0.00    -0.138 S 
BRANCH  16  17
ATOM     17  C   UNL     1      -7.216  -0.349  -0.328  0.00  0.00    +0.089 C 
BRANCH  17  18
ATOM     18  C   UNL     1      -8.477   0.012  -1.097  0.00  0.00    +0.149 C 
BRANCH  18  19
ATOM     19  O   UNL     1      -8.251   1.173  -1.886  0.00  0.00    -0.381 OA
ATOM     20  H   UNL     1      -9.060   1.395  -2.373  0.00  0.00    +0.210 HD
ENDBRANCH  18  19
ENDBRANCH  17  18
ENDBRANCH  16  17
ENDBRANCH  15  16
ENDBRANCH  14  15
ENDBRANCH  13  14
ENDBRANCH  12  13
ENDBRANCH   1  12
TORSDOF 16
