REMARK  Name = 3283
REMARK  2 active torsions:
REMARK  status: ('A' for Active; 'I' for Inactive)
REMARK    1  A    between atoms: O_1  and  C_2
REMARK    2  A    between atoms: O_1  and  C_4
REMARK                            x       y       z     vdW  Elec       q    Type
REMARK                         _______ _______ _______ _____ _____    ______ ____
ROOT
ATOM      1  O   UNL     1       0.001  -0.276   0.000  0.00  0.00    -0.354 OA
ENDROOT
BRANCH   1   2
ATOM      2  C   UNL     1       1.175   0.522   0.000  0.00  0.00    +0.142 C 
ATOM      3  C   UNL     1       2.387  -0.384   0.000  0.00  0.00    +0.035 C 
ENDBRANCH   1   2
BRANCH   1   4
ATOM      4  C   UNL     1      -1.175   0.523   0.000  0.00  0.00    +0.142 C 
ATOM      5  C   UNL     1      -2.387  -0.384   0.000  0.00  0.00    +0.035 C 
ENDBRANCH   1   4
TORSDOF 2
