REMARK  Name = 7186
REMARK  5 active torsions:
REMARK  status: ('A' for Active; 'I' for Inactive)
REMARK    1  A    between atoms: C_1  and  C_2
REMARK    2  A    between atoms: C_1  and  O_8
REMARK    3  A    between atoms: C_1  and  C_10
REMARK    4  A    between atoms: C_10  and  O_11
REMARK    5  A    between atoms: O_11  and  C_14
REMARK                            x       y       z     vdW  Elec       q    Type
REMARK                         _______ _______ _______ _____ _____    ______ ____
ROOT
ATOM      1  C   UNL     1       0.086   1.681  -0.553  0.00  0.00    +0.177 C 
ENDROOT
BRANCH   1   2
ATOM      2  C   UNL     1      -0.871   0.567  -0.289  0.00  0.00    +0.008 C 
ATOM      3  C   UNL     1      -1.007  -0.469  -1.212  0.00  0.00    -0.002 C 
ATOM      4  C   UNL     1      -1.628   0.562   0.883  0.00  0.00    -0.002 C 
ATOM      5  C   UNL     1      -1.901  -1.510  -0.965  0.00  0.00    -0.000 C 
ATOM      6  C   UNL     1      -2.522  -0.480   1.130  0.00  0.00    -0.000 C 
ATOM      7  C   UNL     1      -2.659  -1.516   0.206  0.00  0.00    -0.000 C 
ENDBRANCH   1   2
BRANCH   1   8
ATOM      8  O   UNL     1      -0.409   2.889   0.038  0.00  0.00    -0.376 OA
ATOM      9  H   UNL     1      -1.301   3.072  -0.298  0.00  0.00    +0.211 HD
ENDBRANCH   1   8
BRANCH   1  10
ATOM     10  C   UNL     1       1.496   1.415  -0.004  0.00  0.00    +0.244 C 
BRANCH  10  11
ATOM     11  O   UNL     1       2.020   0.232  -0.592  0.00  0.00    -0.432 OA
BRANCH  11  14
ATOM     12  O   UNL     1       2.214  -0.727   1.492  0.00  0.00    -0.227 OA
ATOM     13  N   UNL     1       2.838  -1.864  -0.407  0.00  0.00    -0.295 N 
ATOM     14  C   UNL     1       2.344  -0.778   0.274  0.00  0.00    +0.399 C 
ATOM     15  H   UNL     1       2.916  -1.836  -1.388  0.00  0.00    +0.148 HD
ATOM     16  H   UNL     1       3.115  -2.670   0.087  0.00  0.00    +0.148 HD
ENDBRANCH  11  14
ENDBRANCH  10  11
ENDBRANCH   1  10
TORSDOF 5
