REMARK  Name = 71195
REMARK  6 active torsions:
REMARK  status: ('A' for Active; 'I' for Inactive)
REMARK    1  A    between atoms: C_2  and  O_15
REMARK    2  A    between atoms: C_2  and  C_19
REMARK    3  A    between atoms: C_11  and  O_17
REMARK    4  A    between atoms: C_19  and  C_20
REMARK    5  A    between atoms: C_20  and  C_21
REMARK    6  A    between atoms: C_21  and  N_22
REMARK                            x       y       z     vdW  Elec       q    Type
REMARK                         _______ _______ _______ _____ _____    ______ ____
ROOT
ATOM      1  S   UNL     1       0.609   2.244   1.729  0.00  0.00    -0.087 S 
ATOM      2  C   UNL     1      -0.286   0.138  -0.492  0.00  0.00    +0.127 C 
ATOM      3  C   UNL     1       1.189   0.204  -0.096  0.00  0.00    +0.015 C 
ATOM      4  C   UNL     1      -1.048   1.460  -0.385  0.00  0.00    +0.012 C 
ATOM      5  C   UNL     1       1.668   1.097   0.877  0.00  0.00    +0.028 C 
ATOM      6  C   UNL     1      -0.723   2.440   0.568  0.00  0.00    +0.028 C 
ATOM      7  C   UNL     1       2.108  -0.702  -0.668  0.00  0.00    +0.036 C 
ATOM      8  C   UNL     1      -2.161   1.695  -1.220  0.00  0.00    -0.001 C 
ATOM      9  C   UNL     1       3.027   1.092   1.234  0.00  0.00    +0.009 C 
ATOM     10  C   UNL     1      -1.479   3.621   0.652  0.00  0.00    +0.006 C 
ATOM     11  C   UNL     1       3.457  -0.699  -0.311  0.00  0.00    +0.139 C 
ATOM     12  C   UNL     1      -2.904   2.873  -1.133  0.00  0.00    -0.000 C 
ATOM     13  C   UNL     1       3.917   0.202   0.638  0.00  0.00    +0.037 C 
ATOM     14  C   UNL     1      -2.560   3.839  -0.198  0.00  0.00    +0.000 C 
ENDROOT
BRANCH   2  15
ATOM     15  O   UNL     1      -0.325  -0.249  -1.877  0.00  0.00    -0.379 OA
ATOM     16  H   UNL     1       0.149  -1.087  -1.992  0.00  0.00    +0.211 HD
ENDBRANCH   2  15
BRANCH  11  17
ATOM     17  O   UNL     1       4.316  -1.582  -0.888  0.00  0.00    -0.471 OA
ATOM     18  C   UNL     1       5.680  -1.528  -0.471  0.00  0.00    +0.252 C 
ENDBRANCH  11  17
BRANCH   2  19
ATOM     19  C   UNL     1      -0.998  -0.933   0.355  0.00  0.00    +0.033 C 
BRANCH  19  20
ATOM     20  C   UNL     1      -2.437  -1.122  -0.104  0.00  0.00    -0.020 C 
BRANCH  20  21
ATOM     21  C   UNL     1      -3.126  -2.208   0.721  0.00  0.00    -0.077 C 
BRANCH  21  22
ATOM     22  N   UNL     1      -2.437  -3.482   0.557  0.00  0.00    +0.384 N 
ATOM     23  C   UNL     1      -3.076  -4.522   1.365  0.00  0.00    -0.101 C 
ATOM     24  C   UNL     1      -2.412  -3.878  -0.852  0.00  0.00    -0.101 C 
ATOM     25  H   UNL     1      -1.475  -3.367   0.878  0.00  0.00    -0.080 HD
ENDBRANCH  21  22
ENDBRANCH  20  21
ENDBRANCH  19  20
ENDBRANCH   2  19
TORSDOF 6
