REMARK  Name = 9564
REMARK  6 active torsions:
REMARK  status: ('A' for Active; 'I' for Inactive)
REMARK    1  A    between atoms: S_1  and  N_6
REMARK    2  A    between atoms: S_1  and  C_14
REMARK    3  A    between atoms: N_5  and  C_10
REMARK    4  A    between atoms: C_10  and  C_11
REMARK    5  A    between atoms: C_11  and  C_12
REMARK    6  A    between atoms: C_17  and  N_20
REMARK                            x       y       z     vdW  Elec       q    Type
REMARK                         _______ _______ _______ _____ _____    ______ ____
ROOT
ATOM      1  S   UNL     1      -1.337   2.053   0.060  0.00  0.00    +0.077 S 
ATOM      2  O   UNL     1      -1.180   2.448   1.446  0.00  0.00    -0.150 OA
ATOM      3  O   UNL     1      -2.137   2.853  -0.847  0.00  0.00    -0.150 OA
ENDROOT
BRANCH   1   6
ATOM      4  O   UNL     1       1.342   1.053   1.271  0.00  0.00    -0.251 OA
ATOM      5  N   UNL     1       2.452   1.201  -0.750  0.00  0.00    -0.288 N 
ATOM      6  N   UNL     1       0.203   1.786  -0.632  0.00  0.00    -0.169 N 
ATOM      7  C   UNL     1       1.357   1.317   0.072  0.00  0.00    +0.319 C 
ATOM      8  H   UNL     1       2.358   1.439  -1.700  0.00  0.00    +0.151 HD
ATOM      9  H   UNL     1       0.305   1.971  -1.594  0.00  0.00    +0.178 HD
BRANCH   5  10
ATOM     10  C   UNL     1       3.747   0.737  -0.267  0.00  0.00    +0.091 C 
BRANCH  10  11
ATOM     11  C   UNL     1       3.848  -0.782  -0.394  0.00  0.00    +0.021 C 
BRANCH  11  12
ATOM     12  C   UNL     1       5.208  -1.288   0.087  0.00  0.00    +0.002 C 
ATOM     13  C   UNL     1       5.303  -2.803  -0.003  0.00  0.00    +0.000 C 
ENDBRANCH  11  12
ENDBRANCH  10  11
ENDBRANCH   5  10
ENDBRANCH   1   6
BRANCH   1  14
ATOM     14  C   UNL     1      -2.010   0.418   0.027  0.00  0.00    +0.125 C 
ATOM     15  C   UNL     1      -1.811  -0.417   1.113  0.00  0.00    +0.021 C 
ATOM     16  C   UNL     1      -2.724   0.004  -1.084  0.00  0.00    +0.021 C 
ATOM     17  C   UNL     1      -3.064  -2.141  -0.025  0.00  0.00    +0.042 C 
ATOM     18  C   UNL     1      -2.341  -1.706   1.087  0.00  0.00    +0.015 C 
ATOM     19  C   UNL     1      -3.255  -1.286  -1.110  0.00  0.00    +0.015 C 
BRANCH  17  20
ATOM     20  N   UNL     1      -3.602  -3.445  -0.051  0.00  0.00    -0.357 N 
ATOM     21  H   UNL     1      -3.466  -4.048   0.715  0.00  0.00    +0.142 HD
ATOM     22  H   UNL     1      -4.112  -3.751  -0.835  0.00  0.00    +0.142 HD
ENDBRANCH  17  20
ENDBRANCH   1  14
TORSDOF 6
