REMARK  Name = 3169
REMARK  6 active torsions:
REMARK  status: ('A' for Active; 'I' for Inactive)
REMARK    1  A    between atoms: N_1  and  C_14
REMARK    2  A    between atoms: N_2  and  C_8
REMARK    3  A    between atoms: C_14  and  C_15
REMARK    4  A    between atoms: C_15  and  O_16
REMARK    5  A    between atoms: C_15  and  C_18
REMARK    6  A    between atoms: C_18  and  O_19
REMARK                            x       y       z     vdW  Elec       q    Type
REMARK                         _______ _______ _______ _____ _____    ______ ____
ROOT
ATOM      1  N   UNL     1      -1.698  -0.588   0.217  0.00  0.00    +0.391 N 
ATOM      2  N   UNL     1       1.125  -0.226  -0.029  0.00  0.00    -0.312 N 
ATOM      3  C   UNL     1      -1.143   0.197  -0.892  0.00  0.00    -0.055 C 
ATOM      4  C   UNL     1      -0.777  -1.676   0.569  0.00  0.00    -0.055 C 
ATOM      5  C   UNL     1       0.207   0.810  -0.512  0.00  0.00    +0.068 C 
ATOM      6  C   UNL     1       0.585  -1.124   0.999  0.00  0.00    +0.068 C 
ATOM      7  H   UNL     1      -1.813   0.022   1.027  0.00  0.00    -0.079 HD
ENDROOT
BRANCH   2   8
ATOM      8  C   UNL     1       2.504   0.010  -0.037  0.00  0.00    +0.048 C 
ATOM      9  C   UNL     1       3.018   1.313   0.117  0.00  0.00    +0.015 C 
ATOM     10  C   UNL     1       3.421  -1.048  -0.198  0.00  0.00    +0.015 C 
ATOM     11  C   UNL     1       4.393   1.548   0.111  0.00  0.00    +0.001 C 
ATOM     12  C   UNL     1       4.795  -0.813  -0.204  0.00  0.00    +0.001 C 
ATOM     13  C   UNL     1       5.282   0.485  -0.050  0.00  0.00    +0.000 C 
ENDBRANCH   2   8
BRANCH   1  14
ATOM     14  C   UNL     1      -3.011  -1.123  -0.140  0.00  0.00    -0.045 C 
BRANCH  14  15
ATOM     15  C   UNL     1      -4.030  -0.014  -0.412  0.00  0.00    +0.119 C 
BRANCH  15  16
ATOM     16  O   UNL     1      -5.287  -0.627  -0.713  0.00  0.00    -0.384 OA
ATOM     17  H   UNL     1      -5.180  -1.232  -1.463  0.00  0.00    +0.210 HD
ENDBRANCH  15  16
BRANCH  15  18
ATOM     18  C   UNL     1      -4.222   0.933   0.770  0.00  0.00    +0.164 C 
BRANCH  18  19
ATOM     19  O   UNL     1      -5.160   1.941   0.404  0.00  0.00    -0.380 OA
ATOM     20  H   UNL     1      -5.289   2.548   1.149  0.00  0.00    +0.211 HD
ENDBRANCH  18  19
ENDBRANCH  15  18
ENDBRANCH  14  15
ENDBRANCH   1  14
TORSDOF 6
