REMARK  Name = 5597
REMARK  5 active torsions:
REMARK  status: ('A' for Active; 'I' for Inactive)
REMARK    1  A    between atoms: N_2  and  C_6
REMARK    2  A    between atoms: C_3  and  C_13
REMARK    3  A    between atoms: C_16  and  O_19
REMARK    4  A    between atoms: C_17  and  O_21
REMARK    5  A    between atoms: C_18  and  O_23
REMARK                            x       y       z     vdW  Elec       q    Type
REMARK                         _______ _______ _______ _____ _____    ______ ____
ROOT
ATOM      1  O   UNL     1      -1.321   1.645   1.406  0.00  0.00    -0.270 OA
ATOM      2  N   UNL     1      -1.920  -0.181   0.107  0.00  0.00    -0.305 N 
ATOM      3  C   UNL     1      -1.015   0.678   0.714  0.00  0.00    +0.246 C 
ATOM      4  H   UNL     1      -1.575  -0.930  -0.430  0.00  0.00    +0.150 HD
ENDROOT
BRANCH   2   6
ATOM      5  N   UNL     1      -5.337   1.068  -0.764  0.00  0.00    +0.385 N 
ATOM      6  C   UNL     1      -3.348  -0.017   0.234  0.00  0.00    +0.051 C 
ATOM      7  C   UNL     1      -4.056  -1.374   0.199  0.00  0.00    +0.015 C 
ATOM      8  C   UNL     1      -5.570  -1.188   0.219  0.00  0.00    -0.022 C 
ATOM      9  C   UNL     1      -3.885   0.910  -0.860  0.00  0.00    -0.062 C 
ATOM     10  C   UNL     1      -6.023  -0.220  -0.872  0.00  0.00    -0.082 C 
ATOM     11  H   UNL     1      -5.654   1.677  -1.518  0.00  0.00    -0.084 HD
ATOM     12  H   UNL     1      -5.556   1.473   0.146  0.00  0.00    -0.084 HD
ENDBRANCH   2   6
BRANCH   3  13
ATOM     13  C   UNL     1       0.421   0.389   0.464  0.00  0.00    +0.060 C 
ATOM     14  C   UNL     1       0.801  -0.907   0.184  0.00  0.00    +0.045 C 
ATOM     15  C   UNL     1       1.329   1.427   0.521  0.00  0.00    +0.045 C 
ATOM     16  C   UNL     1       2.677   1.156   0.288  0.00  0.00    +0.176 C 
ATOM     17  C   UNL     1       2.149  -1.178  -0.049  0.00  0.00    +0.176 C 
ATOM     18  C   UNL     1       3.087  -0.146   0.002  0.00  0.00    +0.206 C 
BRANCH  16  19
ATOM     19  O   UNL     1       3.583   2.172   0.343  0.00  0.00    -0.468 OA
ATOM     20  C   UNL     1       3.845   2.873  -0.871  0.00  0.00    +0.253 C 
ENDBRANCH  16  19
BRANCH  17  21
ATOM     21  O   UNL     1       2.538  -2.454  -0.327  0.00  0.00    -0.468 OA
ATOM     22  C   UNL     1       2.894  -3.278   0.781  0.00  0.00    +0.253 C 
ENDBRANCH  17  21
BRANCH  18  23
ATOM     23  O   UNL     1       4.405  -0.411  -0.225  0.00  0.00    -0.465 OA
ATOM     24  C   UNL     1       4.744  -0.963  -1.495  0.00  0.00    +0.253 C 
ENDBRANCH  18  23
ENDBRANCH   3  13
TORSDOF 5
