REMARK  Name = 68827
REMARK  0 active torsions:
REMARK  status: ('A' for Active; 'I' for Inactive)
REMARK                            x       y       z     vdW  Elec       q    Type
REMARK                         _______ _______ _______ _____ _____    ______ ____
ROOT
ATOM      1  O   UNL     1      -0.425  -0.611  -1.524  0.00  0.00    -0.217 OA
ATOM      2  O   UNL     1      -1.246  -1.297   1.175  0.00  0.00    -0.296 OA
ATOM      3  O   UNL     1       1.086  -1.514   0.986  0.00  0.00    -0.422 OA
ATOM      4  O   UNL     1      -0.894  -1.914  -1.066  0.00  0.00    -0.197 OA
ATOM      5  O   UNL     1       3.324  -1.723   0.985  0.00  0.00    -0.250 OA
ATOM      6  C   UNL     1      -0.088   0.218  -0.385  0.00  0.00    +0.191 C 
ATOM      7  C   UNL     1      -1.185   1.323  -0.361  0.00  0.00    +0.034 C 
ATOM      8  C   UNL     1       1.302   0.808  -0.695  0.00  0.00    +0.045 C 
ATOM      9  C   UNL     1      -0.801   2.523   0.549  0.00  0.00    +0.003 C 
ATOM     10  C   UNL     1      -0.023  -0.588   0.928  0.00  0.00    +0.320 C 
ATOM     11  C   UNL     1       1.660   1.962   0.252  0.00  0.00    +0.003 C 
ATOM     12  C   UNL     1      -2.588   0.782   0.009  0.00  0.00    +0.008 C 
ATOM     13  C   UNL     1       0.597   3.054   0.211  0.00  0.00    +0.000 C 
ATOM     14  C   UNL     1       2.346  -0.323  -0.723  0.00  0.00    +0.102 C 
ATOM     15  C   UNL     1      -1.871  -1.689  -0.048  0.00  0.00    +0.222 C 
ATOM     16  C   UNL     1      -2.917  -0.637  -0.472  0.00  0.00    +0.059 C 
ATOM     17  C   UNL     1      -1.809   3.675   0.455  0.00  0.00    +0.000 C 
ATOM     18  C   UNL     1       2.316  -1.203   0.513  0.00  0.00    +0.318 C 
ATOM     19  C   UNL     1       3.764   0.188  -0.990  0.00  0.00    +0.012 C 
ATOM     20  C   UNL     1      -2.548  -3.036   0.199  0.00  0.00    +0.064 C 
ENDROOT
TORSDOF 0
