REMARK  Name = 68295
REMARK  3 active torsions:
REMARK  status: ('A' for Active; 'I' for Inactive)
REMARK    1  A    between atoms: C_1  and  C_3
REMARK    2  A    between atoms: C_1  and  C_5
REMARK    3  A    between atoms: C_1  and  O_6
REMARK                            x       y       z     vdW  Elec       q    Type
REMARK                         _______ _______ _______ _____ _____    ______ ____
ROOT
ATOM      1  C   UNL     1      -0.002   0.054  -0.193  0.00  0.00    +0.131 C 
ENDROOT
BRANCH   1   3
ATOM      2  I   UNL     1      -3.042  -0.234  -0.369  0.00  0.00    -0.072 I 
ATOM      3  C   UNL     1      -1.260   0.815   0.239  0.00  0.00    +0.092 C 
ENDBRANCH   1   3
BRANCH   1   5
ATOM      4  I   UNL     1       3.041  -0.229  -0.370  0.00  0.00    -0.072 I 
ATOM      5  C   UNL     1       1.255   0.815   0.241  0.00  0.00    +0.092 C 
ENDBRANCH   1   5
BRANCH   1   6
ATOM      6  O   UNL     1       0.009  -1.222   0.452  0.00  0.00    -0.383 OA
ATOM      7  H   UNL     1      -0.780  -1.722   0.191  0.00  0.00    +0.210 HD
ENDBRANCH   1   6
TORSDOF 3
