REMARK  Name = 9919680
REMARK  5 active torsions:
REMARK  status: ('A' for Active; 'I' for Inactive)
REMARK    1  A    between atoms: N_2  and  C_12
REMARK    2  A    between atoms: C_4  and  C_29
REMARK    3  A    between atoms: C_15  and  C_18
REMARK    4  A    between atoms: C_19  and  C_22
REMARK    5  A    between atoms: N_28  and  C_31
REMARK                            x       y       z     vdW  Elec       q    Type
REMARK                         _______ _______ _______ _____ _____    ______ ____
ROOT
ATOM      1  O   UNL     1       5.111  -0.385   1.207  0.00  0.00    -0.286 OA
ATOM      2  N   UNL     1       1.448  -0.907  -0.554  0.00  0.00    -0.250 N 
ATOM      3  N   UNL     1       1.160  -2.984   0.687  0.00  0.00    -0.228 NA
ATOM      4  C   UNL     1       3.448   0.458  -0.244  0.00  0.00    +0.107 C 
ATOM      5  C   UNL     1       2.247   0.210  -0.780  0.00  0.00    +0.079 C 
ATOM      6  C   UNL     1       4.011  -0.539   0.693  0.00  0.00    +0.204 C 
ATOM      7  C   UNL     1       3.180  -1.731   0.982  0.00  0.00    +0.071 C 
ATOM      8  C   UNL     1       1.926  -1.904   0.372  0.00  0.00    +0.142 C 
ATOM      9  C   UNL     1       3.650  -2.684   1.891  0.00  0.00    +0.008 C 
ATOM     10  C   UNL     1       2.869  -3.789   2.190  0.00  0.00    +0.021 C 
ATOM     11  C   UNL     1       1.641  -3.890   1.569  0.00  0.00    +0.100 C 
ENDROOT
BRANCH   2  12
ATOM     12  C   UNL     1       0.193  -1.032  -1.242  0.00  0.00    +0.058 C 
ATOM     13  C   UNL     1      -0.978  -0.516  -0.675  0.00  0.00    +0.023 C 
ATOM     14  C   UNL     1       0.130  -1.669  -2.486  0.00  0.00    +0.015 C 
ATOM     15  C   UNL     1      -2.196  -0.636  -1.343  0.00  0.00    +0.043 C 
ATOM     16  C   UNL     1      -1.088  -1.790  -3.154  0.00  0.00    +0.002 C 
ATOM     17  C   UNL     1      -2.252  -1.274  -2.583  0.00  0.00    +0.008 C 
BRANCH  15  18
ATOM     18  C   UNL     1      -3.388  -0.107  -0.759  0.00  0.00    -0.060 C 
ATOM     19  C   UNL     1      -4.391   0.338  -0.267  0.00  0.00    -0.058 C 
BRANCH  19  22
ATOM     20  O   UNL     1      -9.092   0.194   0.386  0.00  0.00    -0.163 OA
ATOM     21  N   UNL     1      -7.974   0.756   0.621  0.00  0.00    -0.127 N 
ATOM     22  C   UNL     1      -5.584   0.867   0.319  0.00  0.00    +0.063 C 
ATOM     23  C   UNL     1      -6.809   0.261   0.067  0.00  0.00    +0.129 C 
ATOM     24  C   UNL     1      -5.526   1.987   1.138  0.00  0.00    +0.012 C 
ATOM     25  C   UNL     1      -6.692   2.494   1.701  0.00  0.00    +0.023 C 
ATOM     26  C   UNL     1      -7.907   1.871   1.435  0.00  0.00    +0.121 C 
ENDBRANCH  19  22
ENDBRANCH  15  18
ENDBRANCH   2  12
BRANCH   4  29
ATOM     27  O   UNL     1       3.977   2.197  -1.736  0.00  0.00    -0.270 OA
ATOM     28  N   UNL     1       4.962   2.183   0.374  0.00  0.00    -0.302 N 
ATOM     29  C   UNL     1       4.141   1.690  -0.626  0.00  0.00    +0.250 C 
ATOM     30  H   UNL     1       5.016   1.693   1.226  0.00  0.00    +0.150 HD
BRANCH  28  31
ATOM     31  C   UNL     1       5.738   3.382   0.220  0.00  0.00    +0.072 C 
ATOM     32  C   UNL     1       7.078   3.345  -0.439  0.00  0.00    +0.021 C 
ATOM     33  C   UNL     1       6.970   3.603   1.036  0.00  0.00    +0.021 C 
ENDBRANCH  28  31
ENDBRANCH   4  29
TORSDOF 5
