REMARK  Name = 23581869
REMARK  6 active torsions:
REMARK  status: ('A' for Active; 'I' for Inactive)
REMARK    1  A    between atoms: C_3  and  C_12
REMARK    2  A    between atoms: C_6  and  N_27
REMARK    3  A    between atoms: C_9  and  C_22
REMARK    4  A    between atoms: C_13  and  O_18
REMARK    5  A    between atoms: N_21  and  C_24
REMARK    6  A    between atoms: C_24  and  C_25
REMARK                            x       y       z     vdW  Elec       q    Type
REMARK                         _______ _______ _______ _____ _____    ______ ____
ROOT
ATOM      1  N   UNL     1       0.095   0.442  -0.138  0.00  0.00    -0.152 NA
ATOM      2  N   UNL     1       1.455   0.574  -0.069  0.00  0.00    -0.142 NA
ATOM      3  C   UNL     1      -1.866  -0.906  -0.182  0.00  0.00    +0.091 C 
ATOM      4  C   UNL     1       0.299  -1.936  -0.010  0.00  0.00    +0.013 A 
ATOM      5  C   UNL     1      -0.481  -0.772  -0.111  0.00  0.00    +0.086 A 
ATOM      6  C   UNL     1       1.685  -1.797   0.061  0.00  0.00    +0.063 A 
ATOM      7  C   UNL     1      -2.478  -2.161  -0.154  0.00  0.00    -0.020 C 
ATOM      8  C   UNL     1      -0.316  -3.199   0.018  0.00  0.00    +0.055 C 
ATOM      9  C   UNL     1       2.219  -0.527   0.028  0.00  0.00    +0.168 A 
ATOM     10  C   UNL     1      -1.702  -3.310  -0.054  0.00  0.00    -0.025 C 
ENDROOT
BRANCH   3  12
ATOM     11  F   UNL     1      -2.593   0.162  -2.660  0.00  0.00    -0.204 F 
ATOM     12  C   UNL     1      -2.717   0.266  -0.287  0.00  0.00    +0.049 C 
ATOM     13  C   UNL     1      -3.201   0.898   0.858  0.00  0.00    +0.138 C 
ATOM     14  C   UNL     1      -3.050   0.758  -1.549  0.00  0.00    +0.140 C 
ATOM     15  C   UNL     1      -4.018   2.023   0.741  0.00  0.00    +0.037 C 
ATOM     16  C   UNL     1      -3.867   1.883  -1.666  0.00  0.00    +0.030 C 
ATOM     17  C   UNL     1      -4.351   2.515  -0.521  0.00  0.00    +0.005 C 
BRANCH  13  18
ATOM     18  O   UNL     1      -2.891   0.440   2.105  0.00  0.00    -0.472 OA
ATOM     19  C   UNL     1      -3.435   1.156   3.211  0.00  0.00    +0.252 C 
ENDBRANCH  13  18
ENDBRANCH   3  12
BRANCH   9  22
ATOM     20  O   UNL     1       4.457  -1.101  -0.374  0.00  0.00    -0.268 OA
ATOM     21  N   UNL     1       4.060   0.923   0.685  0.00  0.00    -0.300 N 
ATOM     22  C   UNL     1       3.651  -0.279   0.096  0.00  0.00    +0.267 C 
ATOM     23  H   UNL     1       3.368   1.529   1.037  0.00  0.00    +0.150 HD
BRANCH  21  24
ATOM     24  C   UNL     1       5.443   1.324   0.805  0.00  0.00    +0.090 C 
BRANCH  24  25
ATOM     25  C   UNL     1       5.922   2.125  -0.400  0.00  0.00    +0.021 C 
ATOM     26  C   UNL     1       5.140   3.416  -0.597  0.00  0.00    +0.002 C 
ENDBRANCH  24  25
ENDBRANCH  21  24
ENDBRANCH   9  22
BRANCH   6  27
ATOM     27  N   UNL     1       2.540  -2.916   0.164  0.00  0.00    -0.356 N 
ATOM     28  H   UNL     1       2.161  -3.824   0.188  0.00  0.00    +0.142 HD
ATOM     29  H   UNL     1       3.515  -2.788   0.213  0.00  0.00    +0.142 HD
ENDBRANCH   6  27
TORSDOF 6
