REMARK  Name = 71652
REMARK  5 active torsions:
REMARK  status: ('A' for Active; 'I' for Inactive)
REMARK    1  A    between atoms: C_7  and  C_22
REMARK    2  A    between atoms: C_12  and  S_16
REMARK    3  A    between atoms: S_16  and  N_19
REMARK    4  A    between atoms: C_22  and  C_24
REMARK    5  A    between atoms: C_24  and  C_26
REMARK                            x       y       z     vdW  Elec       q    Type
REMARK                         _______ _______ _______ _____ _____    ______ ____
ROOT
ATOM      1 CL   UNL     1       3.713  -2.828   0.317  0.00  0.00    -0.081 Cl
ATOM      2  S   UNL     1      -0.339   1.931  -0.053  0.00  0.00    +0.063 S 
ATOM      3  O   UNL     1       0.090   2.754  -1.166  0.00  0.00    -0.153 OA
ATOM      4  O   UNL     1      -0.483   2.472   1.284  0.00  0.00    -0.153 OA
ATOM      5  N   UNL     1      -1.774   1.120  -0.503  0.00  0.00    -0.163 NA
ATOM      6  N   UNL     1      -1.054  -1.069   0.270  0.00  0.00    -0.320 N 
ATOM      7  C   UNL     1      -2.102  -0.067   0.319  0.00  0.00    +0.147 C 
ATOM      8  C   UNL     1       0.292  -0.737   0.229  0.00  0.00    +0.065 C 
ATOM      9  C   UNL     1       0.779   0.571   0.080  0.00  0.00    +0.136 C 
ATOM     10  C   UNL     1       2.146   0.855   0.007  0.00  0.00    +0.042 C 
ATOM     11  C   UNL     1       1.246  -1.766   0.290  0.00  0.00    +0.028 C 
ATOM     12  C   UNL     1       3.065  -0.186   0.084  0.00  0.00    +0.134 C 
ATOM     13  C   UNL     1       2.616  -1.497   0.224  0.00  0.00    +0.078 C 
ATOM     14  H   UNL     1      -1.676   0.818  -1.472  0.00  0.00    +0.151 HD
ATOM     15  H   UNL     1      -1.308  -2.020   0.265  0.00  0.00    +0.148 HD
ENDROOT
BRANCH  12  16
ATOM     16  S   UNL     1       4.769   0.210  -0.007  0.00  0.00    +0.058 S 
ATOM     17  O   UNL     1       4.937   1.590   0.421  0.00  0.00    -0.153 OA
ATOM     18  O   UNL     1       5.520  -0.851   0.645  0.00  0.00    -0.153 OA
BRANCH  16  19
ATOM     19  N   UNL     1       5.030   0.116  -1.692  0.00  0.00    -0.203 NA
ATOM     20  H   UNL     1       6.006   0.328  -1.897  0.00  0.00    +0.144 HD
ATOM     21  H   UNL     1       4.428   0.788  -2.167  0.00  0.00    +0.144 HD
ENDBRANCH  16  19
ENDBRANCH  12  16
BRANCH   7  22
ATOM     22  C   UNL     1      -3.406  -0.666  -0.193  0.00  0.00    +0.035 C 
ATOM     23  C   UNL     1      -3.233  -1.127  -1.647  0.00  0.00    +0.003 C 
BRANCH  22  24
ATOM     24  C   UNL     1      -4.620   0.290   0.017  0.00  0.00    +0.003 C 
ATOM     25  C   UNL     1      -4.825   0.696   1.483  0.00  0.00    +0.000 C 
BRANCH  24  26
ATOM     26  C   UNL     1      -5.954  -0.260  -0.536  0.00  0.00    +0.000 C 
ATOM     27  C   UNL     1      -6.416  -1.550   0.125  0.00  0.00    +0.000 C 
ENDBRANCH  24  26
ENDBRANCH  22  24
ENDBRANCH   7  22
TORSDOF 5
