REMARK  Name = 8756
REMARK  15 active torsions:
REMARK  status: ('A' for Active; 'I' for Inactive)
REMARK    1  A    between atoms: C_1  and  C_2
REMARK    2  A    between atoms: C_1  and  C_13
REMARK    3  A    between atoms: C_2  and  N_3
REMARK    4  A    between atoms: N_3  and  C_6
REMARK    5  A    between atoms: C_6  and  C_7
REMARK    6  A    between atoms: C_13  and  C_14
REMARK    7  A    between atoms: C_14  and  C_15
REMARK    8  A    between atoms: C_15  and  C_16
REMARK    9  A    between atoms: C_16  and  C_17
REMARK   10  A    between atoms: C_17  and  C_18
REMARK   11  A    between atoms: C_18  and  C_19
REMARK   12  A    between atoms: C_19  and  C_20
REMARK   13  A    between atoms: C_20  and  C_21
REMARK   14  A    between atoms: C_21  and  C_22
REMARK   15  A    between atoms: C_22  and  C_23
REMARK                            x       y       z     vdW  Elec       q    Type
REMARK                         _______ _______ _______ _____ _____    ______ ____
ROOT
ATOM      1  C   UNL     1       2.494   1.239   0.025  0.00  0.00    -0.022 C 
ENDROOT
BRANCH   1   2
ATOM      2  C   UNL     1       3.831   0.771  -0.537  0.00  0.00    -0.073 C 
BRANCH   2   3
ATOM      3  N   UNL     1       4.934   1.633  -0.052  0.00  0.00    +0.390 N 
ATOM      4  C   UNL     1       4.716   3.093  -0.477  0.00  0.00    -0.095 C 
ATOM      5  C   UNL     1       5.027   1.593   1.481  0.00  0.00    -0.095 C 
BRANCH   3   6
ATOM      6  C   UNL     1       6.283   1.169  -0.621  0.00  0.00    -0.046 C 
BRANCH   6   7
ATOM      7  C   UNL     1       6.611  -0.252  -0.271  0.00  0.00    -0.043 C 
ATOM      8  C   UNL     1       7.317  -0.538   0.897  0.00  0.00    -0.006 C 
ATOM      9  C   UNL     1       6.210  -1.289  -1.115  0.00  0.00    -0.006 C 
ATOM     10  C   UNL     1       7.622  -1.859   1.223  0.00  0.00    -0.000 C 
ATOM     11  C   UNL     1       6.515  -2.611  -0.789  0.00  0.00    -0.000 C 
ATOM     12  C   UNL     1       7.221  -2.896   0.380  0.00  0.00    -0.000 C 
ENDBRANCH   6   7
ENDBRANCH   3   6
ENDBRANCH   2   3
ENDBRANCH   1   2
BRANCH   1  13
ATOM     13  C   UNL     1       1.273   0.396  -0.362  0.00  0.00    -0.002 C 
BRANCH  13  14
ATOM     14  C   UNL     1      -0.045   0.947   0.186  0.00  0.00    -0.000 C 
BRANCH  14  15
ATOM     15  C   UNL     1      -1.235   0.119  -0.306  0.00  0.00    -0.000 C 
BRANCH  15  16
ATOM     16  C   UNL     1      -2.589   0.644   0.182  0.00  0.00    -0.000 C 
BRANCH  16  17
ATOM     17  C   UNL     1      -3.820  -0.131  -0.297  0.00  0.00    +0.000 C 
BRANCH  17  18
ATOM     18  C   UNL     1      -5.137   0.402   0.273  0.00  0.00    +0.000 C 
BRANCH  18  19
ATOM     19  C   UNL     1      -6.328  -0.416  -0.233  0.00  0.00    +0.000 C 
BRANCH  19  20
ATOM     20  C   UNL     1      -7.678   0.090   0.286  0.00  0.00    +0.000 C 
BRANCH  20  21
ATOM     21  C   UNL     1      -8.874  -0.681  -0.278  0.00  0.00    +0.000 C 
BRANCH  21  22
ATOM     22  C   UNL     1     -10.193  -0.142   0.283  0.00  0.00    +0.000 C 
BRANCH  22  23
ATOM     23  C   UNL     1     -11.422  -0.898  -0.226  0.00  0.00    +0.000 C 
ATOM     24  C   UNL     1     -12.733  -0.383   0.348  0.00  0.00    +0.000 C 
ENDBRANCH  22  23
ENDBRANCH  21  22
ENDBRANCH  20  21
ENDBRANCH  19  20
ENDBRANCH  18  19
ENDBRANCH  17  18
ENDBRANCH  16  17
ENDBRANCH  15  16
ENDBRANCH  14  15
ENDBRANCH  13  14
ENDBRANCH   1  13
TORSDOF 15
