REMARK  Name = 25382
REMARK  3 active torsions:
REMARK  status: ('A' for Active; 'I' for Inactive)
REMARK    1  A    between atoms: C_11  and  C_18
REMARK    2  A    between atoms: C_18  and  C_19
REMARK    3  A    between atoms: C_19  and  N_20
REMARK                            x       y       z     vdW  Elec       q    Type
REMARK                         _______ _______ _______ _____ _____    ______ ____
ROOT
ATOM      1  C   UNL     1      -2.350   0.879  -0.628  0.00  0.00    +0.038 C 
ATOM      2  C   UNL     1      -2.402  -0.606  -0.189  0.00  0.00    -0.019 C 
ATOM      3  C   UNL     1      -1.108   1.647  -0.108  0.00  0.00    -0.019 C 
ATOM      4  C   UNL     1      -1.268  -1.262   0.333  0.00  0.00    -0.004 C 
ATOM      5  C   UNL     1       0.013   0.970   0.413  0.00  0.00    -0.004 C 
ATOM      6  C   UNL     1       0.008  -0.511   0.388  0.00  0.00    -0.005 C 
ATOM      7  C   UNL     1      -2.329   0.923  -2.171  0.00  0.00    +0.009 C 
ATOM      8  C   UNL     1      -3.631   1.596  -0.111  0.00  0.00    +0.009 C 
ATOM      9  C   UNL     1      -3.589  -1.359  -0.334  0.00  0.00    -0.004 C 
ATOM     10  C   UNL     1      -1.054   3.057  -0.175  0.00  0.00    -0.004 C 
ATOM     11  C   UNL     1       1.174  -1.175   0.256  0.00  0.00    -0.028 C 
ATOM     12  C   UNL     1      -1.378  -2.589   0.791  0.00  0.00    -0.000 C 
ATOM     13  C   UNL     1       1.089   1.708   0.946  0.00  0.00    -0.000 C 
ATOM     14  C   UNL     1      -3.675  -2.683   0.095  0.00  0.00    -0.000 C 
ATOM     15  C   UNL     1       0.032   3.775   0.327  0.00  0.00    -0.000 C 
ATOM     16  C   UNL     1      -2.574  -3.294   0.674  0.00  0.00    -0.000 C 
ATOM     17  C   UNL     1       1.097   3.100   0.903  0.00  0.00    -0.000 C 
ENDROOT
BRANCH  11  18
ATOM     18  C   UNL     1       2.514  -0.514   0.297  0.00  0.00    +0.003 C 
BRANCH  18  19
ATOM     19  C   UNL     1       3.519  -1.261  -0.579  0.00  0.00    -0.073 C 
BRANCH  19  20
ATOM     20  N   UNL     1       4.815  -0.592  -0.543  0.00  0.00    +0.384 N 
ATOM     21  C   UNL     1       5.773  -1.281  -1.410  0.00  0.00    -0.101 C 
ATOM     22  C   UNL     1       5.324  -0.529   0.827  0.00  0.00    -0.101 C 
ATOM     23  H   UNL     1       4.692   0.360  -0.888  0.00  0.00    -0.080 HD
ENDBRANCH  19  20
ENDBRANCH  18  19
ENDBRANCH  11  18
TORSDOF 3
