REMARK  Name = 22174
REMARK  2 active torsions:
REMARK  status: ('A' for Active; 'I' for Inactive)
REMARK    1  A    between atoms: C_1  and  N_7
REMARK    2  A    between atoms: C_6  and  O_10
REMARK                            x       y       z     vdW  Elec       q    Type
REMARK                         _______ _______ _______ _____ _____    ______ ____
ROOT
ATOM      1  C   UNL     1      -0.682   0.001  -0.002  0.00  0.00    +0.048 C 
ATOM      2  C   UNL     1       0.015  -1.189   0.211  0.00  0.00    +0.018 C 
ATOM      3  C   UNL     1       0.016   1.190  -0.214  0.00  0.00    +0.018 C 
ATOM      4  C   UNL     1       1.410  -1.189   0.212  0.00  0.00    +0.038 C 
ATOM      5  C   UNL     1       1.411   1.189  -0.213  0.00  0.00    +0.038 C 
ATOM      6  C   UNL     1       2.108   0.000   0.001  0.00  0.00    +0.134 C 
ENDROOT
BRANCH   1   7
ATOM      7  N   UNL     1      -2.092   0.001  -0.003  0.00  0.00    -0.304 N 
ATOM      8  C   UNL     1      -2.827  -1.174  -0.428  0.00  0.00    +0.112 C 
ATOM      9  C   UNL     1      -2.826   1.173   0.434  0.00  0.00    +0.112 C 
ENDBRANCH   1   7
BRANCH   6  10
ATOM     10  O   UNL     1       3.469  -0.001   0.003  0.00  0.00    -0.506 OA
ATOM     11  H   UNL     1       3.936  -0.800   0.146  0.00  0.00    +0.292 HD
ENDBRANCH   6  10
TORSDOF 2
