REMARK  Name = 72098
REMARK  4 active torsions:
REMARK  status: ('A' for Active; 'I' for Inactive)
REMARK    1  A    between atoms: N_1  and  C_9
REMARK    2  A    between atoms: N_2  and  C_19
REMARK    3  A    between atoms: C_9  and  C_12
REMARK    4  A    between atoms: C_19  and  C_23
REMARK                            x       y       z     vdW  Elec       q    Type
REMARK                         _______ _______ _______ _____ _____    ______ ____
ROOT
ATOM      1  N   UNL     1       2.642  -2.099  -0.394  0.00  0.00    +0.387 N 
ATOM      2  N   UNL     1      -0.204  -2.088  -0.900  0.00  0.00    +0.390 N 
ATOM      3  C   UNL     1       1.978  -0.931  -0.987  0.00  0.00    -0.100 C 
ATOM      4  C   UNL     1       1.926  -3.330  -0.747  0.00  0.00    -0.100 C 
ATOM      5  C   UNL     1       0.511  -0.856  -0.546  0.00  0.00    -0.100 C 
ATOM      6  C   UNL     1       0.460  -3.254  -0.306  0.00  0.00    -0.100 C 
ATOM      7  H   UNL     1       2.626  -1.997   0.620  0.00  0.00    -0.079 HD
ATOM      8  H   UNL     1      -0.187  -2.190  -1.914  0.00  0.00    -0.079 HD
ENDROOT
BRANCH   1   9
ATOM      9  C   UNL     1       4.039  -2.171  -0.818  0.00  0.00    -0.050 C 
BRANCH   9  12
ATOM     10  O   UNL     1       5.385   1.302   2.422  0.00  0.00    -0.435 OA
ATOM     11  O   UNL     1       6.864   2.365   0.844  0.00  0.00    -0.435 OA
ATOM     12  C   UNL     1       4.815  -0.949  -0.405  0.00  0.00    -0.040 C 
ATOM     13  C   UNL     1       4.665  -0.452   0.885  0.00  0.00    +0.034 C 
ATOM     14  C   UNL     1       5.671  -0.340  -1.329  0.00  0.00    -0.003 C 
ATOM     15  C   UNL     1       5.396   0.669   1.218  0.00  0.00    +0.176 C 
ATOM     16  C   UNL     1       6.401   0.795  -0.967  0.00  0.00    +0.040 C 
ATOM     17  C   UNL     1       6.241   1.276   0.316  0.00  0.00    +0.176 C 
ATOM     18  C   UNL     1       6.318   2.375   2.179  0.00  0.00    +0.429 C 
ENDBRANCH   9  12
ENDBRANCH   1   9
BRANCH   2  19
ATOM     19  C   UNL     1      -1.602  -2.015  -0.478  0.00  0.00    +0.011 C 
BRANCH  19  23
ATOM     20  S   UNL     1      -3.870   1.769   1.910  0.00  0.00    -0.084 S 
ATOM     21  O   UNL     1      -1.717  -0.552  -2.310  0.00  0.00    -0.276 OA
ATOM     22  N   UNL     1      -3.160  -0.058  -0.510  0.00  0.00    -0.238 N 
ATOM     23  C   UNL     1      -2.198  -0.825  -1.206  0.00  0.00    +0.212 C 
ATOM     24  C   UNL     1      -4.041  -0.612   0.490  0.00  0.00    +0.064 C 
ATOM     25  C   UNL     1      -3.333   1.351  -0.795  0.00  0.00    +0.064 C 
ATOM     26  C   UNL     1      -4.446   0.117   1.619  0.00  0.00    +0.043 C 
ATOM     27  C   UNL     1      -3.673   2.271   0.215  0.00  0.00    +0.043 C 
ATOM     28  C   UNL     1      -4.580  -1.900   0.314  0.00  0.00    +0.016 C 
ATOM     29  C   UNL     1      -3.170   1.853  -2.100  0.00  0.00    +0.016 C 
ATOM     30  C   UNL     1      -5.305  -0.458   2.569  0.00  0.00    +0.008 C 
ATOM     31  C   UNL     1      -3.815   3.638  -0.075  0.00  0.00    +0.008 C 
ATOM     32  C   UNL     1      -5.442  -2.466   1.256  0.00  0.00    +0.001 C 
ATOM     33  C   UNL     1      -3.320   3.213  -2.385  0.00  0.00    +0.001 C 
ATOM     34  C   UNL     1      -5.797  -1.747   2.390  0.00  0.00    +0.001 C 
ATOM     35  C   UNL     1      -3.637   4.107  -1.372  0.00  0.00    +0.001 C 
ENDBRANCH  19  23
ENDBRANCH   2  19
TORSDOF 4
