REMARK  Name = 4059
REMARK  6 active torsions:
REMARK  status: ('A' for Active; 'I' for Inactive)
REMARK    1  A    between atoms: O_1  and  C_2
REMARK    2  A    between atoms: O_1  and  C_9
REMARK    3  A    between atoms: C_9  and  C_10
REMARK    4  A    between atoms: C_10  and  O_11
REMARK    5  A    between atoms: C_10  and  C_13
REMARK    6  A    between atoms: C_13  and  O_14
REMARK                            x       y       z     vdW  Elec       q    Type
REMARK                         _______ _______ _______ _____ _____    ______ ____
ROOT
ATOM      1  O   UNL     1      -0.441  -0.046   0.416  0.00  0.00    -0.473 OA
ENDROOT
BRANCH   1   2
ATOM      2  C   UNL     1       0.913  -0.120   0.226  0.00  0.00    +0.135 C 
ATOM      3  C   UNL     1       1.671   1.038   0.084  0.00  0.00    +0.012 C 
ATOM      4  C   UNL     1       1.519  -1.372   0.177  0.00  0.00    +0.037 C 
ATOM      5  C   UNL     1       3.049   0.943  -0.108  0.00  0.00    -0.001 C 
ATOM      6  C   UNL     1       1.032   2.386   0.135  0.00  0.00    +0.034 C 
ATOM      7  C   UNL     1       2.897  -1.466  -0.015  0.00  0.00    +0.003 C 
ATOM      8  C   UNL     1       3.663  -0.309  -0.158  0.00  0.00    -0.000 C 
ENDBRANCH   1   2
BRANCH   1   9
ATOM      9  C   UNL     1      -1.218  -1.129  -0.084  0.00  0.00    +0.237 C 
BRANCH   9  10
ATOM     10  C   UNL     1      -2.619  -0.642  -0.436  0.00  0.00    +0.183 C 
BRANCH  10  11
ATOM     11  O   UNL     1      -2.512   0.397  -1.411  0.00  0.00    -0.378 OA
ATOM     12  H   UNL     1      -2.059   0.056  -2.199  0.00  0.00    +0.211 HD
ENDBRANCH  10  11
BRANCH  10  13
ATOM     13  C   UNL     1      -3.333  -0.071   0.783  0.00  0.00    +0.170 C 
BRANCH  13  14
ATOM     14  O   UNL     1      -4.620   0.392   0.389  0.00  0.00    -0.379 OA
ATOM     15  H   UNL     1      -5.082   0.758   1.160  0.00  0.00    +0.211 HD
ENDBRANCH  13  14
ENDBRANCH  10  13
ENDBRANCH   9  10
ENDBRANCH   1   9
TORSDOF 6
