REMARK  Name = 11207
REMARK  0 active torsions:
REMARK  status: ('A' for Active; 'I' for Inactive)
REMARK                            x       y       z     vdW  Elec       q    Type
REMARK                         _______ _______ _______ _____ _____    ______ ____
ROOT
ATOM      1  S   UNL     1       0.052   0.000  -0.107  0.00  0.00    +0.130 S 
ATOM      2  F   UNL     1       0.824  -0.001   1.283  0.00  0.00    -0.060 F 
ATOM      3  O   UNL     1       0.393  -1.266  -0.732  0.00  0.00    -0.142 OA
ATOM      4  O   UNL     1       0.393   1.267  -0.731  0.00  0.00    -0.142 OA
ATOM      5  C   UNL     1      -1.662   0.000   0.287  0.00  0.00    +0.215 C 
ENDROOT
TORSDOF 0
