REMARK  Name = 21782
REMARK  7 active torsions:
REMARK  status: ('A' for Active; 'I' for Inactive)
REMARK    1  A    between atoms: N_4  and  S_9
REMARK    2  A    between atoms: C_5  and  C_14
REMARK    3  A    between atoms: S_9  and  C_13
REMARK    4  A    between atoms: C_14  and  C_15
REMARK    5  A    between atoms: C_14  and  C_17
REMARK    6  A    between atoms: C_17  and  C_18
REMARK    7  A    between atoms: C_18  and  C_19
REMARK                            x       y       z     vdW  Elec       q    Type
REMARK                         _______ _______ _______ _____ _____    ______ ____
ROOT
ATOM      1  O   UNL     1       0.700   0.326  -2.049  0.00  0.00    -0.272 OA
ATOM      2  O   UNL     1       1.527   0.424   2.495  0.00  0.00    -0.251 OA
ATOM      3  N   UNL     1      -0.363  -0.091   1.231  0.00  0.00    -0.281 N 
ATOM      4  N   UNL     1       1.491   0.494   0.150  0.00  0.00    -0.161 N 
ATOM      5  C   UNL     1      -0.743  -0.163  -0.159  0.00  0.00    +0.151 C 
ATOM      6  C   UNL     1       0.560   0.245  -0.835  0.00  0.00    +0.260 C 
ATOM      7  C   UNL     1       0.968   0.298   1.413  0.00  0.00    +0.320 C 
ATOM      8  H   UNL     1      -0.977  -0.294   1.973  0.00  0.00    +0.151 HD
ENDROOT
BRANCH   4   9
ATOM      9  S   UNL     1       3.070   0.975  -0.149  0.00  0.00    +0.008 S 
BRANCH   9  13
ATOM     10 CL   UNL     1       5.644  -0.385  -0.582  0.00  0.00    -0.070 Cl
ATOM     11 CL   UNL     1       3.745  -1.552   1.275  0.00  0.00    -0.070 Cl
ATOM     12 CL   UNL     1       3.224  -1.622  -1.597  0.00  0.00    -0.070 Cl
ATOM     13  C   UNL     1       3.899  -0.646  -0.259  0.00  0.00    +0.255 C 
ENDBRANCH   9  13
ENDBRANCH   4   9
BRANCH   5  14
ATOM     14  C   UNL     1      -1.885   0.800  -0.498  0.00  0.00    +0.027 C 
BRANCH  14  15
ATOM     15  C   UNL     1      -1.554   2.245  -0.069  0.00  0.00    +0.002 C 
ATOM     16  C   UNL     1      -2.651   3.251  -0.391  0.00  0.00    +0.000 C 
ENDBRANCH  14  15
BRANCH  14  17
ATOM     17  C   UNL     1      -3.211   0.370   0.167  0.00  0.00    +0.002 C 
BRANCH  17  18
ATOM     18  C   UNL     1      -3.728  -0.992  -0.308  0.00  0.00    +0.000 C 
BRANCH  18  19
ATOM     19  C   UNL     1      -5.077  -1.325   0.330  0.00  0.00    +0.000 C 
ATOM     20  C   UNL     1      -5.616  -2.657  -0.166  0.00  0.00    +0.000 C 
ENDBRANCH  18  19
ENDBRANCH  17  18
ENDBRANCH  14  17
ENDBRANCH   5  14
TORSDOF 7
