REMARK  Name = 2194
REMARK  2 active torsions:
REMARK  status: ('A' for Active; 'I' for Inactive)
REMARK    1  A    between atoms: C_1  and  C_10
REMARK    2  A    between atoms: C_4  and  O_13
REMARK                            x       y       z     vdW  Elec       q    Type
REMARK                         _______ _______ _______ _____ _____    ______ ____
ROOT
ATOM      1  C   UNL     1      -0.090   0.158   0.071  0.00  0.00    +0.007 C 
ATOM      2  C   UNL     1      -0.721   0.319   1.305  0.00  0.00    +0.004 C 
ATOM      3  C   UNL     1      -0.847  -0.111  -1.069  0.00  0.00    +0.004 C 
ATOM      4  C   UNL     1      -2.865  -0.058   0.257  0.00  0.00    +0.139 C 
ATOM      5  C   UNL     1      -2.109   0.211   1.397  0.00  0.00    +0.037 C 
ATOM      6  C   UNL     1      -2.234  -0.218  -0.977  0.00  0.00    +0.037 C 
ENDROOT
BRANCH   1  10
ATOM      7  S   UNL     1       2.035   1.828  -0.356  0.00  0.00    -0.050 S 
ATOM      8  S   UNL     1       3.969   1.176  -0.334  0.00  0.00    -0.044 S 
ATOM      9  S   UNL     1       4.835  -1.670   0.130  0.00  0.00    -0.043 S 
ATOM     10  C   UNL     1       1.369   0.270  -0.026  0.00  0.00    +0.037 C 
ATOM     11  C   UNL     1       2.180  -0.785   0.121  0.00  0.00    +0.021 C 
ATOM     12  C   UNL     1       3.630  -0.519  -0.009  0.00  0.00    +0.072 C 
ENDBRANCH   1  10
BRANCH   4  13
ATOM     13  O   UNL     1      -4.219  -0.163   0.347  0.00  0.00    -0.471 OA
ATOM     14  C   UNL     1      -4.931  -0.439  -0.858  0.00  0.00    +0.252 C 
ENDBRANCH   4  13
TORSDOF 2
