REMARK  Name = 72138
REMARK  1 active torsions:
REMARK  status: ('A' for Active; 'I' for Inactive)
REMARK    1  A    between atoms: N_2  and  C_10
REMARK                            x       y       z     vdW  Elec       q    Type
REMARK                         _______ _______ _______ _____ _____    ______ ____
ROOT
ATOM      1  N   UNL     1       3.196   0.805  -0.301  0.00  0.00    -0.284 N 
ATOM      2  N   UNL     1       0.871   0.816  -0.361  0.00  0.00    -0.285 N 
ATOM      3  N   UNL     1       2.129  -1.089   0.352  0.00  0.00    -0.214 NA
ATOM      4  C   UNL     1       4.311  -0.032   0.022  0.00  0.00    +0.085 C 
ATOM      5  C   UNL     1       3.601  -1.316   0.470  0.00  0.00    +0.117 C 
ATOM      6  C   UNL     1       2.024   0.141  -0.091  0.00  0.00    +0.190 C 
ATOM      7  H   UNL     1       3.265   1.730  -0.630  0.00  0.00    +0.155 HD
ATOM      8  H   UNL     1       0.970   1.740  -0.689  0.00  0.00    +0.155 HD
ENDROOT
BRANCH   2  10
ATOM      9 CL   UNL     1      -1.258   2.892   0.290  0.00  0.00    -0.081 Cl
ATOM     10  C   UNL     1      -0.437   0.341  -0.225  0.00  0.00    +0.061 C 
ATOM     11  C   UNL     1      -1.507   1.196   0.075  0.00  0.00    +0.071 C 
ATOM     12  C   UNL     1      -0.688  -1.029  -0.391  0.00  0.00    +0.015 C 
ATOM     13  C   UNL     1      -3.038  -0.673   0.038  0.00  0.00    -0.021 C 
ATOM     14  C   UNL     1      -2.801   0.692   0.205  0.00  0.00    +0.008 C 
ATOM     15  C   UNL     1      -1.982  -1.533  -0.260  0.00  0.00    -0.003 C 
ATOM     16  C   UNL     1      -4.421  -1.212   0.178  0.00  0.00    +0.031 C 
ENDBRANCH   2  10
TORSDOF 1
