REMARK  Name = 443951
REMARK  3 active torsions:
REMARK  status: ('A' for Active; 'I' for Inactive)
REMARK    1  A    between atoms: C_6  and  N_21
REMARK    2  A    between atoms: N_22  and  C_25
REMARK    3  A    between atoms: N_22  and  C_27
REMARK                            x       y       z     vdW  Elec       q    Type
REMARK                         _______ _______ _______ _____ _____    ______ ____
ROOT
ATOM      1  N   UNL     1      -0.102  -2.459  -0.270  0.00  0.00    +0.388 N 
ATOM      2  N   UNL     1       5.129   0.276   0.927  0.00  0.00    -0.312 N 
ATOM      3  C   UNL     1       0.663  -0.061  -0.359  0.00  0.00    +0.005 C 
ATOM      4  C   UNL     1       1.101  -1.592  -0.347  0.00  0.00    -0.049 C 
ATOM      5  C   UNL     1      -0.311   0.201  -1.519  0.00  0.00    +0.020 C 
ATOM      6  C   UNL     1      -1.486  -0.776  -1.494  0.00  0.00    +0.053 C 
ATOM      7  C   UNL     1       2.140  -1.904   0.798  0.00  0.00    +0.007 C 
ATOM      8  C   UNL     1      -0.994  -2.224  -1.421  0.00  0.00    -0.057 C 
ATOM      9  C   UNL     1       1.877   0.854  -0.377  0.00  0.00    -0.023 C 
ATOM     10  C   UNL     1       3.048   0.358   0.209  0.00  0.00    +0.007 C 
ATOM     11  C   UNL     1       3.254  -0.913   0.780  0.00  0.00    -0.009 C 
ATOM     12  C   UNL     1       4.213   1.095   0.303  0.00  0.00    +0.048 C 
ATOM     13  C   UNL     1       0.228  -3.886  -0.208  0.00  0.00    -0.100 C 
ATOM     14  C   UNL     1       1.935   2.172  -0.847  0.00  0.00    -0.004 C 
ATOM     15  C   UNL     1       4.555  -0.944   1.223  0.00  0.00    +0.057 C 
ATOM     16  C   UNL     1       4.288   2.400  -0.182  0.00  0.00    +0.015 C 
ATOM     17  C   UNL     1       3.119   2.922  -0.757  0.00  0.00    +0.001 C 
ATOM     18  H   UNL     1      -0.574  -2.207   0.598  0.00  0.00    -0.080 HD
ATOM     19  H   UNL     1       6.059   0.525   1.133  0.00  0.00    +0.152 HD
ENDROOT
BRANCH   6  21
ATOM     20  O   UNL     1      -3.661   1.024  -1.604  0.00  0.00    -0.253 OA
ATOM     21  N   UNL     1      -2.394  -0.477  -0.408  0.00  0.00    -0.292 N 
ATOM     22  N   UNL     1      -4.224   0.608   0.613  0.00  0.00    -0.264 N 
ATOM     23  C   UNL     1      -3.445   0.426  -0.545  0.00  0.00    +0.304 C 
ATOM     24  H   UNL     1      -2.264  -0.927   0.458  0.00  0.00    +0.151 HD
BRANCH  22  25
ATOM     25  C   UNL     1      -5.356   1.524   0.647  0.00  0.00    +0.095 C 
ATOM     26  C   UNL     1      -6.643   0.832   0.247  0.00  0.00    +0.023 C 
ENDBRANCH  22  25
BRANCH  22  27
ATOM     27  C   UNL     1      -3.947  -0.111   1.853  0.00  0.00    +0.095 C 
ATOM     28  C   UNL     1      -2.987   0.657   2.738  0.00  0.00    +0.023 C 
ENDBRANCH  22  27
ENDBRANCH   6  21
TORSDOF 3
