REMARK  Name = 2310
REMARK  1 active torsions:
REMARK  status: ('A' for Active; 'I' for Inactive)
REMARK    1  A    between atoms: C_4  and  C_11
REMARK                            x       y       z     vdW  Elec       q    Type
REMARK                         _______ _______ _______ _____ _____    ______ ____
ROOT
ATOM      1  O   UNL     1       2.424   1.853   0.026  0.00  0.00    -0.275 OA
ATOM      2  O   UNL     1       1.248  -2.598   0.054  0.00  0.00    -0.275 OA
ATOM      3  N   UNL     1       1.805  -0.364   0.035  0.00  0.00    -0.255 N 
ATOM      4  C   UNL     1      -0.908   0.353   0.035  0.00  0.00    +0.017 C 
ATOM      5  C   UNL     1       0.132   1.364  -0.465  0.00  0.00    +0.086 C 
ATOM      6  C   UNL     1      -0.505  -1.046  -0.450  0.00  0.00    +0.086 C 
ATOM      7  C   UNL     1      -1.025   0.393   1.571  0.00  0.00    +0.001 C 
ATOM      8  C   UNL     1       1.550   0.995  -0.096  0.00  0.00    +0.228 C 
ATOM      9  C   UNL     1       0.911  -1.421  -0.081  0.00  0.00    +0.228 C 
ATOM     10  H   UNL     1       2.737  -0.610   0.235  0.00  0.00    +0.158 HD
ENDROOT
BRANCH   4  11
ATOM     11  C   UNL     1      -2.282   0.712  -0.560  0.00  0.00    +0.001 C 
ATOM     12  C   UNL     1      -3.349  -0.240  -0.068  0.00  0.00    +0.000 C 
ENDBRANCH   4  11
TORSDOF 1
