15139
  -OEChem-10061700273D

 51 53  0     0  0  0  0  0  0999 V2000
   -9.3476   -0.4935   -0.0355 F   0  0  0  0  0  0  0  0  0  0  0  0
    4.9379    1.8189   -0.7325 O   0  0  0  0  0  0  0  0  0  0  0  0
   -3.5410    1.7033    0.8653 O   0  0  0  0  0  0  0  0  0  0  0  0
    0.7749   -1.0034   -0.1623 N   0  0  0  0  0  0  0  0  0  0  0  0
    3.5904   -0.5507    0.0028 N   0  0  0  0  0  0  0  0  0  0  0  0
    1.7071   -1.8378   -0.9306 C   0  0  0  0  0  0  0  0  0  0  0  0
    1.3028    0.3617   -0.0501 C   0  0  0  0  0  0  0  0  0  0  0  0
    3.0756   -1.9027   -0.2485 C   0  0  0  0  0  0  0  0  0  0  0  0
    2.6586    0.3707    0.6603 C   0  0  0  0  0  0  0  0  0  0  0  0
   -0.5441   -0.9932   -0.7940 C   0  0  0  0  0  0  0  0  0  0  0  0
   -1.5270   -0.1763    0.0472 C   0  0  0  0  0  0  0  0  0  0  0  0
    4.9683   -0.3962    0.1914 C   0  0  0  0  0  0  0  0  0  0  0  0
   -2.9273   -0.1367   -0.5707 C   0  0  0  0  0  0  0  0  0  0  0  0
    5.6375    0.7893   -0.1772 C   0  0  0  0  0  0  0  0  0  0  0  0
    5.7321   -1.4346    0.7623 C   0  0  0  0  0  0  0  0  0  0  0  0
   -3.9060    0.7336    0.2049 C   0  0  0  0  0  0  0  0  0  0  0  0
    7.0117    0.9296    0.0170 C   0  0  0  0  0  0  0  0  0  0  0  0
    7.1064   -1.2941    0.9563 C   0  0  0  0  0  0  0  0  0  0  0  0
    7.7461   -0.1121    0.5836 C   0  0  0  0  0  0  0  0  0  0  0  0
   -5.3588    0.4060    0.1406 C   0  0  0  0  0  0  0  0  0  0  0  0
   -5.8533   -0.1854   -1.0003 C   0  0  0  0  0  0  0  0  0  0  0  0
   -6.1527    0.7067    1.2249 C   0  0  0  0  0  0  0  0  0  0  0  0
    5.6753    2.9883   -1.0820 C   0  0  0  0  0  0  0  0  0  0  0  0
   -7.2128   -0.4919   -1.0603 C   0  0  0  0  0  0  0  0  0  0  0  0
   -7.5122    0.4000    1.1650 C   0  0  0  0  0  0  0  0  0  0  0  0
   -8.0422   -0.1995    0.0224 C   0  0  0  0  0  0  0  0  0  0  0  0
    1.8242   -1.4490   -1.9513 H   0  0  0  0  0  0  0  0  0  0  0  0
    1.3171   -2.8596   -1.0133 H   0  0  0  0  0  0  0  0  0  0  0  0
    0.6693    1.0070    0.5627 H   0  0  0  0  0  0  0  0  0  0  0  0
    1.4004    0.8280   -1.0396 H   0  0  0  0  0  0  0  0  0  0  0  0
    3.7520   -2.4633   -0.9061 H   0  0  0  0  0  0  0  0  0  0  0  0
    2.9862   -2.4509    0.6982 H   0  0  0  0  0  0  0  0  0  0  0  0
    2.5341    0.0616    1.7067 H   0  0  0  0  0  0  0  0  0  0  0  0
    3.0309    1.3995    0.6810 H   0  0  0  0  0  0  0  0  0  0  0  0
   -0.9234   -2.0199   -0.8708 H   0  0  0  0  0  0  0  0  0  0  0  0
   -0.4950   -0.5865   -1.8125 H   0  0  0  0  0  0  0  0  0  0  0  0
   -1.2146    0.8678    0.1334 H   0  0  0  0  0  0  0  0  0  0  0  0
   -1.5875   -0.5793    1.0661 H   0  0  0  0  0  0  0  0  0  0  0  0
   -3.3093   -1.1631   -0.6126 H   0  0  0  0  0  0  0  0  0  0  0  0
   -2.8717    0.2565   -1.5925 H   0  0  0  0  0  0  0  0  0  0  0  0
    5.2717   -2.3658    1.0823 H   0  0  0  0  0  0  0  0  0  0  0  0
    7.5770    1.8167   -0.2466 H   0  0  0  0  0  0  0  0  0  0  0  0
    7.6781   -2.1035    1.4011 H   0  0  0  0  0  0  0  0  0  0  0  0
    8.8161   -0.0036    0.7363 H   0  0  0  0  0  0  0  0  0  0  0  0
   -5.2332   -0.4081   -1.8624 H   0  0  0  0  0  0  0  0  0  0  0  0
   -5.7524    1.1682    2.1224 H   0  0  0  0  0  0  0  0  0  0  0  0
    6.1140    3.4682   -0.2005 H   0  0  0  0  0  0  0  0  0  0  0  0
    4.9625    3.7019   -1.5087 H   0  0  0  0  0  0  0  0  0  0  0  0
    6.4187    2.7805   -1.8591 H   0  0  0  0  0  0  0  0  0  0  0  0
   -7.6268   -0.9550   -1.9511 H   0  0  0  0  0  0  0  0  0  0  0  0
   -8.1581    0.6265    2.0081 H   0  0  0  0  0  0  0  0  0  0  0  0
  1 26  1  0  0  0  0
  2 14  1  0  0  0  0
  2 23  1  0  0  0  0
  3 16  2  0  0  0  0
  4  6  1  0  0  0  0
  4  7  1  0  0  0  0
  4 10  1  0  0  0  0
  5  8  1  0  0  0  0
  5  9  1  0  0  0  0
  5 12  1  0  0  0  0
  6  8  1  0  0  0  0
  6 27  1  0  0  0  0
  6 28  1  0  0  0  0
  7  9  1  0  0  0  0
  7 29  1  0  0  0  0
  7 30  1  0  0  0  0
  8 31  1  0  0  0  0
  8 32  1  0  0  0  0
  9 33  1  0  0  0  0
  9 34  1  0  0  0  0
 10 11  1  0  0  0  0
 10 35  1  0  0  0  0
 10 36  1  0  0  0  0
 11 13  1  0  0  0  0
 11 37  1  0  0  0  0
 11 38  1  0  0  0  0
 12 14  1  0  0  0  0
 12 15  2  0  0  0  0
 13 16  1  0  0  0  0
 13 39  1  0  0  0  0
 13 40  1  0  0  0  0
 14 17  2  0  0  0  0
 15 18  1  0  0  0  0
 15 41  1  0  0  0  0
 16 20  1  0  0  0  0
 17 19  1  0  0  0  0
 17 42  1  0  0  0  0
 18 19  2  0  0  0  0
 18 43  1  0  0  0  0
 19 44  1  0  0  0  0
 20 21  2  0  0  0  0
 20 22  1  0  0  0  0
 21 24  1  0  0  0  0
 21 45  1  0  0  0  0
 22 25  2  0  0  0  0
 22 46  1  0  0  0  0
 23 47  1  0  0  0  0
 23 48  1  0  0  0  0
 23 49  1  0  0  0  0
 24 26  2  0  0  0  0
 24 50  1  0  0  0  0
 25 26  1  0  0  0  0
 25 51  1  0  0  0  0
M  END
> <DATABASE_ID>
DB13665

> <DATABASE_NAME>
drugbank

> <ORIGINAL_SOURCE>
PUBCHEM

> <ORIGINAL_SOURCE_URL>
https://pubchem.ncbi.nlm.nih.gov/rest/pug/compound/inchikey/IRYFCWPNDIUQOW-UHFFFAOYSA-N/SDF?record_type=3d

> <SMILES>
COC1=CC=CC=C1N1CCN(CCCC(=O)C2=CC=C(F)C=C2)CC1

> <INCHI_IDENTIFIER>
InChI=1S/C21H25FN2O2/c1-26-21-7-3-2-5-19(21)24-15-13-23(14-16-24)12-4-6-20(25)17-8-10-18(22)11-9-17/h2-3,5,7-11H,4,6,12-16H2,1H3

> <INCHI_KEY>
IRYFCWPNDIUQOW-UHFFFAOYSA-N

> <FORMULA>
C21H25FN2O2

> <MOLECULAR_WEIGHT>
356.441

> <EXACT_MASS>
356.190006216

> <JCHEM_ACCEPTOR_COUNT>
4

> <JCHEM_ATOM_COUNT>
51

> <JCHEM_AVERAGE_POLARIZABILITY>
38.764872301827694

> <JCHEM_BIOAVAILABILITY>
1

> <JCHEM_DONOR_COUNT>
0

> <JCHEM_FORMAL_CHARGE>
0

> <JCHEM_GHOSE_FILTER>
1

> <JCHEM_IUPAC>
1-(4-fluorophenyl)-4-[4-(2-methoxyphenyl)piperazin-1-yl]butan-1-one

> <ALOGPS_LOGP>
3.82

> <JCHEM_LOGP>
3.671336223

> <ALOGPS_LOGS>
-3.59

> <JCHEM_MDDR_LIKE_RULE>
1

> <JCHEM_NUMBER_OF_RINGS>
3

> <JCHEM_PHYSIOLOGICAL_CHARGE>
1

> <JCHEM_PKA_STRONGEST_ACIDIC>
16.395237650939336

> <JCHEM_PKA_STRONGEST_BASIC>
7.178973834669682

> <JCHEM_POLAR_SURFACE_AREA>
32.78

> <JCHEM_REFRACTIVITY>
102.5724

> <JCHEM_ROTATABLE_BOND_COUNT>
7

> <JCHEM_RULE_OF_FIVE>
1

> <ALOGPS_SOLUBILITY>
9.10e-02 g/l

> <JCHEM_TRADITIONAL_IUPAC>
fluanisone

> <JCHEM_VEBER_RULE>
1

> <DRUGBANK_ID>
DB13665

> <DRUG_GROUPS>
experimental

> <GENERIC_NAME>
Fluanisone

$$$$
