REMARK  Name = 3116
REMARK  11 active torsions:
REMARK  status: ('A' for Active; 'I' for Inactive)
REMARK    1  A    between atoms: C_1  and  C_2
REMARK    2  A    between atoms: C_1  and  C_17
REMARK    3  A    between atoms: C_2  and  C_3
REMARK    4  A    between atoms: C_3  and  C_4
REMARK    5  A    between atoms: C_4  and  N_6
REMARK    6  A    between atoms: C_8  and  O_9
REMARK    7  A    between atoms: O_9  and  C_11
REMARK    8  A    between atoms: C_17  and  C_18
REMARK    9  A    between atoms: C_18  and  N_20
REMARK   10  A    between atoms: C_22  and  O_23
REMARK   11  A    between atoms: O_23  and  C_25
REMARK                            x       y       z     vdW  Elec       q    Type
REMARK                         _______ _______ _______ _____ _____    ______ ____
ROOT
ATOM      1  C   UNL     1      -1.290   4.103   1.033  0.00  0.00    +0.002 C 
ENDROOT
BRANCH   1   2
ATOM      2  C   UNL     1       0.025   3.336   0.879  0.00  0.00    +0.002 C 
BRANCH   2   3
ATOM      3  C   UNL     1       1.231   4.258   1.089  0.00  0.00    +0.022 C 
BRANCH   3   4
ATOM      4  C   UNL     1       2.561   3.527   0.929  0.00  0.00    +0.097 C 
BRANCH   4   6
ATOM      5  O   UNL     1       3.054   1.109  -1.775  0.00  0.00    -0.226 OA
ATOM      6  N   UNL     1       2.730   2.970  -0.384  0.00  0.00    -0.244 N 
ATOM      7  C   UNL     1       2.707   3.909  -1.510  0.00  0.00    +0.118 C 
ATOM      8  C   UNL     1       2.911   1.596  -0.654  0.00  0.00    +0.409 C 
BRANCH   8   9
ATOM      9  O   UNL     1       2.910   0.835   0.519  0.00  0.00    -0.413 OA
BRANCH   9  11
ATOM     10  N   UNL     1       4.517  -2.406   0.097  0.00  0.00    -0.298 N 
ATOM     11  C   UNL     1       3.087  -0.537   0.312  0.00  0.00    +0.147 C 
ATOM     12  C   UNL     1       4.359  -1.090   0.298  0.00  0.00    +0.156 C 
ATOM     13  C   UNL     1       1.990  -1.372   0.117  0.00  0.00    +0.036 C 
ATOM     14  C   UNL     1       2.184  -2.735  -0.089  0.00  0.00    +0.019 C 
ATOM     15  C   UNL     1       3.480  -3.232  -0.094  0.00  0.00    +0.062 C 
ATOM     16  C   UNL     1       5.869  -2.959   0.085  0.00  0.00    +0.113 C 
ENDBRANCH   9  11
ENDBRANCH   8   9
ENDBRANCH   4   6
ENDBRANCH   3   4
ENDBRANCH   2   3
ENDBRANCH   1   2
BRANCH   1  17
ATOM     17  C   UNL     1      -2.533   3.230   0.827  0.00  0.00    +0.022 C 
BRANCH  17  18
ATOM     18  C   UNL     1      -2.666   2.622  -0.566  0.00  0.00    +0.097 C 
BRANCH  18  20
ATOM     19  O   UNL     1      -4.834  -0.328  -0.530  0.00  0.00    -0.226 OA
ATOM     20  N   UNL     1      -3.825   1.783  -0.695  0.00  0.00    -0.244 N 
ATOM     21  C   UNL     1      -5.065   2.430  -1.135  0.00  0.00    +0.118 C 
ATOM     22  C   UNL     1      -3.846   0.397  -0.425  0.00  0.00    +0.409 C 
BRANCH  22  23
ATOM     23  O   UNL     1      -2.592  -0.068  -0.018  0.00  0.00    -0.413 OA
BRANCH  23  25
ATOM     24  N   UNL     1      -2.213  -3.664  -0.452  0.00  0.00    -0.298 N 
ATOM     25  C   UNL     1      -2.552  -1.437   0.264  0.00  0.00    +0.147 C 
ATOM     26  C   UNL     1      -2.247  -2.354  -0.732  0.00  0.00    +0.156 C 
ATOM     27  C   UNL     1      -2.819  -1.906   1.547  0.00  0.00    +0.036 C 
ATOM     28  C   UNL     1      -2.776  -3.272   1.809  0.00  0.00    +0.019 C 
ATOM     29  C   UNL     1      -2.466  -4.142   0.774  0.00  0.00    +0.062 C 
ATOM     30  C   UNL     1      -1.891  -4.604  -1.522  0.00  0.00    +0.113 C 
ENDBRANCH  23  25
ENDBRANCH  22  23
ENDBRANCH  18  20
ENDBRANCH  17  18
ENDBRANCH   1  17
TORSDOF 11
