102669
  -OEChem-10061700213D

 45 46  0     1  0  0  0  0  0999 V2000
    0.2158    0.5845    2.1599 O   0  0  0  0  0  0  0  0  0  0  0  0
   -2.3027    3.8458    0.1244 O   0  0  0  0  0  0  0  0  0  0  0  0
    3.3536   -0.5265   -0.2596 N   0  0  0  0  0  0  0  0  0  0  0  0
   -1.0288    2.1887    1.0917 N   0  0  0  0  0  0  0  0  0  0  0  0
   -0.4009    0.1259   -0.1477 C   0  0  1  0  0  0  0  0  0  0  0  0
    0.9188   -0.6772   -0.2202 C   0  0  0  0  0  0  0  0  0  0  0  0
   -0.4472    1.0987   -1.3477 C   0  0  0  0  0  0  0  0  0  0  0  0
    2.1238    0.2517   -0.1722 C   0  0  0  0  0  0  0  0  0  0  0  0
   -1.5783   -0.8652   -0.1585 C   0  0  0  0  0  0  0  0  0  0  0  0
   -0.3474    0.9727    1.1345 C   0  0  0  0  0  0  0  0  0  0  0  0
   -1.6587    2.0153   -1.2727 C   0  0  0  0  0  0  0  0  0  0  0  0
   -1.6900    2.7831    0.0235 C   0  0  0  0  0  0  0  0  0  0  0  0
   -2.4483   -0.9142    0.9256 C   0  0  0  0  0  0  0  0  0  0  0  0
   -1.7631   -1.7045   -1.2522 C   0  0  0  0  0  0  0  0  0  0  0  0
    3.4456   -1.4719    0.8544 C   0  0  0  0  0  0  0  0  0  0  0  0
    4.5221    0.3553   -0.2746 C   0  0  0  0  0  0  0  0  0  0  0  0
   -3.5153   -1.8126    0.9158 C   0  0  0  0  0  0  0  0  0  0  0  0
   -2.8302   -2.6028   -1.2620 C   0  0  0  0  0  0  0  0  0  0  0  0
    4.6902   -2.3358    0.7400 C   0  0  0  0  0  0  0  0  0  0  0  0
    4.4474    1.3460   -1.4241 C   0  0  0  0  0  0  0  0  0  0  0  0
   -3.7064   -2.6568   -0.1781 C   0  0  0  0  0  0  0  0  0  0  0  0
    0.9658   -1.2813   -1.1357 H   0  0  0  0  0  0  0  0  0  0  0  0
    0.8995   -1.3789    0.6201 H   0  0  0  0  0  0  0  0  0  0  0  0
   -0.4496    0.5659   -2.3055 H   0  0  0  0  0  0  0  0  0  0  0  0
    0.4122    1.7753   -1.3660 H   0  0  0  0  0  0  0  0  0  0  0  0
    2.1448    0.8943    0.7130 H   0  0  0  0  0  0  0  0  0  0  0  0
    2.0824    0.8900   -1.0518 H   0  0  0  0  0  0  0  0  0  0  0  0
   -2.5952    1.4558   -1.3649 H   0  0  0  0  0  0  0  0  0  0  0  0
   -1.6198    2.7367   -2.0968 H   0  0  0  0  0  0  0  0  0  0  0  0
   -1.0343    2.7175    1.9598 H   0  0  0  0  0  0  0  0  0  0  0  0
   -2.3437   -0.2809    1.7996 H   0  0  0  0  0  0  0  0  0  0  0  0
   -1.0976   -1.6805   -2.1097 H   0  0  0  0  0  0  0  0  0  0  0  0
    3.4285   -0.9659    1.8277 H   0  0  0  0  0  0  0  0  0  0  0  0
    2.6262   -2.1940    0.8399 H   0  0  0  0  0  0  0  0  0  0  0  0
    4.6398    0.8978    0.6720 H   0  0  0  0  0  0  0  0  0  0  0  0
    5.4373   -0.2220   -0.4415 H   0  0  0  0  0  0  0  0  0  0  0  0
   -4.1979   -1.8554    1.7596 H   0  0  0  0  0  0  0  0  0  0  0  0
   -2.9796   -3.2596   -2.1139 H   0  0  0  0  0  0  0  0  0  0  0  0
    4.6200   -3.1763    1.4400 H   0  0  0  0  0  0  0  0  0  0  0  0
    4.8014   -2.7578   -0.2649 H   0  0  0  0  0  0  0  0  0  0  0  0
    5.6030   -1.7914    1.0008 H   0  0  0  0  0  0  0  0  0  0  0  0
    5.4290    1.8127   -1.5665 H   0  0  0  0  0  0  0  0  0  0  0  0
    3.7451    2.1629   -1.2303 H   0  0  0  0  0  0  0  0  0  0  0  0
    4.1822    0.8583   -2.3686 H   0  0  0  0  0  0  0  0  0  0  0  0
   -4.5374   -3.3561   -0.1858 H   0  0  0  0  0  0  0  0  0  0  0  0
  1 10  2  0  0  0  0
  2 12  2  0  0  0  0
  3  8  1  0  0  0  0
  3 15  1  0  0  0  0
  3 16  1  0  0  0  0
  4 10  1  0  0  0  0
  4 12  1  0  0  0  0
  4 30  1  0  0  0  0
  5  6  1  0  0  0  0
  5  7  1  0  0  0  0
  5  9  1  0  0  0  0
  5 10  1  0  0  0  0
  6  8  1  0  0  0  0
  6 22  1  0  0  0  0
  6 23  1  0  0  0  0
  7 11  1  0  0  0  0
  7 24  1  0  0  0  0
  7 25  1  0  0  0  0
  8 26  1  0  0  0  0
  8 27  1  0  0  0  0
  9 13  2  0  0  0  0
  9 14  1  0  0  0  0
 11 12  1  0  0  0  0
 11 28  1  0  0  0  0
 11 29  1  0  0  0  0
 13 17  1  0  0  0  0
 13 31  1  0  0  0  0
 14 18  2  0  0  0  0
 14 32  1  0  0  0  0
 15 19  1  0  0  0  0
 15 33  1  0  0  0  0
 15 34  1  0  0  0  0
 16 20  1  0  0  0  0
 16 35  1  0  0  0  0
 16 36  1  0  0  0  0
 17 21  2  0  0  0  0
 17 37  1  0  0  0  0
 18 21  1  0  0  0  0
 18 38  1  0  0  0  0
 19 39  1  0  0  0  0
 19 40  1  0  0  0  0
 19 41  1  0  0  0  0
 20 42  1  0  0  0  0
 20 43  1  0  0  0  0
 20 44  1  0  0  0  0
 21 45  1  0  0  0  0
M  END
> <DATABASE_ID>
DB13413

> <DATABASE_NAME>
drugbank

> <ORIGINAL_SOURCE>
PUBCHEM

> <ORIGINAL_SOURCE_URL>
https://pubchem.ncbi.nlm.nih.gov/rest/pug/compound/inchikey/BFMBKRQFMIILCH-UHFFFAOYSA-N/SDF?record_type=3d

> <SMILES>
CCN(CC)CCC1(CCC(=O)NC1=O)C1=CC=CC=C1

> <INCHI_IDENTIFIER>
InChI=1S/C17H24N2O2/c1-3-19(4-2)13-12-17(14-8-6-5-7-9-14)11-10-15(20)18-16(17)21/h5-9H,3-4,10-13H2,1-2H3,(H,18,20,21)

> <INCHI_KEY>
BFMBKRQFMIILCH-UHFFFAOYSA-N

> <FORMULA>
C17H24N2O2

> <MOLECULAR_WEIGHT>
288.391

> <EXACT_MASS>
288.183778021

> <JCHEM_ACCEPTOR_COUNT>
3

> <JCHEM_ATOM_COUNT>
45

> <JCHEM_AVERAGE_POLARIZABILITY>
32.571535091532866

> <JCHEM_BIOAVAILABILITY>
1

> <JCHEM_DONOR_COUNT>
1

> <JCHEM_FORMAL_CHARGE>
0

> <JCHEM_GHOSE_FILTER>
1

> <JCHEM_IUPAC>
3-[2-(diethylamino)ethyl]-3-phenylpiperidine-2,6-dione

> <ALOGPS_LOGP>
2.69

> <JCHEM_LOGP>
1.9964788992050821

> <ALOGPS_LOGS>
-3.19

> <JCHEM_MDDR_LIKE_RULE>
0

> <JCHEM_NUMBER_OF_RINGS>
2

> <JCHEM_PHYSIOLOGICAL_CHARGE>
1

> <JCHEM_PKA_STRONGEST_ACIDIC>
11.69953099890089

> <JCHEM_PKA_STRONGEST_BASIC>
9.956061195307244

> <JCHEM_POLAR_SURFACE_AREA>
49.410000000000004

> <JCHEM_REFRACTIVITY>
83.80660000000002

> <JCHEM_ROTATABLE_BOND_COUNT>
6

> <JCHEM_RULE_OF_FIVE>
1

> <ALOGPS_SOLUBILITY>
1.87e-01 g/l

> <JCHEM_TRADITIONAL_IUPAC>
phenglutarimide

> <JCHEM_VEBER_RULE>
0

> <DRUGBANK_ID>
DB13413

> <DRUG_GROUPS>
experimental

> <GENERIC_NAME>
Phenglutarimide

$$$$
