REMARK  Name = 46886609
REMARK  5 active torsions:
REMARK  status: ('A' for Active; 'I' for Inactive)
REMARK    1  A    between atoms: C_1  and  C_3
REMARK    2  A    between atoms: C_1  and  C_10
REMARK    3  A    between atoms: C_1  and  O_20
REMARK    4  A    between atoms: C_13  and  O_16
REMARK    5  A    between atoms: C_15  and  O_18
REMARK                            x       y       z     vdW  Elec       q    Type
REMARK                         _______ _______ _______ _____ _____    ______ ____
ROOT
ATOM      1  C   UNL     1      -0.728   1.301   0.260  0.00  0.00    +0.114 C 
ENDROOT
BRANCH   1   3
ATOM      2  N   UNL     1      -1.733  -0.880   0.693  0.00  0.00    +0.387 N 
ATOM      3  C   UNL     1      -1.770   0.283  -0.201  0.00  0.00    -0.030 C 
ATOM      4  C   UNL     1      -3.169   0.914  -0.217  0.00  0.00    -0.019 C 
ATOM      5  C   UNL     1      -4.234  -0.111  -0.597  0.00  0.00    -0.004 C 
ATOM      6  C   UNL     1      -4.125  -1.349   0.287  0.00  0.00    -0.023 C 
ATOM      7  C   UNL     1      -2.702  -1.901   0.292  0.00  0.00    -0.082 C 
ATOM      8  H   UNL     1      -1.949  -0.575   1.642  0.00  0.00    -0.084 HD
ATOM      9  H   UNL     1      -0.801  -1.290   0.645  0.00  0.00    -0.084 HD
ENDBRANCH   1   3
BRANCH   1  10
ATOM     10  C   UNL     1       0.663   0.715   0.278  0.00  0.00    +0.005 C 
ATOM     11  C   UNL     1       1.216   0.194  -0.891  0.00  0.00    +0.038 C 
ATOM     12  C   UNL     1       1.395   0.696   1.465  0.00  0.00    +0.001 C 
ATOM     13  C   UNL     1       2.502  -0.346  -0.874  0.00  0.00    +0.167 C 
ATOM     14  C   UNL     1       2.681   0.156   1.482  0.00  0.00    +0.040 C 
ATOM     15  C   UNL     1       3.234  -0.365   0.312  0.00  0.00    +0.167 C 
BRANCH  13  16
ATOM     16  O   UNL     1       3.032  -0.849  -2.024  0.00  0.00    -0.503 OA
ATOM     17  H   UNL     1       2.533  -0.832  -2.817  0.00  0.00    +0.292 HD
ENDBRANCH  13  16
BRANCH  15  18
ATOM     18  O   UNL     1       4.491  -0.890   0.341  0.00  0.00    -0.503 OA
ATOM     19  H   UNL     1       4.870  -1.241  -0.440  0.00  0.00    +0.292 HD
ENDBRANCH  15  18
ENDBRANCH   1  10
BRANCH   1  20
ATOM     20  O   UNL     1      -0.753   2.431  -0.607  0.00  0.00    -0.382 OA
ATOM     21  H   UNL     1      -1.646   2.809  -0.621  0.00  0.00    +0.211 HD
ENDBRANCH   1  20
TORSDOF 5
