REMARK  Name = 100472
REMARK  3 active torsions:
REMARK  status: ('A' for Active; 'I' for Inactive)
REMARK    1  A    between atoms: C_1  and  C_13
REMARK    2  A    between atoms: C_2  and  C_7
REMARK    3  A    between atoms: C_13  and  C_16
REMARK                            x       y       z     vdW  Elec       q    Type
REMARK                         _______ _______ _______ _____ _____    ______ ____
ROOT
ATOM      1  C   UNL     1      -0.208   1.404  -0.093  0.00  0.00    -0.013 C 
ATOM      2  C   UNL     1      -2.777   0.315  -0.069  0.00  0.00    -0.000 C 
ATOM      3  C   UNL     1      -0.661   0.660  -1.183  0.00  0.00    -0.004 C 
ATOM      4  C   UNL     1      -1.040   1.603   1.009  0.00  0.00    -0.004 C 
ATOM      5  C   UNL     1      -1.945   0.116  -1.171  0.00  0.00    -0.000 C 
ATOM      6  C   UNL     1      -2.324   1.059   1.021  0.00  0.00    -0.000 C 
ENDROOT
BRANCH   2   7
ATOM      7  C   UNL     1      -4.109  -0.250  -0.056  0.00  0.00    -0.000 C 
ATOM      8  C   UNL     1      -5.183   0.484  -0.558  0.00  0.00    -0.000 C 
ATOM      9  C   UNL     1      -4.318  -1.529   0.459  0.00  0.00    -0.000 C 
ATOM     10  C   UNL     1      -6.467  -0.061  -0.546  0.00  0.00    +0.000 C 
ATOM     11  C   UNL     1      -5.602  -2.075   0.471  0.00  0.00    +0.000 C 
ATOM     12  C   UNL     1      -6.676  -1.340  -0.032  0.00  0.00    +0.000 C 
ENDBRANCH   2   7
BRANCH   1  13
ATOM     13  C   UNL     1       1.165   1.986  -0.106  0.00  0.00    +0.112 C 
BRANCH  13  16
ATOM     14  O   UNL     1       2.182   0.665   1.635  0.00  0.00    -0.274 OA
ATOM     15  N   UNL     1       3.211   0.775  -0.473  0.00  0.00    -0.269 N 
ATOM     16  C   UNL     1       2.234   1.065   0.476  0.00  0.00    +0.232 C 
ATOM     17  H   UNL     1       3.092   1.186  -1.360  0.00  0.00    +0.156 HD
ATOM     18  N   UNL     1       5.178  -0.189  -1.365  0.00  0.00    -0.229 NA
ATOM     19  C   UNL     1       4.356  -0.041  -0.311  0.00  0.00    +0.134 C 
ATOM     20  C   UNL     1       4.535  -0.625   0.925  0.00  0.00    +0.034 C 
ATOM     21  C   UNL     1       5.656  -1.429   1.094  0.00  0.00    +0.004 C 
ATOM     22  C   UNL     1       6.538  -1.615   0.035  0.00  0.00    +0.021 C 
ATOM     23  C   UNL     1       6.256  -0.979  -1.163  0.00  0.00    +0.100 C 
ENDBRANCH  13  16
ENDBRANCH   1  13
TORSDOF 3
