REMARK  Name = 67686
REMARK  4 active torsions:
REMARK  status: ('A' for Active; 'I' for Inactive)
REMARK    1  A    between atoms: N_3  and  C_9
REMARK    2  A    between atoms: N_4  and  C_16
REMARK    3  A    between atoms: C_9  and  C_10
REMARK    4  A    between atoms: C_16  and  C_17
REMARK                            x       y       z     vdW  Elec       q    Type
REMARK                         _______ _______ _______ _____ _____    ______ ____
ROOT
ATOM      1  S   UNL     1       3.471   1.874  -0.854  0.00  0.00    -0.116 S 
ATOM      2  S   UNL     1       4.657  -0.657   0.056  0.00  0.00    -0.028 S 
ATOM      3  N   UNL     1       0.824   1.972  -0.281  0.00  0.00    +0.408 N 
ATOM      4  N   UNL     1       2.024   0.014   0.537  0.00  0.00    -0.315 N 
ATOM      5  C   UNL     1       0.988   1.021   0.816  0.00  0.00    +0.020 C 
ATOM      6  C   UNL     1       2.016   2.806  -0.358  0.00  0.00    -0.008 C 
ATOM      7  C   UNL     1       3.288   0.335   0.004  0.00  0.00    +0.107 C 
ATOM      8  H   UNL     1       0.698   1.466  -1.158  0.00  0.00    -0.075 HD
ENDROOT
BRANCH   3   9
ATOM      9  C   UNL     1      -0.358   2.806  -0.054  0.00  0.00    -0.046 C 
BRANCH   9  10
ATOM     10  C   UNL     1      -1.616   1.984   0.037  0.00  0.00    -0.043 C 
ATOM     11  C   UNL     1      -2.342   1.715  -1.115  0.00  0.00    -0.006 C 
ATOM     12  C   UNL     1      -2.032   1.505   1.272  0.00  0.00    -0.006 C 
ATOM     13  C   UNL     1      -3.507   0.953  -1.031  0.00  0.00    -0.000 C 
ATOM     14  C   UNL     1      -3.197   0.743   1.356  0.00  0.00    -0.000 C 
ATOM     15  C   UNL     1      -3.935   0.467   0.204  0.00  0.00    -0.000 C 
ENDBRANCH   9  10
ENDBRANCH   3   9
BRANCH   4  16
ATOM     16  C   UNL     1       1.748  -1.299   1.132  0.00  0.00    +0.117 C 
BRANCH  16  17
ATOM     17  C   UNL     1       0.661  -2.032   0.393  0.00  0.00    -0.002 C 
ATOM     18  C   UNL     1      -0.157  -2.918   1.081  0.00  0.00    -0.003 C 
ATOM     19  C   UNL     1       0.491  -1.813  -0.967  0.00  0.00    -0.003 C 
ATOM     20  C   UNL     1      -1.164  -3.597   0.396  0.00  0.00    -0.000 C 
ATOM     21  C   UNL     1      -0.516  -2.492  -1.652  0.00  0.00    -0.000 C 
ATOM     22  C   UNL     1      -1.344  -3.385  -0.971  0.00  0.00    -0.000 C 
ENDBRANCH  16  17
ENDBRANCH   4  16
TORSDOF 4
