REMARK  Name = 15139
REMARK  7 active torsions:
REMARK  status: ('A' for Active; 'I' for Inactive)
REMARK    1  A    between atoms: N_1  and  C_16
REMARK    2  A    between atoms: N_2  and  C_8
REMARK    3  A    between atoms: C_9  and  O_14
REMARK    4  A    between atoms: C_16  and  C_17
REMARK    5  A    between atoms: C_17  and  C_18
REMARK    6  A    between atoms: C_18  and  C_20
REMARK    7  A    between atoms: C_20  and  C_22
REMARK                            x       y       z     vdW  Elec       q    Type
REMARK                         _______ _______ _______ _____ _____    ______ ____
ROOT
ATOM      1  N   UNL     1       0.775  -1.003  -0.162  0.00  0.00    +0.389 N 
ATOM      2  N   UNL     1       3.590  -0.551   0.003  0.00  0.00    -0.309 N 
ATOM      3  C   UNL     1       1.707  -1.838  -0.931  0.00  0.00    -0.055 C 
ATOM      4  C   UNL     1       1.303   0.362  -0.050  0.00  0.00    -0.055 C 
ATOM      5  C   UNL     1       3.076  -1.903  -0.248  0.00  0.00    +0.068 C 
ATOM      6  C   UNL     1       2.659   0.371   0.660  0.00  0.00    +0.068 C 
ATOM      7  H   UNL     1       0.676  -1.396   0.774  0.00  0.00    -0.080 HD
ENDROOT
BRANCH   2   8
ATOM      8  C   UNL     1       4.968  -0.396   0.191  0.00  0.00    +0.082 C 
ATOM      9  C   UNL     1       5.638   0.789  -0.177  0.00  0.00    +0.152 C 
ATOM     10  C   UNL     1       5.732  -1.435   0.762  0.00  0.00    +0.018 C 
ATOM     11  C   UNL     1       7.012   0.930   0.017  0.00  0.00    +0.038 C 
ATOM     12  C   UNL     1       7.106  -1.294   0.956  0.00  0.00    +0.001 C 
ATOM     13  C   UNL     1       7.746  -0.112   0.584  0.00  0.00    +0.003 C 
BRANCH   9  14
ATOM     14  O   UNL     1       4.938   1.819  -0.733  0.00  0.00    -0.470 OA
ATOM     15  C   UNL     1       5.675   2.988  -1.082  0.00  0.00    +0.253 C 
ENDBRANCH   9  14
ENDBRANCH   2   8
BRANCH   1  16
ATOM     16  C   UNL     1      -0.544  -0.993  -0.794  0.00  0.00    -0.077 C 
BRANCH  16  17
ATOM     17  C   UNL     1      -1.527  -0.176   0.047  0.00  0.00    -0.015 C 
BRANCH  17  18
ATOM     18  C   UNL     1      -2.927  -0.137  -0.571  0.00  0.00    +0.067 C 
BRANCH  18  20
ATOM     19  O   UNL     1      -3.541   1.703   0.865  0.00  0.00    -0.291 OA
ATOM     20  C   UNL     1      -3.906   0.734   0.205  0.00  0.00    +0.173 C 
BRANCH  20  22
ATOM     21  F   UNL     1      -9.348  -0.493  -0.035  0.00  0.00    -0.204 F 
ATOM     22  C   UNL     1      -5.359   0.406   0.141  0.00  0.00    +0.035 C 
ATOM     23  C   UNL     1      -5.853  -0.185  -1.000  0.00  0.00    +0.005 C 
ATOM     24  C   UNL     1      -6.153   0.707   1.225  0.00  0.00    +0.005 C 
ATOM     25  C   UNL     1      -7.213  -0.492  -1.060  0.00  0.00    +0.030 C 
ATOM     26  C   UNL     1      -7.512   0.400   1.165  0.00  0.00    +0.030 C 
ATOM     27  C   UNL     1      -8.042  -0.200   0.022  0.00  0.00    +0.140 C 
ENDBRANCH  20  22
ENDBRANCH  18  20
ENDBRANCH  17  18
ENDBRANCH  16  17
ENDBRANCH   1  16
TORSDOF 7
