REMARK  Name = 77254
REMARK  3 active torsions:
REMARK  status: ('A' for Active; 'I' for Inactive)
REMARK    1  A    between atoms: N_2  and  C_15
REMARK    2  A    between atoms: C_3  and  C_6
REMARK    3  A    between atoms: C_7  and  O_12
REMARK                            x       y       z     vdW  Elec       q    Type
REMARK                         _______ _______ _______ _____ _____    ______ ____
ROOT
ATOM      1  O   UNL     1       0.136   1.817  -0.613  0.00  0.00    -0.270 OA
ATOM      2  N   UNL     1      -0.463  -0.319   0.149  0.00  0.00    -0.280 N 
ATOM      3  C   UNL     1       0.445   0.690  -0.197  0.00  0.00    +0.252 C 
ATOM      4  H   UNL     1      -0.065  -1.163   0.464  0.00  0.00    +0.155 HD
ENDROOT
BRANCH   3   6
ATOM      5 BR   UNL     1       4.130  -3.124  -0.379  0.00  0.00    -0.049 Br
ATOM      6  C   UNL     1       1.855   0.346  -0.071  0.00  0.00    +0.088 C 
ATOM      7  C   UNL     1       2.805   1.322   0.231  0.00  0.00    +0.138 C 
ATOM      8  C   UNL     1       2.249  -0.979  -0.253  0.00  0.00    +0.014 C 
ATOM      9  C   UNL     1       4.150   0.973   0.349  0.00  0.00    +0.037 C 
ATOM     10  C   UNL     1       3.594  -1.329  -0.134  0.00  0.00    +0.035 C 
ATOM     11  C   UNL     1       4.545  -0.353   0.167  0.00  0.00    +0.010 C 
BRANCH   7  12
ATOM     12  O   UNL     1       2.439   2.622   0.415  0.00  0.00    -0.505 OA
ATOM     13  H   UNL     1       1.539   2.871   0.338  0.00  0.00    +0.292 HD
ENDBRANCH   7  12
ENDBRANCH   3   6
BRANCH   2  15
ATOM     14 CL   UNL     1      -6.364  -0.171  -0.034  0.00  0.00    -0.082 Cl
ATOM     15  C   UNL     1      -1.878  -0.284   0.105  0.00  0.00    +0.051 C 
ATOM     16  C   UNL     1      -2.512   0.868  -0.328  0.00  0.00    +0.016 C 
ATOM     17  C   UNL     1      -2.595  -1.402   0.495  0.00  0.00    +0.016 C 
ATOM     18  C   UNL     1      -3.906   0.903  -0.371  0.00  0.00    +0.013 C 
ATOM     19  C   UNL     1      -3.988  -1.367   0.452  0.00  0.00    +0.013 C 
ATOM     20  C   UNL     1      -4.644  -0.214   0.019  0.00  0.00    +0.058 C 
ENDBRANCH   2  15
TORSDOF 3
