165124
  -OEChem-10061700203D

 49 50  0     0  0  0  0  0  0999 V2000
   -1.2747   -0.3921    0.2465 O   0  0  0  0  0  0  0  0  0  0  0  0
    0.7445   -0.4106    1.8308 O   0  0  0  0  0  0  0  0  0  0  0  0
    0.0099   -1.8277   -1.0092 O   0  0  0  0  0  0  0  0  0  0  0  0
   -4.8854   -1.0605   -0.2665 N   0  0  0  0  0  0  0  0  0  0  0  0
   -3.7295   -0.3559    0.3034 C   0  0  0  0  0  0  0  0  0  0  0  0
   -2.4535   -1.0006   -0.2677 C   0  0  0  0  0  0  0  0  0  0  0  0
   -3.7894   -0.4969    1.8306 C   0  0  0  0  0  0  0  0  0  0  0  0
   -3.8086    1.1297   -0.0774 C   0  0  0  0  0  0  0  0  0  0  0  0
    1.1000   -0.1930    0.4501 C   0  0  0  0  0  0  0  0  0  0  0  0
   -4.8731   -0.9549   -1.7229 C   0  0  0  0  0  0  0  0  0  0  0  0
   -6.1265   -0.5190    0.2800 C   0  0  0  0  0  0  0  0  0  0  0  0
   -0.0844   -0.9044   -0.2093 C   0  0  0  0  0  0  0  0  0  0  0  0
    1.1701    1.3065    0.1513 C   0  0  0  0  0  0  0  0  0  0  0  0
    2.4381   -0.8724    0.1503 C   0  0  0  0  0  0  0  0  0  0  0  0
    0.8401    1.7424   -1.1112 C   0  0  0  0  0  0  0  0  0  0  0  0
    2.9332   -0.8146   -1.1322 C   0  0  0  0  0  0  0  0  0  0  0  0
    1.5600    2.1607    1.1569 C   0  0  0  0  0  0  0  0  0  0  0  0
    3.0951   -1.5144    1.1747 C   0  0  0  0  0  0  0  0  0  0  0  0
    0.9037    3.1088   -1.3835 C   0  0  0  0  0  0  0  0  0  0  0  0
    4.1529   -1.4337   -1.4056 C   0  0  0  0  0  0  0  0  0  0  0  0
    1.6235    3.5273    0.8845 C   0  0  0  0  0  0  0  0  0  0  0  0
    4.3150   -2.1332    0.9011 C   0  0  0  0  0  0  0  0  0  0  0  0
    1.2954    4.0013   -0.3857 C   0  0  0  0  0  0  0  0  0  0  0  0
    4.8437   -2.0928   -0.3890 C   0  0  0  0  0  0  0  0  0  0  0  0
   -2.3870   -0.8822   -1.3530 H   0  0  0  0  0  0  0  0  0  0  0  0
   -2.4322   -2.0718   -0.0276 H   0  0  0  0  0  0  0  0  0  0  0  0
   -2.8387   -0.1878    2.2821 H   0  0  0  0  0  0  0  0  0  0  0  0
   -3.9572   -1.5365    2.1365 H   0  0  0  0  0  0  0  0  0  0  0  0
   -4.5510    0.1356    2.2990 H   0  0  0  0  0  0  0  0  0  0  0  0
   -4.7001    1.6493    0.2831 H   0  0  0  0  0  0  0  0  0  0  0  0
   -2.9711    1.6617    0.3957 H   0  0  0  0  0  0  0  0  0  0  0  0
   -3.6912    1.3248   -1.1471 H   0  0  0  0  0  0  0  0  0  0  0  0
   -4.0529   -1.4990   -2.1978 H   0  0  0  0  0  0  0  0  0  0  0  0
   -4.9311    0.0601   -2.1246 H   0  0  0  0  0  0  0  0  0  0  0  0
   -5.7645   -1.4671   -2.1115 H   0  0  0  0  0  0  0  0  0  0  0  0
   -6.9632   -1.1059   -0.1232 H   0  0  0  0  0  0  0  0  0  0  0  0
   -6.3439    0.5171    0.0059 H   0  0  0  0  0  0  0  0  0  0  0  0
   -6.2273   -0.6434    1.3614 H   0  0  0  0  0  0  0  0  0  0  0  0
    0.5254    1.0685   -1.9013 H   0  0  0  0  0  0  0  0  0  0  0  0
    2.4093   -0.3304   -1.9475 H   0  0  0  0  0  0  0  0  0  0  0  0
    1.8329    1.8112    2.1475 H   0  0  0  0  0  0  0  0  0  0  0  0
    2.7185   -1.5662    2.1903 H   0  0  0  0  0  0  0  0  0  0  0  0
    0.0020    0.1766    2.0562 H   0  0  0  0  0  0  0  0  0  0  0  0
    0.6466    3.4783   -2.3720 H   0  0  0  0  0  0  0  0  0  0  0  0
    4.5625   -1.4070   -2.4112 H   0  0  0  0  0  0  0  0  0  0  0  0
    1.9316    4.2222    1.6603 H   0  0  0  0  0  0  0  0  0  0  0  0
    4.8536   -2.6466    1.6923 H   0  0  0  0  0  0  0  0  0  0  0  0
    1.3452    5.0653   -0.5978 H   0  0  0  0  0  0  0  0  0  0  0  0
    5.7929   -2.5758   -0.6021 H   0  0  0  0  0  0  0  0  0  0  0  0
  1  6  1  0  0  0  0
  1 12  1  0  0  0  0
  2  9  1  0  0  0  0
  2 43  1  0  0  0  0
  3 12  2  0  0  0  0
  4  5  1  0  0  0  0
  4 10  1  0  0  0  0
  4 11  1  0  0  0  0
  5  6  1  0  0  0  0
  5  7  1  0  0  0  0
  5  8  1  0  0  0  0
  6 25  1  0  0  0  0
  6 26  1  0  0  0  0
  7 27  1  0  0  0  0
  7 28  1  0  0  0  0
  7 29  1  0  0  0  0
  8 30  1  0  0  0  0
  8 31  1  0  0  0  0
  8 32  1  0  0  0  0
  9 12  1  0  0  0  0
  9 13  1  0  0  0  0
  9 14  1  0  0  0  0
 10 33  1  0  0  0  0
 10 34  1  0  0  0  0
 10 35  1  0  0  0  0
 11 36  1  0  0  0  0
 11 37  1  0  0  0  0
 11 38  1  0  0  0  0
 13 15  2  0  0  0  0
 13 17  1  0  0  0  0
 14 16  2  0  0  0  0
 14 18  1  0  0  0  0
 15 19  1  0  0  0  0
 15 39  1  0  0  0  0
 16 20  1  0  0  0  0
 16 40  1  0  0  0  0
 17 21  2  0  0  0  0
 17 41  1  0  0  0  0
 18 22  2  0  0  0  0
 18 42  1  0  0  0  0
 19 23  2  0  0  0  0
 19 44  1  0  0  0  0
 20 24  2  0  0  0  0
 20 45  1  0  0  0  0
 21 23  1  0  0  0  0
 21 46  1  0  0  0  0
 22 24  1  0  0  0  0
 22 47  1  0  0  0  0
 23 48  1  0  0  0  0
 24 49  1  0  0  0  0
M  END
> <DATABASE_ID>
DB13380

> <DATABASE_NAME>
drugbank

> <ORIGINAL_SOURCE>
PUBCHEM

> <ORIGINAL_SOURCE_URL>
https://pubchem.ncbi.nlm.nih.gov/rest/pug/compound/inchikey/GUONSMXZEYTWML-UHFFFAOYSA-N/SDF?record_type=3d

> <SMILES>
CN(C)C(C)(C)COC(=O)C(O)(C1=CC=CC=C1)C1=CC=CC=C1

> <INCHI_IDENTIFIER>
InChI=1S/C20H25NO3/c1-19(2,21(3)4)15-24-18(22)20(23,16-11-7-5-8-12-16)17-13-9-6-10-14-17/h5-14,23H,15H2,1-4H3

> <INCHI_KEY>
GUONSMXZEYTWML-UHFFFAOYSA-N

> <FORMULA>
C20H25NO3

> <MOLECULAR_WEIGHT>
327.424

> <EXACT_MASS>
327.183443669

> <JCHEM_ACCEPTOR_COUNT>
3

> <JCHEM_ATOM_COUNT>
49

> <JCHEM_AVERAGE_POLARIZABILITY>
35.891497264053015

> <JCHEM_BIOAVAILABILITY>
1

> <JCHEM_DONOR_COUNT>
1

> <JCHEM_FORMAL_CHARGE>
0

> <JCHEM_GHOSE_FILTER>
1

> <JCHEM_IUPAC>
2-(dimethylamino)-2-methylpropyl 2-hydroxy-2,2-diphenylacetate

> <ALOGPS_LOGP>
3.27

> <JCHEM_LOGP>
3.4192373593333327

> <ALOGPS_LOGS>
-3.42

> <JCHEM_MDDR_LIKE_RULE>
0

> <JCHEM_NUMBER_OF_RINGS>
2

> <JCHEM_PHYSIOLOGICAL_CHARGE>
1

> <JCHEM_PKA_STRONGEST_ACIDIC>
11.05403602532874

> <JCHEM_PKA_STRONGEST_BASIC>
8.994054560196986

> <JCHEM_POLAR_SURFACE_AREA>
49.77

> <JCHEM_REFRACTIVITY>
95.32730000000001

> <JCHEM_ROTATABLE_BOND_COUNT>
7

> <JCHEM_RULE_OF_FIVE>
1

> <ALOGPS_SOLUBILITY>
1.25e-01 g/l

> <JCHEM_TRADITIONAL_IUPAC>
2-(dimethylamino)-2-methylpropyl hydroxydiphenylacetate

> <JCHEM_VEBER_RULE>
0

> <DRUGBANK_ID>
DB13380

> <DRUG_GROUPS>
experimental

> <GENERIC_NAME>
Difemerine

$$$$
