REMARK  Name = 14759
REMARK  5 active torsions:
REMARK  status: ('A' for Active; 'I' for Inactive)
REMARK    1  A    between atoms: C_1  and  C_10
REMARK    2  A    between atoms: C_2  and  O_8
REMARK    3  A    between atoms: C_10  and  C_11
REMARK    4  A    between atoms: C_11  and  C_12
REMARK    5  A    between atoms: C_12  and  C_13
REMARK                            x       y       z     vdW  Elec       q    Type
REMARK                         _______ _______ _______ _____ _____    ______ ____
ROOT
ATOM      1  C   UNL     1       0.536  -0.072  -0.521  0.00  0.00    +0.011 C 
ATOM      2  C   UNL     1       1.232   1.057  -0.115  0.00  0.00    +0.129 C 
ATOM      3  C   UNL     1       1.136  -1.323  -0.521  0.00  0.00    -0.002 C 
ATOM      4  C   UNL     1       3.172  -0.320   0.307  0.00  0.00    -0.019 C 
ATOM      5  C   UNL     1       2.558   0.932   0.302  0.00  0.00    +0.032 C 
ATOM      6  C   UNL     1       2.462  -1.448  -0.104  0.00  0.00    -0.004 C 
ATOM      7  C   UNL     1       4.589  -0.453   0.752  0.00  0.00    +0.031 C 
ENDROOT
BRANCH   2   8
ATOM      8  O   UNL     1       0.646   2.287  -0.114  0.00  0.00    -0.506 OA
ATOM      9  H   UNL     1      -0.243   2.382  -0.392  0.00  0.00    +0.292 HD
ENDBRANCH   2   8
BRANCH   1  10
ATOM     10  C   UNL     1      -0.898   0.043  -0.974  0.00  0.00    +0.029 C 
BRANCH  10  11
ATOM     11  C   UNL     1      -1.919  -0.116   0.158  0.00  0.00    +0.005 C 
BRANCH  11  12
ATOM     12  C   UNL     1      -3.370  -0.072  -0.333  0.00  0.00    +0.000 C 
BRANCH  12  13
ATOM     13  C   UNL     1      -4.352  -0.260   0.824  0.00  0.00    +0.000 C 
ATOM     14  C   UNL     1      -5.792  -0.256   0.339  0.00  0.00    +0.000 C 
ENDBRANCH  12  13
ENDBRANCH  11  12
ENDBRANCH  10  11
ENDBRANCH   1  10
TORSDOF 5
