REMARK  Name = 19396
REMARK  4 active torsions:
REMARK  status: ('A' for Active; 'I' for Inactive)
REMARK    1  A    between atoms: N_4  and  C_17
REMARK    2  A    between atoms: C_17  and  C_18
REMARK    3  A    between atoms: C_18  and  C_20
REMARK    4  A    between atoms: C_20  and  N_21
REMARK                            x       y       z     vdW  Elec       q    Type
REMARK                         _______ _______ _______ _____ _____    ______ ____
ROOT
ATOM      1  S   UNL     1      -1.858   1.049   1.101  0.00  0.00    +0.030 S 
ATOM      2  O   UNL     1      -1.283   0.750   2.397  0.00  0.00    -0.164 OA
ATOM      3  O   UNL     1      -3.072   1.828   0.951  0.00  0.00    -0.164 OA
ATOM      4  N   UNL     1      -0.090  -0.221  -1.007  0.00  0.00    -0.285 N 
ATOM      5  C   UNL     1      -1.249  -0.954  -0.653  0.00  0.00    +0.069 C 
ATOM      6  C   UNL     1       0.123   1.159  -0.775  0.00  0.00    +0.069 C 
ATOM      7  C   UNL     1      -2.153  -0.487   0.310  0.00  0.00    +0.124 C 
ATOM      8  C   UNL     1      -0.620   1.873   0.174  0.00  0.00    +0.124 C 
ATOM      9  C   UNL     1      -1.586  -2.181  -1.260  0.00  0.00    +0.016 C 
ATOM     10  C   UNL     1       1.072   1.912  -1.497  0.00  0.00    +0.016 C 
ATOM     11  C   UNL     1      -3.307  -1.187   0.680  0.00  0.00    +0.020 C 
ATOM     12  C   UNL     1      -0.435   3.237   0.424  0.00  0.00    +0.020 C 
ATOM     13  C   UNL     1      -2.737  -2.896  -0.903  0.00  0.00    +0.001 C 
ATOM     14  C   UNL     1       1.272   3.278  -1.260  0.00  0.00    +0.001 C 
ATOM     15  C   UNL     1      -3.595  -2.400   0.070  0.00  0.00    +0.001 C 
ATOM     16  C   UNL     1       0.521   3.940  -0.296  0.00  0.00    +0.001 C 
ENDROOT
BRANCH   4  17
ATOM     17  C   UNL     1       0.970  -0.951  -1.717  0.00  0.00    +0.093 C 
BRANCH  17  18
ATOM     18  C   UNL     1       2.278  -0.992  -0.908  0.00  0.00    -0.001 C 
ATOM     19  C   UNL     1       3.359  -1.791  -1.645  0.00  0.00    -0.000 C 
BRANCH  18  20
ATOM     20  C   UNL     1       2.108  -1.540   0.522  0.00  0.00    -0.076 C 
BRANCH  20  21
ATOM     21  N   UNL     1       3.339  -1.437   1.298  0.00  0.00    +0.384 N 
ATOM     22  C   UNL     1       3.135  -1.941   2.657  0.00  0.00    -0.101 C 
ATOM     23  C   UNL     1       3.809  -0.051   1.336  0.00  0.00    -0.101 C 
ATOM     24  H   UNL     1       4.051  -2.008   0.844  0.00  0.00    -0.080 HD
ENDBRANCH  20  21
ENDBRANCH  18  20
ENDBRANCH  17  18
ENDBRANCH   4  17
TORSDOF 4
