REMARK  Name = 22609888
REMARK  5 active torsions:
REMARK  status: ('A' for Active; 'I' for Inactive)
REMARK    1  A    between atoms: C_5  and  C_18
REMARK    2  A    between atoms: C_6  and  O_22
REMARK    3  A    between atoms: C_9  and  C_12
REMARK    4  A    between atoms: O_22  and  C_23
REMARK    5  A    between atoms: C_23  and  C_27
REMARK                            x       y       z     vdW  Elec       q    Type
REMARK                         _______ _______ _______ _____ _____    ______ ____
ROOT
ATOM      1  N   UNL     1      -1.387   1.137  -0.057  0.00  0.00    -0.188 N 
ATOM      2  N   UNL     1      -0.399   0.212  -0.173  0.00  0.00    -0.125 NA
ATOM      3  N   UNL     1      -2.440   3.060   0.075  0.00  0.00    -0.127 NA
ATOM      4  N   UNL     1      -3.370   2.044   0.164  0.00  0.00    -0.127 NA
ATOM      5  C   UNL     1       1.097   2.205  -0.312  0.00  0.00    +0.035 C 
ATOM      6  C   UNL     1       0.768   0.758  -0.293  0.00  0.00    +0.239 C 
ATOM      7  C   UNL     1       0.051   3.039  -0.191  0.00  0.00    +0.041 C 
ATOM      8  C   UNL     1      -1.252   2.508  -0.058  0.00  0.00    +0.187 A 
ATOM      9  C   UNL     1      -2.723   0.902   0.084  0.00  0.00    +0.191 A 
ENDROOT
BRANCH   9  12
ATOM     10  F   UNL     1      -4.626   0.054  -1.792  0.00  0.00    -0.204 F 
ATOM     11  F   UNL     1      -2.030  -0.959   2.063  0.00  0.00    -0.204 F 
ATOM     12  C   UNL     1      -3.311  -0.414   0.134  0.00  0.00    +0.092 C 
ATOM     13  C   UNL     1      -4.254  -0.794  -0.821  0.00  0.00    +0.145 C 
ATOM     14  C   UNL     1      -2.936  -1.308   1.137  0.00  0.00    +0.145 C 
ATOM     15  C   UNL     1      -4.822  -2.067  -0.773  0.00  0.00    +0.030 C 
ATOM     16  C   UNL     1      -3.504  -2.581   1.185  0.00  0.00    +0.030 C 
ATOM     17  C   UNL     1      -4.447  -2.961   0.230  0.00  0.00    +0.005 C 
ENDBRANCH   9  12
BRANCH   5  18
ATOM     18  C   UNL     1       2.473   2.724  -0.453  0.00  0.00    +0.027 C 
ATOM     19  C   UNL     1       3.557   1.952   0.327  0.00  0.00    +0.005 C 
ATOM     20  C   UNL     1       2.817   3.944   0.428  0.00  0.00    +0.005 C 
ATOM     21  C   UNL     1       4.215   3.317   0.615  0.00  0.00    +0.001 C 
ENDBRANCH   5  18
BRANCH   6  22
ATOM     22  O   UNL     1       1.873  -0.007  -0.419  0.00  0.00    -0.451 OA
BRANCH  22  23
ATOM     23  C   UNL     1       1.609  -1.400  -0.407  0.00  0.00    +0.269 C 
BRANCH  23  27
ATOM     24  N   UNL     1       3.684  -2.453   0.543  0.00  0.00    -0.192 N 
ATOM     25  N   UNL     1       3.534  -2.460  -1.637  0.00  0.00    -0.207 NA
ATOM     26  N   UNL     1       4.816  -3.063   0.159  0.00  0.00    -0.154 NA
ATOM     27  C   UNL     1       2.928  -2.098  -0.530  0.00  0.00    +0.174 C 
ATOM     28  C   UNL     1       3.403  -2.251   1.942  0.00  0.00    +0.141 C 
ATOM     29  C   UNL     1       4.677  -3.041  -1.169  0.00  0.00    +0.218 C 
ENDBRANCH  23  27
ENDBRANCH  22  23
ENDBRANCH   6  22
TORSDOF 5
