9862937
  -OEChem-10061700263D

 42 44  0     0  0  0  0  0  0999 V2000
   -1.0536   -1.9895   -0.2549 S   0  0  0  0  0  0  0  0  0  0  0  0
   -7.0191    1.2092   -0.2844 O   0  0  0  0  0  0  0  0  0  0  0  0
    5.9417    0.6789   -0.2330 O   0  0  0  0  0  0  0  0  0  0  0  0
   -4.6977   -0.3046    0.3646 N   0  0  0  0  0  0  0  0  0  0  0  0
    1.6030   -1.5869   -0.3724 N   0  0  0  0  0  0  0  0  0  0  0  0
    0.4542    0.2580    0.0929 N   0  0  0  0  0  0  0  0  0  0  0  0
   -6.0434   -0.8900    0.4424 C   0  0  0  0  0  0  0  0  0  0  0  0
   -4.6661    0.7508   -0.6574 C   0  0  0  0  0  0  0  0  0  0  0  0
   -3.6999   -1.3336    0.0789 C   0  0  0  0  0  0  0  0  0  0  0  0
   -7.0684    0.2037    0.7286 C   0  0  0  0  0  0  0  0  0  0  0  0
   -5.7231    1.8060   -0.3444 C   0  0  0  0  0  0  0  0  0  0  0  0
   -2.3048   -0.7215    0.0995 C   0  0  0  0  0  0  0  0  0  0  0  0
    0.4090   -1.0036   -0.1626 C   0  0  0  0  0  0  0  0  0  0  0  0
    2.5409   -0.5953   -0.2397 C   0  0  0  0  0  0  0  0  0  0  0  0
    1.7990    0.5462    0.0505 C   0  0  0  0  0  0  0  0  0  0  0  0
    3.9322   -0.5987   -0.3454 C   0  0  0  0  0  0  0  0  0  0  0  0
    2.4681    1.7655    0.2503 C   0  0  0  0  0  0  0  0  0  0  0  0
    4.5819    0.6234   -0.1438 C   0  0  0  0  0  0  0  0  0  0  0  0
    3.8648    1.7857    0.1489 C   0  0  0  0  0  0  0  0  0  0  0  0
    6.6615   -0.4995    0.1210 C   0  0  0  0  0  0  0  0  0  0  0  0
    8.0197   -0.1043    0.6603 C   0  0  0  0  0  0  0  0  0  0  0  0
   -6.2966   -1.3883   -0.5024 H   0  0  0  0  0  0  0  0  0  0  0  0
   -6.0884   -1.6367    1.2434 H   0  0  0  0  0  0  0  0  0  0  0  0
   -3.7134    1.2856   -0.6789 H   0  0  0  0  0  0  0  0  0  0  0  0
   -4.8519    0.3284   -1.6534 H   0  0  0  0  0  0  0  0  0  0  0  0
   -3.8985   -1.8112   -0.8901 H   0  0  0  0  0  0  0  0  0  0  0  0
   -3.7583   -2.1144    0.8484 H   0  0  0  0  0  0  0  0  0  0  0  0
   -8.0773   -0.2212    0.7266 H   0  0  0  0  0  0  0  0  0  0  0  0
   -6.9048    0.6649    1.7103 H   0  0  0  0  0  0  0  0  0  0  0  0
   -5.5138    2.3220    0.6007 H   0  0  0  0  0  0  0  0  0  0  0  0
   -5.7424    2.5615   -1.1364 H   0  0  0  0  0  0  0  0  0  0  0  0
   -2.1724    0.0360   -0.6757 H   0  0  0  0  0  0  0  0  0  0  0  0
   -2.0982   -0.2693    1.0760 H   0  0  0  0  0  0  0  0  0  0  0  0
    1.7817   -2.5596   -0.5855 H   0  0  0  0  0  0  0  0  0  0  0  0
    4.4495   -1.5162   -0.6003 H   0  0  0  0  0  0  0  0  0  0  0  0
    1.9199    2.6740    0.4782 H   0  0  0  0  0  0  0  0  0  0  0  0
    4.3924    2.7243    0.3024 H   0  0  0  0  0  0  0  0  0  0  0  0
    6.7850   -1.1276   -0.7681 H   0  0  0  0  0  0  0  0  0  0  0  0
    6.1513   -1.0705    0.9070 H   0  0  0  0  0  0  0  0  0  0  0  0
    7.9134    0.5355    1.5427 H   0  0  0  0  0  0  0  0  0  0  0  0
    8.5775    0.4723   -0.0850 H   0  0  0  0  0  0  0  0  0  0  0  0
    8.6050   -0.9871    0.9329 H   0  0  0  0  0  0  0  0  0  0  0  0
  1 12  1  0  0  0  0
  1 13  1  0  0  0  0
  2 10  1  0  0  0  0
  2 11  1  0  0  0  0
  3 18  1  0  0  0  0
  3 20  1  0  0  0  0
  4  7  1  0  0  0  0
  4  8  1  0  0  0  0
  4  9  1  0  0  0  0
  5 13  1  0  0  0  0
  5 14  1  0  0  0  0
  5 34  1  0  0  0  0
  6 13  2  0  0  0  0
  6 15  1  0  0  0  0
  7 10  1  0  0  0  0
  7 22  1  0  0  0  0
  7 23  1  0  0  0  0
  8 11  1  0  0  0  0
  8 24  1  0  0  0  0
  8 25  1  0  0  0  0
  9 12  1  0  0  0  0
  9 26  1  0  0  0  0
  9 27  1  0  0  0  0
 10 28  1  0  0  0  0
 10 29  1  0  0  0  0
 11 30  1  0  0  0  0
 11 31  1  0  0  0  0
 12 32  1  0  0  0  0
 12 33  1  0  0  0  0
 14 15  2  0  0  0  0
 14 16  1  0  0  0  0
 15 17  1  0  0  0  0
 16 18  2  0  0  0  0
 16 35  1  0  0  0  0
 17 19  2  0  0  0  0
 17 36  1  0  0  0  0
 18 19  1  0  0  0  0
 19 37  1  0  0  0  0
 20 21  1  0  0  0  0
 20 38  1  0  0  0  0
 20 39  1  0  0  0  0
 21 40  1  0  0  0  0
 21 41  1  0  0  0  0
 21 42  1  0  0  0  0
M  END
> <DATABASE_ID>
DB13623

> <DATABASE_NAME>
drugbank

> <ORIGINAL_SOURCE>
PUBCHEM

> <ORIGINAL_SOURCE_URL>
https://pubchem.ncbi.nlm.nih.gov/rest/pug/compound/inchikey/WWNUCVSRRUDYPP-UHFFFAOYSA-N/SDF?record_type=3d

> <SMILES>
CCOC1=CC=C2NC(SCCN3CCOCC3)=NC2=C1

> <INCHI_IDENTIFIER>
InChI=1S/C15H21N3O2S/c1-2-20-12-3-4-13-14(11-12)17-15(16-13)21-10-7-18-5-8-19-9-6-18/h3-4,11H,2,5-10H2,1H3,(H,16,17)

> <INCHI_KEY>
WWNUCVSRRUDYPP-UHFFFAOYSA-N

> <FORMULA>
C15H21N3O2S

> <MOLECULAR_WEIGHT>
307.41

> <EXACT_MASS>
307.135448102

> <JCHEM_ACCEPTOR_COUNT>
4

> <JCHEM_ATOM_COUNT>
42

> <JCHEM_AVERAGE_POLARIZABILITY>
34.936633150807815

> <JCHEM_BIOAVAILABILITY>
1

> <JCHEM_DONOR_COUNT>
1

> <JCHEM_FORMAL_CHARGE>
0

> <JCHEM_GHOSE_FILTER>
1

> <JCHEM_IUPAC>
5-ethoxy-2-{[2-(morpholin-4-yl)ethyl]sulfanyl}-1H-1,3-benzodiazole

> <ALOGPS_LOGP>
2.28

> <JCHEM_LOGP>
2.311566477666667

> <ALOGPS_LOGS>
-3.24

> <JCHEM_MDDR_LIKE_RULE>
1

> <JCHEM_NUMBER_OF_RINGS>
3

> <JCHEM_PHYSIOLOGICAL_CHARGE>
0

> <JCHEM_PKA_STRONGEST_ACIDIC>
10.78953967117315

> <JCHEM_PKA_STRONGEST_BASIC>
6.671503312508332

> <JCHEM_POLAR_SURFACE_AREA>
50.379999999999995

> <JCHEM_REFRACTIVITY>
85.70929999999998

> <JCHEM_ROTATABLE_BOND_COUNT>
6

> <JCHEM_RULE_OF_FIVE>
1

> <ALOGPS_SOLUBILITY>
1.78e-01 g/l

> <JCHEM_TRADITIONAL_IUPAC>
5-ethoxy-2-{[2-(morpholin-4-yl)ethyl]sulfanyl}-1H-1,3-benzodiazole

> <JCHEM_VEBER_RULE>
0

> <DRUGBANK_ID>
DB13623

> <DRUG_GROUPS>
experimental

> <GENERIC_NAME>
Fabomotizole

$$$$
