REMARK  Name = 8593
REMARK  3 active torsions:
REMARK  status: ('A' for Active; 'I' for Inactive)
REMARK    1  A    between atoms: C_4  and  C_11
REMARK    2  A    between atoms: C_5  and  C_18
REMARK    3  A    between atoms: C_18  and  O_19
REMARK                            x       y       z     vdW  Elec       q    Type
REMARK                         _______ _______ _______ _____ _____    ______ ____
ROOT
ATOM      1  N   UNL     1      -0.226  -1.267   0.006  0.00  0.00    -0.406 NA
ATOM      2  C   UNL     1       1.916  -0.163  -0.017  0.00  0.00    +0.032 C 
ATOM      3  C   UNL     1       1.119  -1.327   0.003  0.00  0.00    +0.113 C 
ATOM      4  C   UNL     1      -0.812  -0.047  -0.010  0.00  0.00    +0.131 C 
ATOM      5  C   UNL     1       1.269   1.080  -0.033  0.00  0.00    +0.080 C 
ATOM      6  C   UNL     1      -0.117   1.145  -0.030  0.00  0.00    +0.039 C 
ATOM      7  C   UNL     1       3.318  -0.263  -0.020  0.00  0.00    +0.002 C 
ATOM      8  C   UNL     1       1.763  -2.561   0.018  0.00  0.00    +0.085 C 
ATOM      9  C   UNL     1       3.935  -1.510  -0.004  0.00  0.00    -0.004 C 
ATOM     10  C   UNL     1       3.156  -2.660   0.016  0.00  0.00    -0.019 C 
ENDROOT
BRANCH   4  11
ATOM     11  C   UNL     1      -2.255  -0.068  -0.005  0.00  0.00    +0.030 C 
ATOM     12  C   UNL     1      -2.960  -0.096  -1.210  0.00  0.00    +0.003 C 
ATOM     13  C   UNL     1      -2.952  -0.061   1.206  0.00  0.00    +0.003 C 
ATOM     14  C   UNL     1      -4.355  -0.116  -1.205  0.00  0.00    +0.000 C 
ATOM     15  C   UNL     1      -4.347  -0.082   1.211  0.00  0.00    +0.000 C 
ATOM     16  C   UNL     1      -5.048  -0.109   0.005  0.00  0.00    +0.000 C 
ENDBRANCH   4  11
BRANCH   5  18
ATOM     17  O   UNL     1       2.346   2.947  -1.072  0.00  0.00    -0.245 OA
ATOM     18  C   UNL     1       1.996   2.346  -0.055  0.00  0.00    +0.338 C 
BRANCH  18  19
ATOM     19  O   UNL     1       2.255   2.812   1.195  0.00  0.00    -0.477 OA
ATOM     20  H   UNL     1       1.972   2.326   1.945  0.00  0.00    +0.295 HD
ENDBRANCH  18  19
ENDBRANCH   5  18
TORSDOF 3
