REMARK  Name = 685814
REMARK  2 active torsions:
REMARK  status: ('A' for Active; 'I' for Inactive)
REMARK    1  A    between atoms: C_5  and  C_11
REMARK    2  A    between atoms: C_11  and  C_12
REMARK                            x       y       z     vdW  Elec       q    Type
REMARK                         _______ _______ _______ _____ _____    ______ ____
ROOT
ATOM      1  S   UNL     1       3.178   2.668  -0.515  0.00  0.00    -0.018 S 
ATOM      2  O   UNL     1       3.117  -2.317  -0.676  0.00  0.00    -0.270 OA
ATOM      3  N   UNL     1       1.306   1.065   0.516  0.00  0.00    -0.299 N 
ATOM      4  N   UNL     1       3.085  -0.006  -0.568  0.00  0.00    -0.264 N 
ATOM      5  C   UNL     1       0.723  -0.147   0.808  0.00  0.00    +0.036 C 
ATOM      6  C   UNL     1       1.296  -1.298   0.427  0.00  0.00    +0.069 C 
ATOM      7  C   UNL     1       2.492   1.183  -0.174  0.00  0.00    +0.141 C 
ATOM      8  C   UNL     1       2.578  -1.273  -0.321  0.00  0.00    +0.252 C 
ATOM      9  H   UNL     1       0.853   1.886   0.814  0.00  0.00    +0.154 HD
ATOM     10  H   UNL     1       3.934   0.054  -1.063  0.00  0.00    +0.157 HD
ENDROOT
BRANCH   5  11
ATOM     11  C   UNL     1      -0.567  -0.094   1.565  0.00  0.00    +0.068 C 
BRANCH  11  12
ATOM     12  C   UNL     1      -1.765  -0.026   0.658  0.00  0.00    -0.016 C 
ATOM     13  C   UNL     1      -2.369  -1.202   0.231  0.00  0.00    -0.004 C 
ATOM     14  C   UNL     1      -2.253   1.211   0.259  0.00  0.00    -0.004 C 
ATOM     15  C   UNL     1      -3.479  -1.138  -0.610  0.00  0.00    -0.000 C 
ATOM     16  C   UNL     1      -3.364   1.274  -0.582  0.00  0.00    -0.000 C 
ATOM     17  C   UNL     1      -3.977   0.100  -1.017  0.00  0.00    -0.000 C 
ENDBRANCH  11  12
ENDBRANCH   5  11
TORSDOF 2
