REMARK  Name = 65814
REMARK  7 active torsions:
REMARK  status: ('A' for Active; 'I' for Inactive)
REMARK    1  A    between atoms: C_1  and  O_2
REMARK    2  A    between atoms: C_1  and  C_4
REMARK    3  A    between atoms: C_1  and  C_12
REMARK    4  A    between atoms: C_4  and  N_5
REMARK    5  A    between atoms: N_5  and  C_8
REMARK    6  A    between atoms: C_12  and  O_13
REMARK    7  A    between atoms: O_13  and  C_16
REMARK                            x       y       z     vdW  Elec       q    Type
REMARK                         _______ _______ _______ _____ _____    ______ ____
ROOT
ATOM      1  C   UNL     1      -1.558  -2.176  -0.308  0.00  0.00    +0.133 C 
ENDROOT
BRANCH   1   2
ATOM      2  O   UNL     1      -1.637  -3.151   0.736  0.00  0.00    -0.383 OA
ATOM      3  H   UNL     1      -2.568  -3.351   0.921  0.00  0.00    +0.210 HD
ENDBRANCH   1   2
BRANCH   1   4
ATOM      4  C   UNL     1      -2.356  -0.945   0.127  0.00  0.00    -0.048 C 
BRANCH   4   5
ATOM      5  N   UNL     1      -2.383   0.080  -0.903  0.00  0.00    +0.388 N 
ATOM      6  H   UNL     1      -1.428   0.370  -1.113  0.00  0.00    -0.084 HD
ATOM      7  H   UNL     1      -2.827  -0.303  -1.738  0.00  0.00    -0.084 HD
BRANCH   5   8
ATOM      8  C   UNL     1      -3.151   1.245  -0.452  0.00  0.00    -0.046 C 
ATOM      9  C   UNL     1      -3.159   2.289  -1.573  0.00  0.00    -0.022 C 
ATOM     10  C   UNL     1      -4.583   0.795  -0.142  0.00  0.00    -0.022 C 
ATOM     11  C   UNL     1      -2.498   1.828   0.807  0.00  0.00    -0.022 C 
ENDBRANCH   5   8
ENDBRANCH   4   5
ENDBRANCH   1   4
BRANCH   1  12
ATOM     12  C   UNL     1      -0.086  -1.875  -0.586  0.00  0.00    +0.232 C 
BRANCH  12  13
ATOM     13  O   UNL     1       0.503  -1.334   0.593  0.00  0.00    -0.472 OA
BRANCH  13  16
ATOM     14 CL   UNL     1       0.794   0.771   2.720  0.00  0.00    -0.079 Cl
ATOM     15 CL   UNL     1       4.443   0.058  -2.286  0.00  0.00    -0.082 Cl
ATOM     16  C   UNL     1       1.546  -0.465   0.416  0.00  0.00    +0.150 C 
ATOM     17  C   UNL     1       1.792   0.556   1.329  0.00  0.00    +0.092 C 
ATOM     18  C   UNL     1       2.361  -0.623  -0.701  0.00  0.00    +0.049 C 
ATOM     19  C   UNL     1       3.431   0.248  -0.907  0.00  0.00    +0.061 C 
ATOM     20  C   UNL     1       2.862   1.427   1.123  0.00  0.00    +0.015 C 
ATOM     21  C   UNL     1       3.681   1.273   0.005  0.00  0.00    +0.012 C 
ENDBRANCH  13  16
ENDBRANCH  12  13
ENDBRANCH   1  12
TORSDOF 7
