REMARK  Name = 5476
REMARK  3 active torsions:
REMARK  status: ('A' for Active; 'I' for Inactive)
REMARK    1  A    between atoms: C_4  and  O_20
REMARK    2  A    between atoms: C_9  and  C_11
REMARK    3  A    between atoms: C_9  and  C_16
REMARK                            x       y       z     vdW  Elec       q    Type
REMARK                         _______ _______ _______ _____ _____    ______ ____
ROOT
ATOM      1  N   UNL     1       1.839  -2.168  -0.134  0.00  0.00    +0.391 N 
ATOM      2  C   UNL     1       3.047  -1.253   0.102  0.00  0.00    -0.042 C 
ATOM      3  C   UNL     1       0.640  -1.685   0.706  0.00  0.00    -0.050 C 
ATOM      4  C   UNL     1       2.706   0.221  -0.127  0.00  0.00    +0.099 C 
ATOM      5  C   UNL     1       1.521   0.684   0.724  0.00  0.00    +0.047 C 
ATOM      6  C   UNL     1       0.340  -0.223   0.534  0.00  0.00    -0.061 C 
ATOM      7  C   UNL     1       2.209  -3.586   0.308  0.00  0.00    -0.095 C 
ATOM      8  C   UNL     1       1.471  -2.223  -1.616  0.00  0.00    -0.095 C 
ATOM      9  C   UNL     1      -0.879   0.231   0.214  0.00  0.00    +0.002 C 
ENDROOT
BRANCH   9  11
ATOM     10  S   UNL     1      -2.881  -1.128   1.414  0.00  0.00    -0.086 S 
ATOM     11  C   UNL     1      -1.951  -0.725   0.054  0.00  0.00    +0.029 C 
ATOM     12  C   UNL     1      -2.322  -1.366  -1.082  0.00  0.00    +0.007 C 
ATOM     13  C   UNL     1      -3.426  -2.235  -0.840  0.00  0.00    +0.007 C 
ATOM     14  C   UNL     1      -3.830  -2.202   0.477  0.00  0.00    +0.035 C 
ENDBRANCH   9  11
BRANCH   9  16
ATOM     15  S   UNL     1      -0.829   2.318  -1.501  0.00  0.00    -0.086 S 
ATOM     16  C   UNL     1      -1.061   1.655   0.043  0.00  0.00    +0.029 C 
ATOM     17  C   UNL     1      -1.405   2.562   0.991  0.00  0.00    +0.007 C 
ATOM     18  C   UNL     1      -1.487   3.872   0.437  0.00  0.00    +0.007 C 
ATOM     19  C   UNL     1      -1.197   3.883  -0.910  0.00  0.00    +0.035 C 
ENDBRANCH   9  16
BRANCH   4  20
ATOM     20  O   UNL     1       3.855   0.992   0.219  0.00  0.00    -0.355 OA
ATOM     21  C   UNL     1       3.641   2.376  -0.013  0.00  0.00    +0.174 C 
ENDBRANCH   4  20
TORSDOF 3
