REMARK  Name = 70846
REMARK  1 active torsions:
REMARK  status: ('A' for Active; 'I' for Inactive)
REMARK    1  A    between atoms: C_3  and  C_13
REMARK                            x       y       z     vdW  Elec       q    Type
REMARK                         _______ _______ _______ _____ _____    ______ ____
ROOT
ATOM      1  O   UNL     1       0.597  -2.025   1.558  0.00  0.00    -0.291 OA
ATOM      2  O   UNL     1       0.557   2.549   0.292  0.00  0.00    -0.291 OA
ATOM      3  C   UNL     1      -0.014   0.321   1.158  0.00  0.00    +0.146 C 
ATOM      4  C   UNL     1       0.835  -0.938   1.066  0.00  0.00    +0.184 C 
ATOM      5  C   UNL     1       0.815   1.367   0.428  0.00  0.00    +0.184 C 
ATOM      6  C   UNL     1       2.024  -0.629   0.269  0.00  0.00    +0.038 C 
ATOM      7  C   UNL     1       2.012   0.713  -0.102  0.00  0.00    +0.038 C 
ATOM      8  C   UNL     1       3.055  -1.474  -0.095  0.00  0.00    +0.003 C 
ATOM      9  C   UNL     1       3.030   1.267  -0.854  0.00  0.00    +0.003 C 
ATOM     10  C   UNL     1       4.092  -0.931  -0.858  0.00  0.00    +0.000 C 
ATOM     11  C   UNL     1       4.080   0.426  -1.234  0.00  0.00    +0.000 C 
ENDROOT
BRANCH   3  13
ATOM     12 CL   UNL     1      -5.417  -0.425  -1.347  0.00  0.00    -0.082 Cl
ATOM     13  C   UNL     1      -1.352   0.137   0.537  0.00  0.00    -0.008 C 
ATOM     14  C   UNL     1      -2.454   0.848   1.020  0.00  0.00    -0.003 C 
ATOM     15  C   UNL     1      -1.514  -0.748  -0.532  0.00  0.00    -0.003 C 
ATOM     16  C   UNL     1      -3.710   0.674   0.437  0.00  0.00    +0.011 C 
ATOM     17  C   UNL     1      -2.770  -0.921  -1.114  0.00  0.00    +0.011 C 
ATOM     18  C   UNL     1      -3.867  -0.210  -0.629  0.00  0.00    +0.058 C 
ENDBRANCH   3  13
TORSDOF 1
