REMARK  Name = 70687267
REMARK  9 active torsions:
REMARK  status: ('A' for Active; 'I' for Inactive)
REMARK    1  A    between atoms: C_3  and  C_8
REMARK    2  A    between atoms: C_3  and  C_15
REMARK    3  A    between atoms: C_15  and  O_16
REMARK    4  A    between atoms: O_16  and  C_17
REMARK    5  A    between atoms: C_17  and  C_18
REMARK    6  A    between atoms: C_18  and  C_19
REMARK    7  A    between atoms: C_19  and  N_20
REMARK    8  A    between atoms: N_20  and  C_22
REMARK    9  A    between atoms: N_20  and  C_24
REMARK                            x       y       z     vdW  Elec       q    Type
REMARK                         _______ _______ _______ _____ _____    ______ ____
ROOT
ATOM      1  C   UNL     1       0.560   1.074   0.698  0.00  0.00    +0.014 C 
ATOM      2  C   UNL     1       0.701   2.624  -0.895  0.00  0.00    +0.001 C 
ATOM      3  C   UNL     1       1.331   0.306  -0.429  0.00  0.00    +0.108 C 
ATOM      4  C   UNL     1      -0.414   1.944  -0.111  0.00  0.00    +0.001 C 
ATOM      5  C   UNL     1       1.457   1.426  -1.510  0.00  0.00    +0.015 C 
ATOM      6  C   UNL     1       1.442   2.168   1.339  0.00  0.00    +0.001 C 
ATOM      7  C   UNL     1       1.559   3.220   0.231  0.00  0.00    +0.000 C 
ENDROOT
BRANCH   3   8
ATOM      8  C   UNL     1       2.655  -0.228   0.003  0.00  0.00    -0.013 C 
ATOM      9  C   UNL     1       2.838  -0.656   1.318  0.00  0.00    -0.004 C 
ATOM     10  C   UNL     1       3.709  -0.299  -0.907  0.00  0.00    -0.004 C 
ATOM     11  C   UNL     1       4.076  -1.156   1.722  0.00  0.00    -0.000 C 
ATOM     12  C   UNL     1       4.947  -0.799  -0.503  0.00  0.00    -0.000 C 
ATOM     13  C   UNL     1       5.131  -1.227   0.812  0.00  0.00    -0.000 C 
ENDBRANCH   3   8
BRANCH   3  15
ATOM     14  O   UNL     1       0.496  -1.219  -2.102  0.00  0.00    -0.250 OA
ATOM     15  C   UNL     1       0.506  -0.845  -0.937  0.00  0.00    +0.320 C 
BRANCH  15  16
ATOM     16  O   UNL     1      -0.207  -1.384   0.093  0.00  0.00    -0.448 OA
BRANCH  16  17
ATOM     17  C   UNL     1      -1.040  -2.495  -0.251  0.00  0.00    +0.206 C 
BRANCH  17  18
ATOM     18  C   UNL     1      -2.414  -1.974  -0.650  0.00  0.00    +0.025 C 
BRANCH  18  19
ATOM     19  C   UNL     1      -3.079  -1.216   0.494  0.00  0.00    -0.074 C 
BRANCH  19  20
ATOM     20  N   UNL     1      -4.400  -0.748   0.091  0.00  0.00    +0.387 N 
ATOM     21  H   UNL     1      -4.835  -1.474  -0.477  0.00  0.00    -0.080 HD
BRANCH  20  22
ATOM     22  C   UNL     1      -4.292   0.471  -0.714  0.00  0.00    -0.077 C 
ATOM     23  C   UNL     1      -5.657   0.932  -1.196  0.00  0.00    -0.025 C 
ENDBRANCH  20  22
BRANCH  20  24
ATOM     24  C   UNL     1      -5.242  -0.508   1.264  0.00  0.00    -0.077 C 
ATOM     25  C   UNL     1      -4.663   0.589   2.141  0.00  0.00    -0.025 C 
ENDBRANCH  20  24
ENDBRANCH  19  20
ENDBRANCH  18  19
ENDBRANCH  17  18
ENDBRANCH  16  17
ENDBRANCH  15  16
ENDBRANCH   3  15
TORSDOF 9
