REMARK  Name = 24988881
REMARK  6 active torsions:
REMARK  status: ('A' for Active; 'I' for Inactive)
REMARK    1  A    between atoms: C_4  and  O_22
REMARK    2  A    between atoms: C_11  and  C_16
REMARK    3  A    between atoms: N_14  and  C_17
REMARK    4  A    between atoms: C_17  and  C_19
REMARK    5  A    between atoms: C_19  and  O_20
REMARK    6  A    between atoms: O_22  and  C_25
REMARK                            x       y       z     vdW  Elec       q    Type
REMARK                         _______ _______ _______ _____ _____    ______ ____
ROOT
ATOM      1  O   UNL     1      -2.502  -1.553  -1.089  0.00  0.00    -0.342 OA
ATOM      2  N   UNL     1       0.559  -1.511   0.654  0.00  0.00    -0.290 N 
ATOM      3  N   UNL     1      -1.147  -1.859  -1.042  0.00  0.00    -0.061 NA
ATOM      4  C   UNL     1       3.099  -0.304   0.079  0.00  0.00    +0.169 C 
ATOM      5  C   UNL     1       2.501  -1.392  -0.820  0.00  0.00    +0.065 C 
ATOM      6  C   UNL     1       2.008   0.449   0.847  0.00  0.00    +0.065 C 
ATOM      7  C   UNL     1       1.574  -2.321  -0.032  0.00  0.00    +0.096 C 
ATOM      8  C   UNL     1       1.099  -0.525   1.595  0.00  0.00    +0.096 C 
ATOM      9  C   UNL     1      -0.735  -1.423   0.152  0.00  0.00    +0.175 C 
ATOM     10  C   UNL     1      -1.776  -0.840   0.895  0.00  0.00    +0.088 C 
ATOM     11  C   UNL     1      -2.865  -0.947   0.070  0.00  0.00    +0.242 C 
ENDROOT
BRANCH  11  16
ATOM     12  N   UNL     1      -5.250  -0.614  -0.466  0.00  0.00    -0.103 NA
ATOM     13  N   UNL     1      -4.554   0.122   1.559  0.00  0.00    -0.083 NA
ATOM     14  N   UNL     1      -6.217  -0.051   0.272  0.00  0.00    -0.103 N 
ATOM     15  N   UNL     1      -5.850   0.399   1.480  0.00  0.00    -0.018 NA
ATOM     16  C   UNL     1      -4.227  -0.481   0.382  0.00  0.00    +0.112 C 
BRANCH  14  17
ATOM     17  C   UNL     1      -7.572   0.062  -0.203  0.00  0.00    +0.246 C 
BRANCH  17  19
ATOM     18  O   UNL     1      -7.106   2.393  -0.621  0.00  0.00    -0.248 OA
ATOM     19  C   UNL     1      -7.884   1.451  -0.695  0.00  0.00    +0.338 C 
BRANCH  19  20
ATOM     20  O   UNL     1      -9.137   1.558  -1.203  0.00  0.00    -0.479 OA
ATOM     21  H   UNL     1      -9.694   0.805  -1.238  0.00  0.00    +0.295 HD
ENDBRANCH  19  20
ENDBRANCH  17  19
ENDBRANCH  14  17
ENDBRANCH  11  16
BRANCH   4  22
ATOM     22  O   UNL     1       3.851   0.611  -0.710  0.00  0.00    -0.478 OA
BRANCH  22  25
ATOM     23 BR   UNL     1       4.703   3.494   0.140  0.00  0.00    -0.046 Br
ATOM     24  F   UNL     1       8.115  -1.444  -0.373  0.00  0.00    -0.204 F 
ATOM     25  C   UNL     1       5.188   0.716  -0.427  0.00  0.00    +0.147 C 
ATOM     26  C   UNL     1       5.755   1.927  -0.029  0.00  0.00    +0.069 C 
ATOM     27  C   UNL     1       5.985  -0.423  -0.543  0.00  0.00    +0.067 C 
ATOM     28  C   UNL     1       7.119   1.999   0.252  0.00  0.00    +0.012 C 
ATOM     29  C   UNL     1       7.349  -0.351  -0.261  0.00  0.00    +0.143 C 
ATOM     30  C   UNL     1       7.916   0.860   0.136  0.00  0.00    +0.030 C 
ENDBRANCH  22  25
ENDBRANCH   4  22
TORSDOF 6
