REMARK  Name = 5536
REMARK  11 active torsions:
REMARK  status: ('A' for Active; 'I' for Inactive)
REMARK    1  A    between atoms: C_1  and  C_8
REMARK    2  A    between atoms: C_2  and  O_15
REMARK    3  A    between atoms: C_3  and  O_18
REMARK    4  A    between atoms: C_5  and  O_21
REMARK    5  A    between atoms: C_8  and  C_9
REMARK    6  A    between atoms: C_9  and  C_10
REMARK    7  A    between atoms: C_10  and  C_12
REMARK    8  A    between atoms: C_12  and  O_13
REMARK    9  A    between atoms: O_15  and  C_16
REMARK   10  A    between atoms: O_18  and  C_19
REMARK   11  A    between atoms: O_21  and  C_22
REMARK                            x       y       z     vdW  Elec       q    Type
REMARK                         _______ _______ _______ _____ _____    ______ ____
ROOT
ATOM      1  C   UNL     1       0.323   0.426  -0.666  0.00  0.00    +0.072 C 
ATOM      2  C   UNL     1      -0.433   1.579  -0.454  0.00  0.00    +0.144 C 
ATOM      3  C   UNL     1      -1.693  -0.904  -0.625  0.00  0.00    +0.172 C 
ATOM      4  C   UNL     1      -0.307  -0.815  -0.751  0.00  0.00    +0.046 C 
ATOM      5  C   UNL     1      -2.450   0.249  -0.413  0.00  0.00    +0.175 C 
ATOM      6  C   UNL     1      -1.819   1.490  -0.328  0.00  0.00    +0.077 C 
ENDROOT
BRANCH   1   8
ATOM      7  O   UNL     1       2.318   1.513  -1.274  0.00  0.00    -0.291 OA
ATOM      8  C   UNL     1       1.808   0.499  -0.804  0.00  0.00    +0.177 C 
BRANCH   8   9
ATOM      9  C   UNL     1       2.642  -0.690  -0.352  0.00  0.00    +0.081 C 
BRANCH   9  10
ATOM     10  C   UNL     1       4.032  -0.273   0.115  0.00  0.00    +0.117 C 
BRANCH  10  12
ATOM     11  O   UNL     1       4.428  -2.623   0.502  0.00  0.00    -0.250 OA
ATOM     12  C   UNL     1       4.837  -1.470   0.549  0.00  0.00    +0.314 C 
BRANCH  12  13
ATOM     13  O   UNL     1       6.066  -1.131   1.013  0.00  0.00    -0.480 OA
ATOM     14  H   UNL     1       6.329  -0.231   1.028  0.00  0.00    +0.295 HD
ENDBRANCH  12  13
ENDBRANCH  10  12
ENDBRANCH   9  10
ENDBRANCH   8   9
ENDBRANCH   1   8
BRANCH   2  15
ATOM     15  O   UNL     1       0.164   2.801  -0.368  0.00  0.00    -0.475 OA
BRANCH  15  16
ATOM     16  C   UNL     1      -0.013   3.524   0.848  0.00  0.00    +0.206 C 
ATOM     17  C   UNL     1       1.208   4.384   1.093  0.00  0.00    +0.051 C 
ENDBRANCH  15  16
ENDBRANCH   2  15
BRANCH   3  18
ATOM     18  O   UNL     1      -2.297  -2.122  -0.711  0.00  0.00    -0.472 OA
BRANCH  18  19
ATOM     19  C   UNL     1      -1.911  -3.106   0.247  0.00  0.00    +0.206 C 
ATOM     20  C   UNL     1      -3.087  -4.019   0.518  0.00  0.00    +0.051 C 
ENDBRANCH  18  19
ENDBRANCH   3  18
BRANCH   5  21
ATOM     21  O   UNL     1      -3.804   0.175  -0.289  0.00  0.00    -0.472 OA
BRANCH  21  22
ATOM     22  C   UNL     1      -4.368   0.640   0.936  0.00  0.00    +0.206 C 
ATOM     23  C   UNL     1      -5.644  -0.127   1.214  0.00  0.00    +0.051 C 
ENDBRANCH  21  22
ENDBRANCH   5  21
TORSDOF 11
