REMARK  Name = 13738
REMARK  6 active torsions:
REMARK  status: ('A' for Active; 'I' for Inactive)
REMARK    1  A    between atoms: C_4  and  C_12
REMARK    2  A    between atoms: C_5  and  C_6
REMARK    3  A    between atoms: C_12  and  C_13
REMARK    4  A    between atoms: C_13  and  N_14
REMARK    5  A    between atoms: N_14  and  C_16
REMARK    6  A    between atoms: N_14  and  C_18
REMARK                            x       y       z     vdW  Elec       q    Type
REMARK                         _______ _______ _______ _____ _____    ______ ____
ROOT
ATOM      1  O   UNL     1       0.066  -1.668   0.945  0.00  0.00    -0.316 OA
ATOM      2  N   UNL     1      -0.538   0.423   0.416  0.00  0.00    -0.313 NA
ATOM      3  N   UNL     1      -1.308  -1.715   0.678  0.00  0.00    -0.007 NA
ATOM      4  C   UNL     1       0.401  -0.382   0.762  0.00  0.00    +0.292 C 
ATOM      5  C   UNL     1      -1.590  -0.444   0.373  0.00  0.00    +0.127 C 
ENDROOT
BRANCH   5   6
ATOM      6  C   UNL     1      -2.911  -0.009   0.023  0.00  0.00    +0.077 C 
ATOM      7  C   UNL     1      -3.963  -0.925  -0.010  0.00  0.00    +0.011 C 
ATOM      8  C   UNL     1      -3.146   1.331  -0.286  0.00  0.00    +0.011 C 
ATOM      9  C   UNL     1      -5.247  -0.502  -0.351  0.00  0.00    +0.001 C 
ATOM     10  C   UNL     1      -4.431   1.755  -0.627  0.00  0.00    +0.001 C 
ATOM     11  C   UNL     1      -5.481   0.838  -0.660  0.00  0.00    +0.000 C 
ENDBRANCH   5   6
BRANCH   4  12
ATOM     12  C   UNL     1       1.858  -0.064   0.993  0.00  0.00    +0.080 C 
BRANCH  12  13
ATOM     13  C   UNL     1       2.673  -0.214  -0.293  0.00  0.00    -0.066 C 
BRANCH  13  14
ATOM     14  N   UNL     1       4.087   0.074  -0.056  0.00  0.00    +0.387 N 
ATOM     15  H   UNL     1       4.432  -0.569   0.656  0.00  0.00    -0.080 HD
BRANCH  14  16
ATOM     16  C   UNL     1       4.255   1.442   0.433  0.00  0.00    -0.077 C 
ATOM     17  C   UNL     1       5.712   1.738   0.743  0.00  0.00    -0.025 C 
ENDBRANCH  14  16
BRANCH  14  18
ATOM     18  C   UNL     1       4.862  -0.131  -1.279  0.00  0.00    -0.077 C 
ATOM     19  C   UNL     1       4.699  -1.548  -1.802  0.00  0.00    -0.025 C 
ENDBRANCH  14  18
ENDBRANCH  13  14
ENDBRANCH  12  13
ENDBRANCH   4  12
TORSDOF 6
