REMARK  Name = 76957773
REMARK  5 active torsions:
REMARK  status: ('A' for Active; 'I' for Inactive)
REMARK    1  A    between atoms: C_9  and  O_26
REMARK    2  A    between atoms: C_12  and  C_24
REMARK    3  A    between atoms: C_13  and  O_22
REMARK    4  A    between atoms: O_26  and  C_28
REMARK    5  A    between atoms: C_28  and  C_30
REMARK                            x       y       z     vdW  Elec       q    Type
REMARK                         _______ _______ _______ _____ _____    ______ ____
ROOT
ATOM      1  N   UNL     1      -1.287   1.965  -0.723  0.00  0.00    +0.408 N 
ATOM      2  N   UNL     1       1.872   2.241   0.346  0.00  0.00    -0.309 N 
ATOM      3  C   UNL     1       0.889   0.114  -0.180  0.00  0.00    +0.070 C 
ATOM      4  C   UNL     1      -1.464  -0.482  -0.258  0.00  0.00    +0.022 C 
ATOM      5  C   UNL     1      -1.097   0.612  -1.313  0.00  0.00    -0.050 C 
ATOM      6  C   UNL     1      -0.684   2.001   0.649  0.00  0.00    -0.036 C 
ATOM      7  C   UNL     1      -2.395   0.183   0.798  0.00  0.00    -0.000 C 
ATOM      8  C   UNL     1       0.736   1.382   0.720  0.00  0.00    +0.061 C 
ATOM      9  C   UNL     1      -0.088  -0.979   0.291  0.00  0.00    +0.172 C 
ATOM     10  C   UNL     1       0.380   0.420  -1.592  0.00  0.00    -0.011 C 
ATOM     11  C   UNL     1      -1.591   1.200   1.625  0.00  0.00    -0.019 C 
ATOM     12  C   UNL     1      -3.483   1.043   0.092  0.00  0.00    +0.007 C 
ATOM     13  C   UNL     1      -2.758   2.197  -0.668  0.00  0.00    +0.059 C 
ATOM     14  C   UNL     1       2.378   0.013  -0.179  0.00  0.00    -0.005 C 
ATOM     15  C   UNL     1       2.899   1.303   0.081  0.00  0.00    +0.044 C 
ATOM     16  C   UNL     1       3.205  -1.063  -0.445  0.00  0.00    -0.003 C 
ATOM     17  C   UNL     1       2.175   3.477   1.034  0.00  0.00    +0.112 C 
ATOM     18  C   UNL     1       4.270   1.514   0.056  0.00  0.00    +0.014 C 
ATOM     19  C   UNL     1       4.584  -0.848  -0.453  0.00  0.00    -0.000 C 
ATOM     20  C   UNL     1       5.111   0.429  -0.209  0.00  0.00    +0.001 C 
ATOM     21  H   UNL     1      -0.833   2.691  -1.277  0.00  0.00    -0.076 HD
ENDROOT
BRANCH  13  22
ATOM     22  O   UNL     1      -3.088   3.444  -0.051  0.00  0.00    -0.405 OA
ATOM     23  H   UNL     1      -2.640   4.165  -0.520  0.00  0.00    +0.208 HD
ENDBRANCH  13  22
BRANCH  12  24
ATOM     24  C   UNL     1      -4.389   0.217  -0.822  0.00  0.00    +0.000 C 
ATOM     25  C   UNL     1      -5.086  -0.888  -0.054  0.00  0.00    +0.000 C 
ENDBRANCH  12  24
BRANCH   9  26
ATOM     26  O   UNL     1       0.190  -2.224  -0.345  0.00  0.00    -0.451 OA
BRANCH  26  28
ATOM     27  O   UNL     1      -0.818  -3.345   1.399  0.00  0.00    -0.249 OA
ATOM     28  C   UNL     1      -0.234  -3.342   0.324  0.00  0.00    +0.334 C 
BRANCH  28  30
ATOM     29 CL   UNL     1      -0.366  -6.029   0.360  0.00  0.00    -0.101 Cl
ATOM     30  C   UNL     1       0.138  -4.556  -0.484  0.00  0.00    +0.204 C 
ENDBRANCH  28  30
ENDBRANCH  26  28
ENDBRANCH   9  26
TORSDOF 5
