REMARK  Name = 66384
REMARK  7 active torsions:
REMARK  status: ('A' for Active; 'I' for Inactive)
REMARK    1  A    between atoms: C_2  and  O_3
REMARK    2  A    between atoms: C_2  and  C_14
REMARK    3  A    between atoms: O_3  and  C_4
REMARK    4  A    between atoms: C_4  and  C_5
REMARK    5  A    between atoms: C_5  and  N_6
REMARK    6  A    between atoms: C_14  and  C_15
REMARK    7  A    between atoms: C_14  and  C_22
REMARK                            x       y       z     vdW  Elec       q    Type
REMARK                         _______ _______ _______ _____ _____    ______ ____
ROOT
ATOM      1  O   UNL     1       0.771  -0.510  -1.750  0.00  0.00    -0.250 OA
ATOM      2  C   UNL     1       0.853  -0.400  -0.533  0.00  0.00    +0.321 C 
ENDROOT
BRANCH   2   3
ATOM      3  O   UNL     1      -0.218  -0.350   0.322  0.00  0.00    -0.451 OA
BRANCH   3   4
ATOM      4  C   UNL     1      -1.503  -0.434  -0.282  0.00  0.00    +0.186 C 
BRANCH   4   5
ATOM      5  C   UNL     1      -2.561  -0.362   0.807  0.00  0.00    -0.029 C 
BRANCH   5   6
ATOM      6  N   UNL     1      -3.907  -0.428   0.227  0.00  0.00    +0.389 N 
ATOM      7  C   UNL     1      -4.274   0.878  -0.336  0.00  0.00    -0.077 C 
ATOM      8  C   UNL     1      -4.847  -0.931   1.236  0.00  0.00    -0.077 C 
ATOM      9  C   UNL     1      -5.399   0.763  -1.364  0.00  0.00    -0.023 C 
ATOM     10  C   UNL     1      -6.283  -1.152   0.750  0.00  0.00    -0.023 C 
ATOM     11  C   UNL     1      -6.816   0.820  -0.802  0.00  0.00    -0.002 C 
ATOM     12  C   UNL     1      -7.051   0.147   0.544  0.00  0.00    -0.002 C 
ATOM     13  H   UNL     1      -3.937  -1.086  -0.551  0.00  0.00    -0.080 HD
ENDBRANCH   5   6
ENDBRANCH   4   5
ENDBRANCH   3   4
ENDBRANCH   2   3
BRANCH   2  14
ATOM     14  C   UNL     1       2.153  -0.250   0.251  0.00  0.00    +0.122 C 
BRANCH  14  15
ATOM     15  C   UNL     1       2.865   1.048  -0.122  0.00  0.00    +0.015 C 
ATOM     16  C   UNL     1       4.122   1.244   0.737  0.00  0.00    +0.001 C 
ATOM     17  C   UNL     1       1.917   2.247   0.016  0.00  0.00    +0.001 C 
ATOM     18  C   UNL     1       4.823   2.562   0.419  0.00  0.00    +0.000 C 
ATOM     19  C   UNL     1       2.622   3.564  -0.301  0.00  0.00    +0.000 C 
ATOM     20  C   UNL     1       3.875   3.750   0.549  0.00  0.00    +0.000 C 
ENDBRANCH  14  15
BRANCH  14  22
ATOM     21  S   UNL     1       4.415  -3.575   0.593  0.00  0.00    -0.086 S 
ATOM     22  C   UNL     1       3.045  -1.461   0.089  0.00  0.00    -0.005 C 
ATOM     23  C   UNL     1       3.616  -1.867  -1.151  0.00  0.00    +0.004 C 
ATOM     24  C   UNL     1       3.398  -2.302   1.121  0.00  0.00    +0.032 C 
ATOM     25  C   UNL     1       4.384  -3.003  -1.020  0.00  0.00    +0.035 C 
ENDBRANCH  14  22
ENDBRANCH   2  14
TORSDOF 7
