REMARK  Name = 165124
REMARK  8 active torsions:
REMARK  status: ('A' for Active; 'I' for Inactive)
REMARK    1  A    between atoms: C_1  and  C_2
REMARK    2  A    between atoms: C_1  and  C_8
REMARK    3  A    between atoms: C_1  and  O_14
REMARK    4  A    between atoms: C_1  and  C_17
REMARK    5  A    between atoms: C_17  and  O_18
REMARK    6  A    between atoms: O_18  and  C_19
REMARK    7  A    between atoms: C_19  and  C_20
REMARK    8  A    between atoms: C_20  and  N_23
REMARK                            x       y       z     vdW  Elec       q    Type
REMARK                         _______ _______ _______ _____ _____    ______ ____
ROOT
ATOM      1  C   UNL     1       1.100  -0.193   0.450  0.00  0.00    +0.216 C 
ENDROOT
BRANCH   1   2
ATOM      2  C   UNL     1       1.170   1.306   0.151  0.00  0.00    +0.016 C 
ATOM      3  C   UNL     1       0.840   1.742  -1.111  0.00  0.00    -0.001 C 
ATOM      4  C   UNL     1       1.560   2.161   1.157  0.00  0.00    -0.001 C 
ATOM      5  C   UNL     1       0.904   3.109  -1.383  0.00  0.00    -0.000 C 
ATOM      6  C   UNL     1       1.623   3.527   0.884  0.00  0.00    -0.000 C 
ATOM      7  C   UNL     1       1.295   4.001  -0.386  0.00  0.00    -0.000 C 
ENDBRANCH   1   2
BRANCH   1   8
ATOM      8  C   UNL     1       2.438  -0.872   0.150  0.00  0.00    +0.016 C 
ATOM      9  C   UNL     1       2.933  -0.815  -1.132  0.00  0.00    -0.001 C 
ATOM     10  C   UNL     1       3.095  -1.514   1.175  0.00  0.00    -0.001 C 
ATOM     11  C   UNL     1       4.153  -1.434  -1.406  0.00  0.00    -0.000 C 
ATOM     12  C   UNL     1       4.315  -2.133   0.901  0.00  0.00    -0.000 C 
ATOM     13  C   UNL     1       4.844  -2.093  -0.389  0.00  0.00    -0.000 C 
ENDBRANCH   1   8
BRANCH   1  14
ATOM     14  O   UNL     1       0.745  -0.411   1.831  0.00  0.00    -0.370 OA
ATOM     15  H   UNL     1      -0.104   0.021   2.018  0.00  0.00    +0.212 HD
ENDBRANCH   1  14
BRANCH   1  17
ATOM     16  O   UNL     1       0.010  -1.828  -1.009  0.00  0.00    -0.247 OA
ATOM     17  C   UNL     1      -0.084  -0.904  -0.209  0.00  0.00    +0.349 C 
BRANCH  17  18
ATOM     18  O   UNL     1      -1.275  -0.392   0.246  0.00  0.00    -0.449 OA
BRANCH  18  19
ATOM     19  C   UNL     1      -2.454  -1.001  -0.268  0.00  0.00    +0.190 C 
BRANCH  19  20
ATOM     20  C   UNL     1      -3.729  -0.356   0.303  0.00  0.00    -0.001 C 
ATOM     21  C   UNL     1      -3.789  -0.497   1.831  0.00  0.00    -0.017 C 
ATOM     22  C   UNL     1      -3.809   1.130  -0.077  0.00  0.00    -0.017 C 
BRANCH  20  23
ATOM     23  N   UNL     1      -4.885  -1.060  -0.267  0.00  0.00    +0.389 N 
ATOM     24  C   UNL     1      -4.873  -0.955  -1.723  0.00  0.00    -0.100 C 
ATOM     25  C   UNL     1      -6.127  -0.519   0.280  0.00  0.00    -0.100 C 
ATOM     26  H   UNL     1      -4.827  -2.047  -0.015  0.00  0.00    -0.080 HD
ENDBRANCH  20  23
ENDBRANCH  19  20
ENDBRANCH  18  19
ENDBRANCH  17  18
ENDBRANCH   1  17
TORSDOF 8
