REMARK  Name = 6351
REMARK  0 active torsions:
REMARK  status: ('A' for Active; 'I' for Inactive)
REMARK                            x       y       z     vdW  Elec       q    Type
REMARK                         _______ _______ _______ _____ _____    ______ ____
ROOT
ATOM      1  C   UNL     1       0.319   0.806   0.000  0.00  0.00    +0.000 C 
ATOM      2  C   UNL     1      -0.857  -0.127   0.000  0.00  0.00    +0.000 C 
ATOM      3  C   UNL     1       0.539  -0.679   0.000  0.00  0.00    +0.000 C 
ENDROOT
TORSDOF 0
