REMARK  Name = 54683953
REMARK  2 active torsions:
REMARK  status: ('A' for Active; 'I' for Inactive)
REMARK    1  A    between atoms: C_11  and  C_19
REMARK    2  A    between atoms: C_11  and  O_23
REMARK                            x       y       z     vdW  Elec       q    Type
REMARK                         _______ _______ _______ _____ _____    ______ ____
ROOT
ATOM      1 CL   UNL     1      -1.465   4.130   0.023  0.00  0.00    -0.082 Cl
ATOM      2  O   UNL     1       1.643  -2.740   0.012  0.00  0.00    -0.269 OA
ATOM      3  O   UNL     1       4.469   0.509  -0.031  0.00  0.00    -0.252 OA
ATOM      4  N   UNL     1       2.309  -0.433  -0.004  0.00  0.00    -0.189 N 
ATOM      5  N   UNL     1       4.255  -1.749  -0.021  0.00  0.00    -0.313 N 
ATOM      6  C   UNL     1       0.178   0.508   0.017  0.00  0.00    +0.022 C 
ATOM      7  C   UNL     1       1.552   0.782   0.001  0.00  0.00    +0.063 C 
ATOM      8  C   UNL     1       0.042  -0.938   0.023  0.00  0.00    +0.090 C 
ATOM      9  C   UNL     1       1.408  -1.544   0.010  0.00  0.00    +0.263 C 
ATOM     10  C   UNL     1      -0.770   1.520   0.024  0.00  0.00    +0.013 C 
ATOM     11  C   UNL     1      -1.076  -1.667   0.037  0.00  0.00    +0.144 C 
ATOM     12  C   UNL     1       1.997   2.097  -0.009  0.00  0.00    +0.016 C 
ATOM     13  C   UNL     1      -0.324   2.840   0.014  0.00  0.00    +0.058 C 
ATOM     14  C   UNL     1       1.048   3.126  -0.002  0.00  0.00    +0.013 C 
ATOM     15  C   UNL     1       3.723  -0.470  -0.019  0.00  0.00    +0.311 C 
ATOM     16  H   UNL     1       5.231  -1.875  -0.031  0.00  0.00    +0.147 HD
ATOM     17  H   UNL     1       3.657  -2.531  -0.012  0.00  0.00    +0.147 HD
ENDROOT
BRANCH  11  19
ATOM     18  S   UNL     1      -3.220  -0.753  -1.435  0.00  0.00    -0.083 S 
ATOM     19  C   UNL     1      -2.433  -1.082   0.050  0.00  0.00    +0.063 C 
ATOM     20  C   UNL     1      -3.211  -0.738   1.134  0.00  0.00    +0.010 C 
ATOM     21  C   UNL     1      -4.469  -0.198   0.741  0.00  0.00    +0.008 C 
ATOM     22  C   UNL     1      -4.606  -0.150  -0.629  0.00  0.00    +0.036 C 
ENDBRANCH  11  19
BRANCH  11  23
ATOM     23  O   UNL     1      -1.049  -3.052   0.062  0.00  0.00    -0.505 OA
ATOM     24  H   UNL     1      -0.229  -3.504   0.056  0.00  0.00    +0.292 HD
ENDBRANCH  11  23
TORSDOF 2
