REMARK  Name = 5480
REMARK  6 active torsions:
REMARK  status: ('A' for Active; 'I' for Inactive)
REMARK    1  A    between atoms: N_2  and  C_19
REMARK    2  A    between atoms: C_8  and  C_15
REMARK    3  A    between atoms: C_9  and  N_11
REMARK    4  A    between atoms: C_15  and  O_16
REMARK    5  A    between atoms: O_16  and  C_17
REMARK    6  A    between atoms: C_19  and  C_20
REMARK                            x       y       z     vdW  Elec       q    Type
REMARK                         _______ _______ _______ _____ _____    ______ ____
ROOT
ATOM      1  S   UNL     1      -0.673  -2.621   0.061  0.00  0.00    -0.079 S 
ATOM      2  N   UNL     1       1.291   0.866  -0.596  0.00  0.00    +0.393 N 
ATOM      3  C   UNL     1       0.206   1.553  -1.327  0.00  0.00    -0.072 C 
ATOM      4  C   UNL     1      -1.166   1.279  -0.675  0.00  0.00    +0.004 C 
ATOM      5  C   UNL     1       1.149  -0.606  -0.674  0.00  0.00    -0.043 C 
ATOM      6  C   UNL     1      -1.336  -0.172  -0.357  0.00  0.00    -0.016 A 
ATOM      7  C   UNL     1      -0.251  -1.024  -0.339  0.00  0.00    -0.016 A 
ATOM      8  C   UNL     1      -2.542  -0.854  -0.023  0.00  0.00    +0.091 A 
ATOM      9  C   UNL     1      -2.324  -2.193   0.228  0.00  0.00    +0.077 A 
ATOM     10  H   UNL     1       1.221   1.138   0.384  0.00  0.00    -0.079 HD
ENDROOT
BRANCH   9  11
ATOM     11  N   UNL     1      -3.252  -3.124   0.571  0.00  0.00    -0.352 N 
ATOM     12  H   UNL     1      -2.979  -4.056   0.727  0.00  0.00    +0.143 HD
ATOM     13  H   UNL     1      -4.197  -2.866   0.664  0.00  0.00    +0.143 HD
ENDBRANCH   9  11
BRANCH   8  15
ATOM     14  O   UNL     1      -4.926  -0.810  -0.175  0.00  0.00    -0.245 OA
ATOM     15  C   UNL     1      -3.847  -0.245   0.055  0.00  0.00    +0.343 C 
BRANCH  15  16
ATOM     16  O   UNL     1      -3.769   1.077   0.426  0.00  0.00    -0.445 OA
BRANCH  16  17
ATOM     17  C   UNL     1      -5.007   1.790   0.538  0.00  0.00    +0.209 C 
ATOM     18  C   UNL     1      -4.718   3.217   0.953  0.00  0.00    +0.051 C 
ENDBRANCH  16  17
ENDBRANCH  15  16
ENDBRANCH   8  15
BRANCH   2  19
ATOM     19  C   UNL     1       2.599   1.276  -1.105  0.00  0.00    -0.049 C 
BRANCH  19  20
ATOM     20  C   UNL     1       3.726   0.662  -0.317  0.00  0.00    -0.043 C 
ATOM     21  C   UNL     1       4.231   1.332   0.788  0.00  0.00    -0.006 C 
ATOM     22  C   UNL     1       4.243  -0.565  -0.708  0.00  0.00    -0.006 C 
ATOM     23  C   UNL     1       5.275   0.764   1.518  0.00  0.00    -0.000 C 
ATOM     24  C   UNL     1       5.287  -1.133   0.022  0.00  0.00    -0.000 C 
ATOM     25  C   UNL     1       5.803  -0.469   1.135  0.00  0.00    -0.000 C 
ENDBRANCH  19  20
ENDBRANCH   2  19
TORSDOF 6
