28892
  -OEChem-10061700293D

 51 51  0     1  0  0  0  0  0999 V2000
   -2.2626    1.0192   -0.2207 O   0  0  0  0  0  0  0  0  0  0  0  0
    0.4967    1.0953    0.2688 O   0  0  0  0  0  0  0  0  0  0  0  0
    2.3950    1.9032   -0.7553 O   0  0  0  0  0  0  0  0  0  0  0  0
   -5.5653   -0.5821    0.0227 N   0  0  0  0  0  0  0  0  0  0  0  0
    2.4300   -0.2578    0.3902 C   0  0  2  0  0  0  0  0  0  0  0  0
   -4.1950   -0.3751   -0.4215 C   0  0  0  0  0  0  0  0  0  0  0  0
    2.2670   -0.3649    1.9199 C   0  0  0  0  0  0  0  0  0  0  0  0
   -6.4004    0.5725   -0.3172 C   0  0  0  0  0  0  0  0  0  0  0  0
   -6.1232   -1.8008   -0.5688 C   0  0  0  0  0  0  0  0  0  0  0  0
   -3.6023    0.8659    0.2267 C   0  0  0  0  0  0  0  0  0  0  0  0
    3.8667   -0.4055   -0.0866 C   0  0  0  0  0  0  0  0  0  0  0  0
    1.8100    1.0435   -0.1094 C   0  0  0  0  0  0  0  0  0  0  0  0
   -1.6498    2.1678    0.3525 C   0  0  0  0  0  0  0  0  0  0  0  0
    2.7430   -1.7006    2.4779 C   0  0  0  0  0  0  0  0  0  0  0  0
   -7.8172    0.3971    0.2026 C   0  0  0  0  0  0  0  0  0  0  0  0
   -5.2736   -3.0139   -0.2302 C   0  0  0  0  0  0  0  0  0  0  0  0
   -0.2195    2.2643   -0.1421 C   0  0  0  0  0  0  0  0  0  0  0  0
    4.1097   -1.0371   -1.2897 C   0  0  0  0  0  0  0  0  0  0  0  0
    4.8858    0.0960    0.6978 C   0  0  0  0  0  0  0  0  0  0  0  0
    5.4274   -1.1731   -1.7268 C   0  0  0  0  0  0  0  0  0  0  0  0
    6.2034   -0.0397    0.2607 C   0  0  0  0  0  0  0  0  0  0  0  0
    6.4741   -0.6743   -0.9516 C   0  0  0  0  0  0  0  0  0  0  0  0
    1.8441   -1.0695   -0.0651 H   0  0  0  0  0  0  0  0  0  0  0  0
   -3.5397   -1.2044   -0.1332 H   0  0  0  0  0  0  0  0  0  0  0  0
   -4.1244   -0.2930   -1.5146 H   0  0  0  0  0  0  0  0  0  0  0  0
    2.7549    0.4630    2.4466 H   0  0  0  0  0  0  0  0  0  0  0  0
    1.2036   -0.2740    2.1771 H   0  0  0  0  0  0  0  0  0  0  0  0
   -6.0458    1.4802    0.1775 H   0  0  0  0  0  0  0  0  0  0  0  0
   -6.4184    0.7650   -1.3971 H   0  0  0  0  0  0  0  0  0  0  0  0
   -7.1153   -2.0102   -0.1558 H   0  0  0  0  0  0  0  0  0  0  0  0
   -6.2270   -1.7169   -1.6580 H   0  0  0  0  0  0  0  0  0  0  0  0
   -3.6176    0.7744    1.3196 H   0  0  0  0  0  0  0  0  0  0  0  0
   -4.1274    1.7786   -0.0657 H   0  0  0  0  0  0  0  0  0  0  0  0
   -1.6563    2.0669    1.4440 H   0  0  0  0  0  0  0  0  0  0  0  0
   -2.2035    3.0689    0.0669 H   0  0  0  0  0  0  0  0  0  0  0  0
    2.2466   -2.5348    1.9717 H   0  0  0  0  0  0  0  0  0  0  0  0
    2.4999   -1.7651    3.5438 H   0  0  0  0  0  0  0  0  0  0  0  0
    3.8236   -1.8340    2.3820 H   0  0  0  0  0  0  0  0  0  0  0  0
   -8.3503    1.3532    0.1458 H   0  0  0  0  0  0  0  0  0  0  0  0
   -7.8295    0.0797    1.2511 H   0  0  0  0  0  0  0  0  0  0  0  0
   -8.3962   -0.3158   -0.3924 H   0  0  0  0  0  0  0  0  0  0  0  0
   -5.8293   -3.9276   -0.4709 H   0  0  0  0  0  0  0  0  0  0  0  0
   -5.0283   -3.0553    0.8366 H   0  0  0  0  0  0  0  0  0  0  0  0
   -4.3478   -3.0533   -0.8126 H   0  0  0  0  0  0  0  0  0  0  0  0
    0.2614    3.1557    0.2755 H   0  0  0  0  0  0  0  0  0  0  0  0
   -0.2079    2.3141   -1.2370 H   0  0  0  0  0  0  0  0  0  0  0  0
    3.3012   -1.4263   -1.9012 H   0  0  0  0  0  0  0  0  0  0  0  0
    4.7134    0.6173    1.6323 H   0  0  0  0  0  0  0  0  0  0  0  0
    5.6383   -1.6663   -2.6712 H   0  0  0  0  0  0  0  0  0  0  0  0
    7.0185    0.3537    0.8611 H   0  0  0  0  0  0  0  0  0  0  0  0
    7.5000   -0.7786   -1.2926 H   0  0  0  0  0  0  0  0  0  0  0  0
  1 10  1  0  0  0  0
  1 13  1  0  0  0  0
  2 12  1  0  0  0  0
  2 17  1  0  0  0  0
  3 12  2  0  0  0  0
  4  6  1  0  0  0  0
  4  8  1  0  0  0  0
  4  9  1  0  0  0  0
  5  7  1  0  0  0  0
  5 11  1  0  0  0  0
  5 12  1  0  0  0  0
  5 23  1  0  0  0  0
  6 10  1  0  0  0  0
  6 24  1  0  0  0  0
  6 25  1  0  0  0  0
  7 14  1  0  0  0  0
  7 26  1  0  0  0  0
  7 27  1  0  0  0  0
  8 15  1  0  0  0  0
  8 28  1  0  0  0  0
  8 29  1  0  0  0  0
  9 16  1  0  0  0  0
  9 30  1  0  0  0  0
  9 31  1  0  0  0  0
 10 32  1  0  0  0  0
 10 33  1  0  0  0  0
 11 18  2  0  0  0  0
 11 19  1  0  0  0  0
 13 17  1  0  0  0  0
 13 34  1  0  0  0  0
 13 35  1  0  0  0  0
 14 36  1  0  0  0  0
 14 37  1  0  0  0  0
 14 38  1  0  0  0  0
 15 39  1  0  0  0  0
 15 40  1  0  0  0  0
 15 41  1  0  0  0  0
 16 42  1  0  0  0  0
 16 43  1  0  0  0  0
 16 44  1  0  0  0  0
 17 45  1  0  0  0  0
 17 46  1  0  0  0  0
 18 20  1  0  0  0  0
 18 47  1  0  0  0  0
 19 21  2  0  0  0  0
 19 48  1  0  0  0  0
 20 22  2  0  0  0  0
 20 49  1  0  0  0  0
 21 22  1  0  0  0  0
 21 50  1  0  0  0  0
 22 51  1  0  0  0  0
M  END
> <DATABASE_ID>
DB13731

> <DATABASE_NAME>
drugbank

> <ORIGINAL_SOURCE>
PUBCHEM

> <ORIGINAL_SOURCE_URL>
https://pubchem.ncbi.nlm.nih.gov/rest/pug/compound/inchikey/DDVUMDPCZWBYRA-UHFFFAOYSA-N/SDF?record_type=3d

> <SMILES>
CCC(C(=O)OCCOCCN(CC)CC)C1=CC=CC=C1

> <INCHI_IDENTIFIER>
InChI=1S/C18H29NO3/c1-4-17(16-10-8-7-9-11-16)18(20)22-15-14-21-13-12-19(5-2)6-3/h7-11,17H,4-6,12-15H2,1-3H3

> <INCHI_KEY>
DDVUMDPCZWBYRA-UHFFFAOYSA-N

> <FORMULA>
C18H29NO3

> <MOLECULAR_WEIGHT>
307.434

> <EXACT_MASS>
307.214743798

> <JCHEM_ACCEPTOR_COUNT>
3

> <JCHEM_ATOM_COUNT>
51

> <JCHEM_AVERAGE_POLARIZABILITY>
36.58373746983648

> <JCHEM_BIOAVAILABILITY>
1

> <JCHEM_DONOR_COUNT>
0

> <JCHEM_FORMAL_CHARGE>
0

> <JCHEM_GHOSE_FILTER>
1

> <JCHEM_IUPAC>
2-[2-(diethylamino)ethoxy]ethyl 2-phenylbutanoate

> <ALOGPS_LOGP>
3.86

> <JCHEM_LOGP>
3.4297280279999995

> <ALOGPS_LOGS>
-3.46

> <JCHEM_MDDR_LIKE_RULE>
0

> <JCHEM_NUMBER_OF_RINGS>
1

> <JCHEM_PHYSIOLOGICAL_CHARGE>
1

> <JCHEM_PKA_STRONGEST_BASIC>
9.414820687956992

> <JCHEM_POLAR_SURFACE_AREA>
38.77

> <JCHEM_REFRACTIVITY>
89.86999999999999

> <JCHEM_ROTATABLE_BOND_COUNT>
12

> <JCHEM_RULE_OF_FIVE>
1

> <ALOGPS_SOLUBILITY>
1.07e-01 g/l

> <JCHEM_TRADITIONAL_IUPAC>
butamirate

> <JCHEM_VEBER_RULE>
0

> <DRUGBANK_ID>
DB13731

> <DRUG_GROUPS>
experimental

> <GENERIC_NAME>
Butamirate

$$$$
