REMARK  Name = 10921747
REMARK  4 active torsions:
REMARK  status: ('A' for Active; 'I' for Inactive)
REMARK    1  A    between atoms: C_3  and  C_9
REMARK    2  A    between atoms: C_4  and  C_13
REMARK    3  A    between atoms: C_9  and  O_10
REMARK    4  A    between atoms: C_13  and  O_14
REMARK                            x       y       z     vdW  Elec       q    Type
REMARK                         _______ _______ _______ _____ _____    ______ ____
ROOT
ATOM      1  C   UNL     1       1.698  -1.316  -0.085  0.00  0.00    +0.011 C 
ATOM      2  C   UNL     1       1.930   0.885  -0.416  0.00  0.00    +0.011 C 
ATOM      3  C   UNL     1       0.381  -0.943  -0.815  0.00  0.00    +0.110 C 
ATOM      4  C   UNL     1       0.538   0.594  -1.036  0.00  0.00    +0.110 C 
ATOM      5  C   UNL     1       2.688  -0.391  -0.807  0.00  0.00    +0.001 C 
ATOM      6  C   UNL     1       1.741  -0.659   1.276  0.00  0.00    +0.001 C 
ATOM      7  C   UNL     1       1.880   0.659   1.078  0.00  0.00    +0.001 C 
ENDROOT
BRANCH   3   9
ATOM      8  O   UNL     1      -0.788  -1.985   1.014  0.00  0.00    -0.250 OA
ATOM      9  C   UNL     1      -0.831  -1.395  -0.057  0.00  0.00    +0.317 C 
BRANCH   9  10
ATOM     10  O   UNL     1      -1.955  -1.046  -0.745  0.00  0.00    -0.444 OA
ATOM     11  C   UNL     1      -3.192  -1.420  -0.131  0.00  0.00    +0.256 C 
ENDBRANCH   9  10
ENDBRANCH   3   9
BRANCH   4  13
ATOM     12  O   UNL     1      -1.225   2.229  -1.165  0.00  0.00    -0.250 OA
ATOM     13  C   UNL     1      -0.550   1.467  -0.487  0.00  0.00    +0.317 C 
BRANCH  13  14
ATOM     14  O   UNL     1      -0.654   1.272   0.859  0.00  0.00    -0.444 OA
ATOM     15  C   UNL     1      -1.661   2.049   1.516  0.00  0.00    +0.256 C 
ENDBRANCH  13  14
ENDBRANCH   4  13
TORSDOF 4
