REMARK  Name = 5330
REMARK  4 active torsions:
REMARK  status: ('A' for Active; 'I' for Inactive)
REMARK    1  A    between atoms: S_1  and  N_4
REMARK    2  A    between atoms: S_1  and  C_14
REMARK    3  A    between atoms: C_10  and  O_12
REMARK    4  A    between atoms: C_17  and  N_20
REMARK                            x       y       z     vdW  Elec       q    Type
REMARK                         _______ _______ _______ _____ _____    ______ ____
ROOT
ATOM      1  S   UNL     1       1.250  -2.154  -0.309  0.00  0.00    +0.075 S 
ATOM      2  O   UNL     1       2.306  -3.010   0.219  0.00  0.00    -0.150 OA
ATOM      3  O   UNL     1       0.745  -2.410  -1.652  0.00  0.00    -0.150 OA
ENDROOT
BRANCH   1   4
ATOM      4  N   UNL     1      -0.058  -2.165   0.812  0.00  0.00    -0.197 N 
ATOM      5  N   UNL     1      -1.850  -1.254  -0.429  0.00  0.00    -0.129 NA
ATOM      6  N   UNL     1      -2.833  -0.333  -0.617  0.00  0.00    -0.109 NA
ATOM      7  C   UNL     1      -1.080  -1.163   0.669  0.00  0.00    +0.169 C 
ATOM      8  C   UNL     1      -1.225  -0.187   1.626  0.00  0.00    +0.042 C 
ATOM      9  C   UNL     1      -2.225   0.750   1.435  0.00  0.00    +0.062 C 
ATOM     10  C   UNL     1      -3.005   0.641   0.302  0.00  0.00    +0.244 C 
ATOM     11  H   UNL     1      -0.105  -2.838   1.529  0.00  0.00    +0.175 HD
BRANCH  10  12
ATOM     12  O   UNL     1      -4.004   1.548   0.077  0.00  0.00    -0.455 OA
ATOM     13  C   UNL     1      -4.771   1.377  -1.111  0.00  0.00    +0.254 C 
ENDBRANCH  10  12
ENDBRANCH   1   4
BRANCH   1  14
ATOM     14  C   UNL     1       1.814  -0.503  -0.229  0.00  0.00    +0.125 C 
ATOM     15  C   UNL     1       2.801  -0.147   0.690  0.00  0.00    +0.021 C 
ATOM     16  C   UNL     1       1.276   0.459  -1.083  0.00  0.00    +0.021 C 
ATOM     17  C   UNL     1       2.713   2.135  -0.100  0.00  0.00    +0.042 C 
ATOM     18  C   UNL     1       3.251   1.172   0.754  0.00  0.00    +0.015 C 
ATOM     19  C   UNL     1       1.726   1.778  -1.019  0.00  0.00    +0.015 C 
BRANCH  17  20
ATOM     20  N   UNL     1       3.168   3.468  -0.036  0.00  0.00    -0.357 N 
ATOM     21  H   UNL     1       3.865   3.720   0.612  0.00  0.00    +0.142 HD
ATOM     22  H   UNL     1       2.789   4.147  -0.640  0.00  0.00    +0.142 HD
ENDBRANCH  17  20
ENDBRANCH   1  14
TORSDOF 4
