REMARK  Name = 15004
REMARK  11 active torsions:
REMARK  status: ('A' for Active; 'I' for Inactive)
REMARK    1  A    between atoms: C_1  and  C_18
REMARK    2  A    between atoms: C_2  and  O_9
REMARK    3  A    between atoms: C_3  and  O_7
REMARK    4  A    between atoms: O_9  and  C_10
REMARK    5  A    between atoms: C_10  and  C_13
REMARK    6  A    between atoms: N_12  and  C_14
REMARK    7  A    between atoms: N_12  and  C_16
REMARK    8  A    between atoms: C_18  and  C_20
REMARK    9  A    between atoms: C_20  and  O_21
REMARK   10  A    between atoms: O_21  and  C_22
REMARK   11  A    between atoms: C_22  and  C_23
REMARK                            x       y       z     vdW  Elec       q    Type
REMARK                         _______ _______ _______ _____ _____    ______ ____
ROOT
ATOM      1  C   UNL     1      -2.018   0.901   0.945  0.00  0.00    -0.008 C 
ATOM      2  C   UNL     1       0.758   0.994   0.898  0.00  0.00    +0.173 C 
ATOM      3  C   UNL     1       0.032   1.751  -0.011  0.00  0.00    +0.172 C 
ATOM      4  C   UNL     1      -1.362   1.704   0.012  0.00  0.00    +0.036 C 
ATOM      5  C   UNL     1      -1.279   0.144   1.855  0.00  0.00    -0.000 C 
ATOM      6  C   UNL     1       0.115   0.191   1.831  0.00  0.00    +0.040 C 
ENDROOT
BRANCH   3   7
ATOM      7  O   UNL     1       0.660   2.540  -0.927  0.00  0.00    -0.468 OA
ATOM      8  C   UNL     1       0.978   1.946  -2.185  0.00  0.00    +0.253 C 
ENDBRANCH   3   7
BRANCH   2   9
ATOM      9  O   UNL     1       2.132   1.032   0.885  0.00  0.00    -0.463 OA
BRANCH   9  10
ATOM     10  C   UNL     1       2.808  -0.186   0.655  0.00  0.00    +0.290 C 
BRANCH  10  13
ATOM     11  O   UNL     1       4.463   1.260  -0.230  0.00  0.00    -0.271 OA
ATOM     12  N   UNL     1       4.984  -1.003  -0.231  0.00  0.00    -0.277 N 
ATOM     13  C   UNL     1       4.156   0.091   0.023  0.00  0.00    +0.270 C 
BRANCH  12  14
ATOM     14  C   UNL     1       4.662  -2.396   0.068  0.00  0.00    +0.094 C 
ATOM     15  C   UNL     1       5.118  -2.785   1.459  0.00  0.00    +0.023 C 
ENDBRANCH  12  14
BRANCH  12  16
ATOM     16  C   UNL     1       6.295  -0.785  -0.831  0.00  0.00    +0.094 C 
ATOM     17  C   UNL     1       6.228  -0.832  -2.343  0.00  0.00    +0.023 C 
ENDBRANCH  12  16
ENDBRANCH  10  13
ENDBRANCH   9  10
ENDBRANCH   2   9
BRANCH   1  18
ATOM     18  C   UNL     1      -3.508   0.851   0.971  0.00  0.00    +0.136 C 
BRANCH  18  20
ATOM     19  O   UNL     1      -3.436  -1.030  -0.570  0.00  0.00    -0.250 OA
ATOM     20  C   UNL     1      -4.092  -0.230   0.082  0.00  0.00    +0.321 C 
BRANCH  20  21
ATOM     21  O   UNL     1      -5.457  -0.165   0.129  0.00  0.00    -0.448 OA
BRANCH  21  22
ATOM     22  C   UNL     1      -6.147  -1.134  -0.667  0.00  0.00    +0.208 C 
BRANCH  22  23
ATOM     23  C   UNL     1      -7.645  -0.927  -0.504  0.00  0.00    +0.047 C 
ATOM     24  C   UNL     1      -8.445  -1.933  -1.312  0.00  0.00    +0.004 C 
ENDBRANCH  22  23
ENDBRANCH  21  22
ENDBRANCH  20  21
ENDBRANCH  18  20
ENDBRANCH   1  18
TORSDOF 11
