REMARK  Name = 500902
REMARK  5 active torsions:
REMARK  status: ('A' for Active; 'I' for Inactive)
REMARK    1  A    between atoms: C_2  and  O_17
REMARK    2  A    between atoms: C_3  and  O_19
REMARK    3  A    between atoms: C_4  and  N_8
REMARK    4  A    between atoms: C_5  and  C_21
REMARK    5  A    between atoms: C_21  and  O_22
REMARK                            x       y       z     vdW  Elec       q    Type
REMARK                         _______ _______ _______ _____ _____    ______ ____
ROOT
ATOM      1  O   UNL     1       1.260   0.741   0.890  0.00  0.00    -0.332 OA
ATOM      2  C   UNL     1       1.237  -1.025  -0.681  0.00  0.00    +0.159 C 
ATOM      3  C   UNL     1       2.696  -0.722  -0.341  0.00  0.00    +0.169 C 
ATOM      4  C   UNL     1       0.522  -0.435   0.532  0.00  0.00    +0.234 C 
ATOM      5  C   UNL     1       2.630   0.572   0.474  0.00  0.00    +0.175 C 
ATOM      6  C   UNL     1       0.820  -0.392  -2.013  0.00  0.00    +0.036 C 
ENDROOT
BRANCH   4   8
ATOM      7  O   UNL     1      -1.693  -2.085   1.079  0.00  0.00    -0.193 OA
ATOM      8  N   UNL     1      -0.850  -0.081   0.306  0.00  0.00    -0.178 N 
ATOM      9  N   UNL     1      -3.212  -0.559   0.363  0.00  0.00    -0.306 NA
ATOM     10  N   UNL     1      -4.764   1.009  -0.373  0.00  0.00    -0.332 N 
ATOM     11  C   UNL     1      -1.134   1.167  -0.225  0.00  0.00    +0.083 C 
ATOM     12  C   UNL     1      -1.912  -0.968   0.608  0.00  0.00    +0.276 C 
ATOM     13  C   UNL     1      -2.377   1.578  -0.468  0.00  0.00    +0.065 C 
ATOM     14  C   UNL     1      -3.465   0.622  -0.138  0.00  0.00    +0.193 C 
ATOM     15  H   UNL     1      -5.506   0.397  -0.164  0.00  0.00    +0.145 HD
ATOM     16  H   UNL     1      -4.952   1.899  -0.750  0.00  0.00    +0.145 HD
ENDBRANCH   4   8
BRANCH   2  17
ATOM     17  O   UNL     1       0.996  -2.423  -0.767  0.00  0.00    -0.380 OA
ATOM     18  H   UNL     1       1.253  -2.847   0.067  0.00  0.00    +0.211 HD
ENDBRANCH   2  17
BRANCH   3  19
ATOM     19  O   UNL     1       3.240  -1.750   0.491  0.00  0.00    -0.379 OA
ATOM     20  H   UNL     1       3.290  -2.579  -0.010  0.00  0.00    +0.211 HD
ENDBRANCH   3  19
BRANCH   5  21
ATOM     21  C   UNL     1       3.061   1.811  -0.295  0.00  0.00    +0.169 C 
BRANCH  21  22
ATOM     22  O   UNL     1       2.947   2.939   0.555  0.00  0.00    -0.379 OA
ATOM     23  H   UNL     1       3.219   3.736   0.074  0.00  0.00    +0.211 HD
ENDBRANCH  21  22
ENDBRANCH   5  21
TORSDOF 5
