REMARK  Name = 71807
REMARK  6 active torsions:
REMARK  status: ('A' for Active; 'I' for Inactive)
REMARK    1  A    between atoms: N_2  and  CA_11
REMARK    2  A    between atoms: C_3  and  C_19
REMARK    3  A    between atoms: CA_10  and  C_16
REMARK    4  A    between atoms: C_16  and  O_17
REMARK    5  A    between atoms: C_19  and  C_22
REMARK    6  A    between atoms: C_19  and  O_28
REMARK                            x       y       z     vdW  Elec       q    Type
REMARK                         _______ _______ _______ _____ _____    ______ ____
ROOT
ATOM      1  O   UNL     1      -1.128   3.211   1.130  0.00  0.00    -0.272 OA
ATOM      2  N   UNL     1      -0.086   1.734  -0.328  0.00  0.00    -0.294 N 
ATOM      3  C   UNL     1      -1.195   2.344   0.261  0.00  0.00    +0.254 C 
ATOM      4  H   UNL     1      -0.239   1.048  -1.017  0.00  0.00    +0.150 HD
ENDROOT
BRANCH   2  11
ATOM      5  S   UNL     1       1.264  -0.554   1.177  0.00  0.00    -0.118 S 
ATOM      6  O   UNL     1       2.470   1.930  -2.229  0.00  0.00    -0.273 OA
ATOM      7  N   UNL     1       2.989   0.886  -0.178  0.00  0.00    -0.260 N 
ATOM      8  C   UNL     1       2.056   1.081   0.933  0.00  0.00    +0.151 C 
ATOM      9  C   UNL     1       2.299  -1.405  -0.115  0.00  0.00    +0.068 C 
ATOM     10  CA  UNL     1       3.465  -0.450  -0.453  0.00  0.00    +0.184 C 
ATOM     11  CA  UNL     1       1.297   2.070   0.034  0.00  0.00    +0.178 C 
ATOM     12  C   UNL     1       2.333   1.707  -1.048  0.00  0.00    +0.247 C 
ATOM     13  C   UNL     1       2.749  -2.768   0.421  0.00  0.00    +0.013 C 
ATOM     14  C   UNL     1       1.404  -1.626  -1.346  0.00  0.00    +0.013 C 
BRANCH  10  16
ATOM     15  OXT UNL     1       4.825  -0.055   1.506  0.00  0.00    -0.248 OA
ATOM     16  C   UNL     1       4.681  -0.583   0.413  0.00  0.00    +0.333 C 
BRANCH  16  17
ATOM     17  O   UNL     1       5.609  -1.372  -0.182  0.00  0.00    -0.479 OA
ATOM     18  H   UNL     1       5.435  -1.747  -1.022  0.00  0.00    +0.295 HD
ENDBRANCH  16  17
ENDBRANCH  10  16
ENDBRANCH   2  11
BRANCH   3  19
ATOM     19  C   UNL     1      -2.518   1.840  -0.298  0.00  0.00    +0.213 C 
BRANCH  19  22
ATOM     20 CL   UNL     1      -3.326  -2.924  -2.148  0.00  0.00    -0.081 Cl
ATOM     21 CL   UNL     1      -3.319  -3.992   0.906  0.00  0.00    -0.081 Cl
ATOM     22  C   UNL     1      -2.722   0.371  -0.012  0.00  0.00    +0.014 C 
ATOM     23  C   UNL     1      -2.908  -0.507  -1.067  0.00  0.00    +0.011 C 
ATOM     24  C   UNL     1      -2.717  -0.071   1.301  0.00  0.00    -0.001 C 
ATOM     25  C   UNL     1      -3.095  -1.863  -0.803  0.00  0.00    +0.068 C 
ATOM     26  C   UNL     1      -2.905  -1.427   1.566  0.00  0.00    +0.012 C 
ATOM     27  C   UNL     1      -3.094  -2.324   0.514  0.00  0.00    +0.068 C 
ENDBRANCH  19  22
BRANCH  19  28
ATOM     28  O   UNL     1      -3.585   2.573   0.286  0.00  0.00    -0.340 OA
ATOM     29  C   UNL     1      -4.844   2.175  -0.242  0.00  0.00    +0.175 C 
ENDBRANCH  19  28
ENDBRANCH   3  19
TORSDOF 6
