REMARK  Name = 71264
REMARK  5 active torsions:
REMARK  status: ('A' for Active; 'I' for Inactive)
REMARK    1  A    between atoms: C_11  and  C_25
REMARK    2  A    between atoms: C_14  and  N_19
REMARK    3  A    between atoms: C_20  and  O_22
REMARK    4  A    between atoms: O_22  and  C_23
REMARK    5  A    between atoms: C_25  and  N_26
REMARK                            x       y       z     vdW  Elec       q    Type
REMARK                         _______ _______ _______ _____ _____    ______ ____
ROOT
ATOM      1  O   UNL     1       2.001  -2.181   1.489  0.00  0.00    -0.276 OA
ATOM      2  N   UNL     1       1.357  -0.339   0.183  0.00  0.00    -0.240 N 
ATOM      3  C   UNL     1       2.225   0.645  -2.372  0.00  0.00    +0.032 C 
ATOM      4  C   UNL     1       3.024   1.665  -1.576  0.00  0.00    +0.032 C 
ATOM      5  C   UNL     1       0.785   0.713  -1.964  0.00  0.00    -0.008 C 
ATOM      6  C   UNL     1       0.400   0.237  -0.704  0.00  0.00    +0.055 C 
ATOM      7  C   UNL     1       3.074   1.502  -0.070  0.00  0.00    -0.008 C 
ATOM      8  C   UNL     1       2.353   0.567   0.708  0.00  0.00    +0.054 C 
ATOM      9  C   UNL     1      -0.949   0.315  -0.321  0.00  0.00    +0.030 C 
ATOM     10  C   UNL     1      -0.178   1.258  -2.825  0.00  0.00    -0.002 C 
ATOM     11  C   UNL     1       1.245  -1.660   0.663  0.00  0.00    +0.212 C 
ATOM     12  C   UNL     1       3.984   2.372   0.577  0.00  0.00    -0.003 C 
ATOM     13  C   UNL     1       2.591   0.543   2.102  0.00  0.00    +0.015 C 
ATOM     14  C   UNL     1      -1.900   0.859  -1.183  0.00  0.00    +0.054 C 
ATOM     15  C   UNL     1      -1.515   1.328  -2.436  0.00  0.00    +0.015 C 
ATOM     16  C   UNL     1       4.199   2.324   1.951  0.00  0.00    -0.000 C 
ATOM     17  C   UNL     1       3.501   1.405   2.715  0.00  0.00    +0.001 C 
ENDROOT
BRANCH  14  19
ATOM     18  O   UNL     1      -3.253   0.011   1.361  0.00  0.00    -0.226 OA
ATOM     19  N   UNL     1      -3.235   0.951  -0.788  0.00  0.00    -0.250 N 
ATOM     20  C   UNL     1      -3.815   0.541   0.410  0.00  0.00    +0.405 C 
ATOM     21  H   UNL     1      -3.847   1.359  -1.441  0.00  0.00    +0.158 HD
BRANCH  20  22
ATOM     22  O   UNL     1      -5.156   0.820   0.383  0.00  0.00    -0.434 OA
BRANCH  22  23
ATOM     23  C   UNL     1      -5.899   0.454   1.552  0.00  0.00    +0.210 C 
ATOM     24  C   UNL     1      -7.351   0.831   1.351  0.00  0.00    +0.051 C 
ENDBRANCH  22  23
ENDBRANCH  20  22
ENDBRANCH  14  19
BRANCH  11  25
ATOM     25  C   UNL     1       0.167  -2.528   0.046  0.00  0.00    +0.011 C 
BRANCH  25  26
ATOM     26  N   UNL     1       0.700  -3.870   0.025  0.00  0.00    +0.390 N 
ATOM     27  C   UNL     1      -0.285  -4.824  -0.503  0.00  0.00    -0.100 C 
ATOM     28  C   UNL     1       1.932  -3.938  -0.773  0.00  0.00    -0.100 C 
ATOM     29  H   UNL     1       0.919  -4.124   0.988  0.00  0.00    -0.079 HD
ENDBRANCH  25  26
ENDBRANCH  11  25
TORSDOF 5
