REMARK  Name = 2466
REMARK  7 active torsions:
REMARK  status: ('A' for Active; 'I' for Inactive)
REMARK    1  A    between atoms: C_1  and  C_12
REMARK    2  A    between atoms: C_2  and  O_7
REMARK    3  A    between atoms: O_7  and  C_8
REMARK    4  A    between atoms: C_8  and  C_9
REMARK    5  A    between atoms: C_9  and  C_10
REMARK    6  A    between atoms: C_12  and  C_15
REMARK    7  A    between atoms: N_14  and  O_17
REMARK                            x       y       z     vdW  Elec       q    Type
REMARK                         _______ _______ _______ _____ _____    ______ ____
ROOT
ATOM      1  C   UNL     1      -1.552  -0.278   0.664  0.00  0.00    -0.013 C 
ATOM      2  C   UNL     1       1.058  -0.466  -0.273  0.00  0.00    +0.139 C 
ATOM      3  C   UNL     1      -0.994  -1.529   0.402  0.00  0.00    -0.001 C 
ATOM      4  C   UNL     1      -0.801   0.879   0.456  0.00  0.00    -0.001 C 
ATOM      5  C   UNL     1       0.316  -1.623  -0.068  0.00  0.00    +0.037 C 
ATOM      6  C   UNL     1       0.509   0.784  -0.014  0.00  0.00    +0.037 C 
ENDROOT
BRANCH   2   7
ATOM      7  O   UNL     1       2.345  -0.560  -0.736  0.00  0.00    -0.475 OA
BRANCH   7   8
ATOM      8  C   UNL     1       3.248   0.460  -0.331  0.00  0.00    +0.205 C 
BRANCH   8   9
ATOM      9  C   UNL     1       4.655  -0.119  -0.283  0.00  0.00    +0.047 C 
BRANCH   9  10
ATOM     10  C   UNL     1       5.678   0.922   0.162  0.00  0.00    +0.004 C 
ATOM     11  C   UNL     1       7.075   0.328   0.249  0.00  0.00    +0.000 C 
ENDBRANCH   9  10
ENDBRANCH   8   9
ENDBRANCH   7   8
ENDBRANCH   2   7
BRANCH   1  12
ATOM     12  C   UNL     1      -2.952  -0.176   1.167  0.00  0.00    +0.113 C 
BRANCH  12  15
ATOM     13  O   UNL     1      -4.154  -0.931  -0.794  0.00  0.00    -0.273 OA
ATOM     14  N   UNL     1      -4.723   1.096   0.156  0.00  0.00    -0.197 N 
ATOM     15  C   UNL     1      -3.996  -0.067   0.065  0.00  0.00    +0.249 C 
ATOM     16  H   UNL     1      -4.560   1.760   0.864  0.00  0.00    +0.182 HD
BRANCH  14  17
ATOM     17  O   UNL     1      -5.710   1.279  -0.822  0.00  0.00    -0.295 OA
ATOM     18  H   UNL     1      -6.163   2.123  -0.671  0.00  0.00    +0.241 HD
ENDBRANCH  14  17
ENDBRANCH  12  15
ENDBRANCH   1  12
TORSDOF 7
