REMARK  Name = 7211
REMARK  7 active torsions:
REMARK  status: ('A' for Active; 'I' for Inactive)
REMARK    1  A    between atoms: C_1  and  C_2
REMARK    2  A    between atoms: C_1  and  C_4
REMARK    3  A    between atoms: C_1  and  C_10
REMARK    4  A    between atoms: C_4  and  O_5
REMARK    5  A    between atoms: C_4  and  C_7
REMARK    6  A    between atoms: C_7  and  C_8
REMARK    7  A    between atoms: C_10  and  O_11
REMARK                            x       y       z     vdW  Elec       q    Type
REMARK                         _______ _______ _______ _____ _____    ______ ____
ROOT
ATOM      1  C   UNL     1       1.381  -0.078   0.115  0.00  0.00    +0.056 C 
ENDROOT
BRANCH   1   2
ATOM      2  C   UNL     1       1.636  -1.457  -0.541  0.00  0.00    +0.005 C 
ATOM      3  C   UNL     1       1.458  -2.633   0.409  0.00  0.00    +0.000 C 
ENDBRANCH   1   2
BRANCH   1   4
ATOM      4  C   UNL     1      -0.047   0.030   0.717  0.00  0.00    +0.113 C 
BRANCH   4   5
ATOM      5  O   UNL     1      -0.225   1.277   1.386  0.00  0.00    -0.384 OA
ATOM      6  H   UNL     1       0.481   1.396   2.041  0.00  0.00    +0.210 HD
ENDBRANCH   4   5
BRANCH   4   7
ATOM      7  C   UNL     1      -1.166  -0.158  -0.321  0.00  0.00    +0.029 C 
BRANCH   7   8
ATOM      8  C   UNL     1      -2.583  -0.062   0.260  0.00  0.00    +0.002 C 
ATOM      9  C   UNL     1      -3.680  -0.271  -0.773  0.00  0.00    +0.000 C 
ENDBRANCH   7   8
ENDBRANCH   4   7
ENDBRANCH   1   4
BRANCH   1  10
ATOM     10  C   UNL     1       1.707   1.030  -0.906  0.00  0.00    +0.139 C 
BRANCH  10  11
ATOM     11  O   UNL     1       1.517   2.321  -0.346  0.00  0.00    -0.382 OA
ATOM     12  H   UNL     1       1.729   2.996  -1.010  0.00  0.00    +0.210 HD
ENDBRANCH  10  11
ENDBRANCH   1  10
TORSDOF 7
