REMARK  Name = 92879
REMARK  7 active torsions:
REMARK  status: ('A' for Active; 'I' for Inactive)
REMARK    1  A    between atoms: N_2  and  CA_11
REMARK    2  A    between atoms: C_3  and  C_19
REMARK    3  A    between atoms: CA_10  and  C_16
REMARK    4  A    between atoms: C_16  and  O_17
REMARK    5  A    between atoms: C_19  and  C_20
REMARK    6  A    between atoms: C_19  and  O_22
REMARK    7  A    between atoms: O_22  and  C_23
REMARK                            x       y       z     vdW  Elec       q    Type
REMARK                         _______ _______ _______ _____ _____    ______ ____
ROOT
ATOM      1  O   UNL     1      -1.356  -2.198   1.326  0.00  0.00    -0.271 OA
ATOM      2  N   UNL     1      -0.146  -1.575  -0.553  0.00  0.00    -0.293 N 
ATOM      3  C   UNL     1      -1.315  -1.723   0.193  0.00  0.00    +0.263 C 
ATOM      4  H   UNL     1      -0.210  -1.184  -1.454  0.00  0.00    +0.150 HD
ENDROOT
BRANCH   2  11
ATOM      5  S   UNL     1       2.119  -0.179  -2.085  0.00  0.00    -0.118 S 
ATOM      6  O   UNL     1       1.281  -0.781   2.198  0.00  0.00    -0.273 OA
ATOM      7  N   UNL     1       2.770  -0.712   0.368  0.00  0.00    -0.260 N 
ATOM      8  C   UNL     1       2.407  -1.477  -0.828  0.00  0.00    +0.151 C 
ATOM      9  C   UNL     1       3.393   0.924  -1.294  0.00  0.00    +0.068 C 
ATOM     10  CA  UNL     1       3.218   0.658   0.217  0.00  0.00    +0.184 C 
ATOM     11  CA  UNL     1       1.177  -1.976  -0.055  0.00  0.00    +0.178 C 
ATOM     12  C   UNL     1       1.697  -1.111   1.110  0.00  0.00    +0.247 C 
ATOM     13  C   UNL     1       4.768   0.536  -1.854  0.00  0.00    +0.013 C 
ATOM     14  C   UNL     1       3.077   2.380  -1.643  0.00  0.00    +0.013 C 
BRANCH  10  16
ATOM     15  OXT UNL     1       5.009  -0.091   1.653  0.00  0.00    -0.248 OA
ATOM     16  C   UNL     1       4.457   0.811   1.041  0.00  0.00    +0.333 C 
BRANCH  16  17
ATOM     17  O   UNL     1       4.888   2.096   1.022  0.00  0.00    -0.479 OA
ATOM     18  H   UNL     1       4.418   2.741   0.532  0.00  0.00    +0.295 HD
ENDBRANCH  16  17
ENDBRANCH  10  16
ENDBRANCH   2  11
BRANCH   3  19
ATOM     19  C   UNL     1      -2.557  -1.213  -0.528  0.00  0.00    +0.241 C 
BRANCH  19  20
ATOM     20  C   UNL     1      -3.260  -2.309  -1.334  0.00  0.00    +0.053 C 
ATOM     21  C   UNL     1      -3.794  -3.452  -0.479  0.00  0.00    +0.004 C 
ENDBRANCH  19  20
BRANCH  19  22
ATOM     22  O   UNL     1      -3.463  -0.671   0.419  0.00  0.00    -0.470 OA
BRANCH  22  23
ATOM     23  C   UNL     1      -3.761   0.663   0.302  0.00  0.00    +0.139 C 
ATOM     24  C   UNL     1      -2.744   1.604   0.397  0.00  0.00    +0.037 C 
ATOM     25  C   UNL     1      -5.077   1.057   0.090  0.00  0.00    +0.037 C 
ATOM     26  C   UNL     1      -3.046   2.961   0.279  0.00  0.00    +0.003 C 
ATOM     27  C   UNL     1      -5.379   2.413  -0.028  0.00  0.00    +0.003 C 
ATOM     28  C   UNL     1      -4.364   3.365   0.066  0.00  0.00    +0.000 C 
ENDBRANCH  22  23
ENDBRANCH  19  22
ENDBRANCH   3  19
TORSDOF 7
