REMARK  Name = 28061
REMARK  5 active torsions:
REMARK  status: ('A' for Active; 'I' for Inactive)
REMARK    1  A    between atoms: N_1  and  C_10
REMARK    2  A    between atoms: C_4  and  N_9
REMARK    3  A    between atoms: C_10  and  C_11
REMARK    4  A    between atoms: C_11  and  C_13
REMARK    5  A    between atoms: C_11  and  O_14
REMARK                            x       y       z     vdW  Elec       q    Type
REMARK                         _______ _______ _______ _____ _____    ______ ____
ROOT
ATOM      1  N   UNL     1       0.381  -0.438  -0.297  0.00  0.00    -0.254 N 
ATOM      2  N   UNL     1       1.780  -2.085   0.134  0.00  0.00    -0.230 NA
ATOM      3  C   UNL     1       0.541  -1.780  -0.183  0.00  0.00    +0.114 C 
ATOM      4  C   UNL     1       1.569   0.165  -0.044  0.00  0.00    +0.218 C 
ATOM      5  C   UNL     1       2.426  -0.877   0.222  0.00  0.00    +0.140 C 
ATOM      6  C   UNL     1      -0.562  -2.739  -0.398  0.00  0.00    +0.069 C 
ENDROOT
BRANCH   4   9
ATOM      7  O   UNL     1       2.923   2.013   0.177  0.00  0.00    -0.125 OA
ATOM      8  O   UNL     1       0.810   2.317  -0.351  0.00  0.00    -0.125 OA
ATOM      9  N   UNL     1       1.775   1.548  -0.073  0.00  0.00    +0.074 N 
ENDBRANCH   4   9
BRANCH   1  10
ATOM     10  C   UNL     1      -0.870   0.241  -0.640  0.00  0.00    +0.129 C 
BRANCH  10  11
ATOM     11  C   UNL     1      -1.698   0.590   0.602  0.00  0.00    +0.147 C 
BRANCH  11  13
ATOM     12 CL   UNL     1      -4.076   0.339  -0.777  0.00  0.00    -0.111 Cl
ATOM     13  C   UNL     1      -3.013   1.302   0.283  0.00  0.00    +0.126 C 
ENDBRANCH  11  13
BRANCH  11  14
ATOM     14  O   UNL     1      -1.986  -0.595   1.345  0.00  0.00    -0.381 OA
ATOM     15  H   UNL     1      -1.157  -1.055   1.554  0.00  0.00    +0.210 HD
ENDBRANCH  11  14
ENDBRANCH  10  11
ENDBRANCH   1  10
TORSDOF 5
