REMARK  Name = 26618
REMARK  5 active torsions:
REMARK  status: ('A' for Active; 'I' for Inactive)
REMARK    1  A    between atoms: C_2  and  C_10
REMARK    2  A    between atoms: C_3  and  S_20
REMARK    3  A    between atoms: C_5  and  O_26
REMARK    4  A    between atoms: N_9  and  C_12
REMARK    5  A    between atoms: S_20  and  N_23
REMARK                            x       y       z     vdW  Elec       q    Type
REMARK                         _______ _______ _______ _____ _____    ______ ____
ROOT
ATOM      1 CL   UNL     1       5.239  -0.869  -0.281  0.00  0.00    -0.081 Cl
ATOM      2  C   UNL     1       0.761  -0.939   0.303  0.00  0.00    +0.089 C 
ATOM      3  C   UNL     1       2.781   0.316  -0.118  0.00  0.00    +0.133 C 
ATOM      4  C   UNL     1       1.399   0.278   0.066  0.00  0.00    +0.028 C 
ATOM      5  C   UNL     1       1.505  -2.118   0.358  0.00  0.00    +0.139 C 
ATOM      6  C   UNL     1       3.525  -0.863  -0.064  0.00  0.00    +0.079 C 
ATOM      7  C   UNL     1       2.887  -2.080   0.174  0.00  0.00    +0.049 C 
ENDROOT
BRANCH   2  10
ATOM      8  O   UNL     1      -1.181  -1.816   1.238  0.00  0.00    -0.270 OA
ATOM      9  N   UNL     1      -1.400   0.039  -0.181  0.00  0.00    -0.281 N 
ATOM     10  C   UNL     1      -0.683  -0.958   0.493  0.00  0.00    +0.252 C 
ATOM     11  H   UNL     1      -0.864   0.650  -0.737  0.00  0.00    +0.155 HD
BRANCH   9  12
ATOM     12  C   UNL     1      -2.795   0.283  -0.167  0.00  0.00    +0.042 C 
ATOM     13  C   UNL     1      -3.603  -0.339  -1.106  0.00  0.00    -0.009 C 
ATOM     14  C   UNL     1      -3.326   1.139   0.785  0.00  0.00    -0.009 C 
ATOM     15  C   UNL     1      -4.977  -0.099  -1.092  0.00  0.00    -0.003 C 
ATOM     16  C   UNL     1      -4.700   1.379   0.799  0.00  0.00    -0.003 C 
ATOM     17  C   UNL     1      -5.526   0.760  -0.140  0.00  0.00    -0.001 C 
ATOM     18  C   UNL     1      -3.046  -1.264  -2.138  0.00  0.00    +0.032 C 
ATOM     19  C   UNL     1      -2.468   1.817   1.804  0.00  0.00    +0.032 C 
ENDBRANCH   9  12
ENDBRANCH   2  10
BRANCH   3  20
ATOM     20  S   UNL     1       3.529   1.873  -0.412  0.00  0.00    +0.058 S 
ATOM     21  O   UNL     1       4.778   1.650  -1.122  0.00  0.00    -0.153 OA
ATOM     22  O   UNL     1       2.524   2.764  -0.970  0.00  0.00    -0.153 OA
BRANCH  20  23
ATOM     23  N   UNL     1       3.878   2.367   1.185  0.00  0.00    -0.203 NA
ATOM     24  H   UNL     1       4.328   3.282   1.167  0.00  0.00    +0.144 HD
ATOM     25  H   UNL     1       4.504   1.689   1.621  0.00  0.00    +0.144 HD
ENDBRANCH  20  23
ENDBRANCH   3  20
BRANCH   5  26
ATOM     26  O   UNL     1       0.899  -3.317   0.589  0.00  0.00    -0.505 OA
ATOM     27  H   UNL     1      -0.029  -3.357   0.714  0.00  0.00    +0.292 HD
ENDBRANCH   5  26
TORSDOF 5
