REMARK  Name = 8554
REMARK  4 active torsions:
REMARK  status: ('A' for Active; 'I' for Inactive)
REMARK    1  A    between atoms: C_1  and  C_8
REMARK    2  A    between atoms: C_2  and  C_12
REMARK    3  A    between atoms: C_8  and  O_9
REMARK    4  A    between atoms: C_12  and  O_13
REMARK                            x       y       z     vdW  Elec       q    Type
REMARK                         _______ _______ _______ _____ _____    ______ ____
ROOT
ATOM      1  C   UNL     1       0.553   0.776  -0.113  0.00  0.00    +0.082 C 
ATOM      2  C   UNL     1      -0.763   0.313  -0.102  0.00  0.00    +0.082 C 
ATOM      3  C   UNL     1       0.814   2.140   0.016  0.00  0.00    +0.007 C 
ATOM      4  C   UNL     1      -1.818   1.215   0.038  0.00  0.00    +0.007 C 
ATOM      5  C   UNL     1      -0.242   3.042   0.157  0.00  0.00    +0.000 C 
ATOM      6  C   UNL     1      -1.558   2.579   0.168  0.00  0.00    +0.000 C 
ENDROOT
BRANCH   1   8
ATOM      7  O   UNL     1       2.152  -0.459  -1.348  0.00  0.00    -0.245 OA
ATOM      8  C   UNL     1       1.677  -0.140  -0.258  0.00  0.00    +0.342 C 
BRANCH   8   9
ATOM      9  O   UNL     1       2.152  -0.611   0.940  0.00  0.00    -0.441 OA
ATOM     10  C   UNL     1       3.258  -1.518   0.870  0.00  0.00    +0.256 C 
ENDBRANCH   8   9
ENDBRANCH   1   8
BRANCH   2  12
ATOM     11  O   UNL     1      -0.361  -1.892  -0.866  0.00  0.00    -0.245 OA
ATOM     12  C   UNL     1      -1.067  -1.105  -0.235  0.00  0.00    +0.342 C 
BRANCH  12  13
ATOM     13  O   UNL     1      -2.219  -1.478   0.412  0.00  0.00    -0.441 OA
ATOM     14  C   UNL     1      -2.578  -2.861   0.322  0.00  0.00    +0.256 C 
ENDBRANCH  12  13
ENDBRANCH   2  12
TORSDOF 4
