REMARK  Name = 69594
REMARK  4 active torsions:
REMARK  status: ('A' for Active; 'I' for Inactive)
REMARK    1  A    between atoms: C_2  and  S_8
REMARK    2  A    between atoms: C_3  and  S_14
REMARK    3  A    between atoms: S_8  and  N_11
REMARK    4  A    between atoms: S_14  and  N_17
REMARK                            x       y       z     vdW  Elec       q    Type
REMARK                         _______ _______ _______ _____ _____    ______ ____
ROOT
ATOM      1 CL   UNL     1      -2.742  -2.171   0.028  0.00  0.00    -0.081 Cl
ATOM      2  C   UNL     1      -1.048  -0.029  -0.068  0.00  0.00    +0.133 C 
ATOM      3  C   UNL     1       1.356  -0.275  -0.067  0.00  0.00    +0.123 C 
ATOM      4  C   UNL     1       0.225   0.541  -0.097  0.00  0.00    +0.041 C 
ATOM      5  C   UNL     1      -1.190  -1.415  -0.010  0.00  0.00    +0.076 C 
ATOM      6  C   UNL     1       1.214  -1.662  -0.009  0.00  0.00    +0.021 C 
ATOM      7  C   UNL     1      -0.059  -2.232   0.020  0.00  0.00    +0.014 C 
ENDROOT
BRANCH   2   8
ATOM      8  S   UNL     1      -2.431   1.046  -0.107  0.00  0.00    +0.058 S 
ATOM      9  O   UNL     1      -2.018   2.294  -0.729  0.00  0.00    -0.153 OA
ATOM     10  O   UNL     1      -3.567   0.309  -0.638  0.00  0.00    -0.153 OA
BRANCH   8  11
ATOM     11  N   UNL     1      -2.676   1.311   1.562  0.00  0.00    -0.203 NA
ATOM     12  H   UNL     1      -3.472   1.936   1.693  0.00  0.00    +0.144 HD
ATOM     13  H   UNL     1      -1.841   1.734   1.965  0.00  0.00    +0.144 HD
ENDBRANCH   8  11
ENDBRANCH   2   8
BRANCH   3  14
ATOM     14  S   UNL     1       2.949   0.438  -0.101  0.00  0.00    +0.057 S 
ATOM     15  O   UNL     1       3.882  -0.547  -0.631  0.00  0.00    -0.153 OA
ATOM     16  O   UNL     1       2.855   1.752  -0.722  0.00  0.00    -0.153 OA
BRANCH  14  17
ATOM     17  N   UNL     1       3.251   0.641   1.568  0.00  0.00    -0.203 NA
ATOM     18  H   UNL     1       4.172   1.059   1.699  0.00  0.00    +0.144 HD
ATOM     19  H   UNL     1       3.221  -0.267   2.032  0.00  0.00    +0.144 HD
ENDBRANCH  14  17
ENDBRANCH   3  14
TORSDOF 4
