REMARK  Name = 5524
REMARK  1 active torsions:
REMARK  status: ('A' for Active; 'I' for Inactive)
REMARK    1  A    between atoms: C_7  and  N_11
REMARK                            x       y       z     vdW  Elec       q    Type
REMARK                         _______ _______ _______ _____ _____    ______ ____
ROOT
ATOM      1  C   UNL     1      -1.499  -1.723   0.115  0.00  0.00    +0.027 C 
ATOM      2  C   UNL     1      -2.838  -2.158  -0.476  0.00  0.00    +0.005 C 
ATOM      3  C   UNL     1      -1.296  -0.228   0.093  0.00  0.00    -0.013 C 
ATOM      4  C   UNL     1      -3.970  -1.309   0.088  0.00  0.00    +0.005 C 
ATOM      5  C   UNL     1      -3.780   0.158  -0.296  0.00  0.00    +0.026 C 
ATOM      6  C   UNL     1      -2.377   0.659  -0.061  0.00  0.00    -0.025 C 
ATOM      7  C   UNL     1      -0.005   0.287   0.289  0.00  0.00    +0.046 C 
ATOM      8  C   UNL     1      -2.141   2.042  -0.053  0.00  0.00    -0.004 C 
ATOM      9  C   UNL     1       0.215   1.664   0.305  0.00  0.00    +0.014 C 
ATOM     10  C   UNL     1      -0.852   2.541   0.132  0.00  0.00    +0.001 C 
ENDROOT
BRANCH   7  11
ATOM     11  N   UNL     1       1.107  -0.570   0.466  0.00  0.00    -0.286 N 
ATOM     12  N   UNL     1       3.289  -1.315   0.393  0.00  0.00    -0.284 N 
ATOM     13  N   UNL     1       2.853   0.741  -0.463  0.00  0.00    -0.214 NA
ATOM     14  C   UNL     1       2.382  -0.337   0.118  0.00  0.00    +0.189 C 
ATOM     15  C   UNL     1       4.598  -0.921  -0.032  0.00  0.00    +0.085 C 
ATOM     16  C   UNL     1       4.314   0.469  -0.617  0.00  0.00    +0.117 C 
ATOM     17  H   UNL     1       0.924  -1.437   0.895  0.00  0.00    +0.155 HD
ATOM     18  H   UNL     1       3.075  -2.174   0.824  0.00  0.00    +0.155 HD
ENDBRANCH   7  11
TORSDOF 1
