REMARK  Name = 22875828
REMARK  4 active torsions:
REMARK  status: ('A' for Active; 'I' for Inactive)
REMARK    1  A    between atoms: C_7  and  C_26
REMARK    2  A    between atoms: C_11  and  O_23
REMARK    3  A    between atoms: C_26  and  C_28
REMARK    4  A    between atoms: C_28  and  O_29
REMARK                            x       y       z     vdW  Elec       q    Type
REMARK                         _______ _______ _______ _____ _____    ______ ____
ROOT
ATOM      1  F   UNL     1       3.620  -2.947  -0.152  0.00  0.00    -0.233 F 
ATOM      2  O   UNL     1       6.061   0.838   1.786  0.00  0.00    -0.287 OA
ATOM      3  C   UNL     1      -1.847   0.016  -0.299  0.00  0.00    +0.009 C 
ATOM      4  C   UNL     1      -0.848  -1.083   0.115  0.00  0.00    +0.001 C 
ATOM      5  C   UNL     1       0.537  -0.921  -0.526  0.00  0.00    +0.006 C 
ATOM      6  C   UNL     1       1.139   0.458  -0.076  0.00  0.00    +0.034 C 
ATOM      7  C   UNL     1      -3.086  -0.470   0.491  0.00  0.00    +0.069 C 
ATOM      8  C   UNL     1      -1.281   1.367   0.175  0.00  0.00    +0.030 C 
ATOM      9  C   UNL     1      -1.627  -2.377  -0.106  0.00  0.00    +0.000 C 
ATOM     10  C   UNL     1      -3.077  -2.011   0.294  0.00  0.00    +0.007 C 
ATOM     11  C   UNL     1       0.150   1.638  -0.341  0.00  0.00    +0.111 C 
ATOM     12  C   UNL     1       2.618   0.661  -0.595  0.00  0.00    +0.039 C 
ATOM     13  C   UNL     1       1.456  -2.085  -0.123  0.00  0.00    +0.040 C 
ATOM     14  C   UNL     1      -2.149   0.048  -1.820  0.00  0.00    +0.001 C 
ATOM     15  C   UNL     1       2.882  -1.900  -0.623  0.00  0.00    +0.180 C 
ATOM     16  C   UNL     1       3.428  -0.570  -0.167  0.00  0.00    -0.006 C 
ATOM     17  C   UNL     1      -3.525  -2.741   1.558  0.00  0.00    +0.000 C 
ATOM     18  C   UNL     1       2.732   0.801  -2.130  0.00  0.00    +0.009 C 
ATOM     19  C   UNL     1       3.203   1.938  -0.009  0.00  0.00    -0.020 C 
ATOM     20  C   UNL     1       4.529  -0.504   0.599  0.00  0.00    +0.036 C 
ATOM     21  C   UNL     1       4.297   2.008   0.755  0.00  0.00    +0.038 C 
ATOM     22  C   UNL     1       5.046   0.786   1.100  0.00  0.00    +0.195 C 
ENDROOT
BRANCH  11  23
ATOM     23  O   UNL     1       0.101   1.967  -1.722  0.00  0.00    -0.384 OA
ATOM     24  H   UNL     1       1.000   2.137  -2.046  0.00  0.00    +0.210 HD
ENDBRANCH  11  23
BRANCH   7  26
ATOM     25  O   UNL     1      -5.100  -0.282  -0.830  0.00  0.00    -0.284 OA
ATOM     26  C   UNL     1      -4.374   0.157   0.049  0.00  0.00    +0.247 C 
BRANCH  26  28
ATOM     27  O   UNL     1      -4.117   1.944   1.601  0.00  0.00    -0.242 OA
ATOM     28  C   UNL     1      -4.801   1.416   0.748  0.00  0.00    +0.373 C 
BRANCH  28  29
ATOM     29  O   UNL     1      -5.966   1.847   0.247  0.00  0.00    -0.475 OA
ATOM     30  H   UNL     1      -6.405   1.348  -0.414  0.00  0.00    +0.295 HD
ENDBRANCH  28  29
ENDBRANCH  26  28
ENDBRANCH   7  26
TORSDOF 4
