REMARK  Name = 2536
REMARK  10 active torsions:
REMARK  status: ('A' for Active; 'I' for Inactive)
REMARK    1  A    between atoms: O_1  and  C_5
REMARK    2  A    between atoms: O_1  and  C_19
REMARK    3  A    between atoms: C_2  and  C_8
REMARK    4  A    between atoms: C_8  and  C_10
REMARK    5  A    between atoms: C_10  and  O_11
REMARK    6  A    between atoms: O_11  and  C_12
REMARK    7  A    between atoms: C_12  and  C_15
REMARK    8  A    between atoms: C_19  and  C_20
REMARK    9  A    between atoms: C_23  and  N_26
REMARK   10  A    between atoms: N_26  and  C_29
REMARK                            x       y       z     vdW  Elec       q    Type
REMARK                         _______ _______ _______ _____ _____    ______ ____
ROOT
ATOM      1  O   UNL     1       1.966   1.099   0.117  0.00  0.00    -0.421 OA
ENDROOT
BRANCH   1   5
ATOM      2  C   UNL     1      -2.164   1.467  -0.077  0.00  0.00    -0.011 C 
ATOM      3  C   UNL     1      -1.427   1.252  -1.242  0.00  0.00    -0.001 C 
ATOM      4  C   UNL     1      -1.512   1.559   1.153  0.00  0.00    -0.001 C 
ATOM      5  C   UNL     1       0.612   1.220   0.053  0.00  0.00    +0.149 C 
ATOM      6  C   UNL     1      -0.040   1.128  -1.177  0.00  0.00    +0.037 C 
ATOM      7  C   UNL     1      -0.124   1.435   1.218  0.00  0.00    +0.037 C 
BRANCH   2   8
ATOM      8  C   UNL     1      -3.663   1.601  -0.147  0.00  0.00    +0.136 C 
BRANCH   8  10
ATOM      9  O   UNL     1      -3.841  -0.803   0.183  0.00  0.00    -0.250 OA
ATOM     10  C   UNL     1      -4.380   0.279  -0.003  0.00  0.00    +0.322 C 
BRANCH  10  11
ATOM     11  O   UNL     1      -5.736   0.478  -0.112  0.00  0.00    -0.438 OA
BRANCH  11  12
ATOM     12  C   UNL     1      -6.547  -0.672   0.004  0.00  0.00    +0.293 C 
BRANCH  12  15
ATOM     13  O   UNL     1      -8.289   0.907  -0.290  0.00  0.00    -0.271 OA
ATOM     14  N   UNL     1      -8.949  -1.310  -0.097  0.00  0.00    -0.273 N 
ATOM     15  C   UNL     1      -8.004  -0.284  -0.138  0.00  0.00    +0.270 C 
ATOM     16  C   UNL     1      -8.650  -2.731   0.066  0.00  0.00    +0.115 C 
ATOM     17  C   UNL     1     -10.363  -0.987  -0.238  0.00  0.00    +0.115 C 
ENDBRANCH  12  15
ENDBRANCH  11  12
ENDBRANCH  10  11
ENDBRANCH   8  10
ENDBRANCH   2   8
ENDBRANCH   1   5
BRANCH   1  19
ATOM     18  O   UNL     1       1.710  -1.199   0.415  0.00  0.00    -0.244 OA
ATOM     19  C   UNL     1       2.418  -0.210   0.301  0.00  0.00    +0.346 C 
BRANCH  19  20
ATOM     20  C   UNL     1       3.901  -0.261   0.360  0.00  0.00    +0.076 C 
ATOM     21  C   UNL     1       4.645   0.910   0.221  0.00  0.00    +0.008 C 
ATOM     22  C   UNL     1       4.550  -1.481   0.554  0.00  0.00    +0.008 C 
ATOM     23  C   UNL     1       6.687  -0.357   0.471  0.00  0.00    +0.084 C 
ATOM     24  C   UNL     1       6.038   0.862   0.277  0.00  0.00    +0.019 C 
ATOM     25  C   UNL     1       5.943  -1.529   0.610  0.00  0.00    +0.019 C 
BRANCH  23  26
ATOM     26  N   UNL     1       8.084  -0.405   0.527  0.00  0.00    -0.214 NA
BRANCH  26  29
ATOM     27  N   UNL     1       8.245  -0.742  -1.854  0.00  0.00    -0.370 N 
ATOM     28  N   UNL     1      10.131  -0.639  -0.572  0.00  0.00    -0.370 N 
ATOM     29  C   UNL     1       8.757  -0.586  -0.584  0.00  0.00    +0.193 C 
ATOM     30  H   UNL     1       7.272  -0.724  -1.998  0.00  0.00    +0.159 HD
ATOM     31  H   UNL     1       8.854  -0.873  -2.617  0.00  0.00    +0.159 HD
ATOM     32  H   UNL     1      10.620  -0.540   0.276  0.00  0.00    +0.159 HD
ATOM     33  H   UNL     1      10.625  -0.775  -1.413  0.00  0.00    +0.159 HD
ENDBRANCH  26  29
ENDBRANCH  23  26
ENDBRANCH  19  20
ENDBRANCH   1  19
TORSDOF 10
