REMARK  Name = 68548
REMARK  3 active torsions:
REMARK  status: ('A' for Active; 'I' for Inactive)
REMARK    1  A    between atoms: C_5  and  C_15
REMARK    2  A    between atoms: C_10  and  S_21
REMARK    3  A    between atoms: S_21  and  N_24
REMARK                            x       y       z     vdW  Elec       q    Type
REMARK                         _______ _______ _______ _____ _____    ______ ____
ROOT
ATOM      1 CL   UNL     1      -3.559   2.795   0.228  0.00  0.00    -0.081 Cl
ATOM      2  O   UNL     1      -0.175  -2.983  -0.149  0.00  0.00    -0.270 OA
ATOM      3  N   UNL     1       1.147   0.873  -0.175  0.00  0.00    -0.315 N 
ATOM      4  N   UNL     1       1.559  -1.489  -0.364  0.00  0.00    -0.283 N 
ATOM      5  C   UNL     1       2.024  -0.152  -0.711  0.00  0.00    +0.170 C 
ATOM      6  C   UNL     1      -0.218   0.622  -0.134  0.00  0.00    +0.051 C 
ATOM      7  C   UNL     1      -0.721  -0.687  -0.188  0.00  0.00    +0.068 C 
ATOM      8  C   UNL     1       0.225  -1.827  -0.243  0.00  0.00    +0.248 C 
ATOM      9  C   UNL     1      -2.099  -0.932  -0.132  0.00  0.00    +0.027 C 
ATOM     10  C   UNL     1      -2.986   0.136  -0.012  0.00  0.00    +0.132 C 
ATOM     11  C   UNL     1      -1.127   1.679   0.011  0.00  0.00    +0.027 C 
ATOM     12  C   UNL     1      -2.502   1.439   0.065  0.00  0.00    +0.077 C 
ATOM     13  H   UNL     1       1.511   1.728   0.151  0.00  0.00    +0.149 HD
ATOM     14  H   UNL     1       2.232  -2.189  -0.207  0.00  0.00    +0.152 HD
ENDROOT
BRANCH   5  15
ATOM     15  C   UNL     1       3.444   0.077  -0.243  0.00  0.00    +0.014 C 
ATOM     16  C   UNL     1       4.309   0.869  -0.998  0.00  0.00    -0.001 C 
ATOM     17  C   UNL     1       3.890  -0.504   0.945  0.00  0.00    -0.001 C 
ATOM     18  C   UNL     1       5.619   1.080  -0.567  0.00  0.00    -0.000 C 
ATOM     19  C   UNL     1       5.200  -0.293   1.376  0.00  0.00    -0.000 C 
ATOM     20  C   UNL     1       6.064   0.499   0.621  0.00  0.00    -0.000 C 
ENDBRANCH   5  15
BRANCH  10  21
ATOM     21  S   UNL     1      -4.700  -0.224   0.053  0.00  0.00    +0.058 S 
ATOM     22  O   UNL     1      -5.384   0.970  -0.436  0.00  0.00    -0.153 OA
ATOM     23  O   UNL     1      -4.852  -1.498  -0.642  0.00  0.00    -0.153 OA
BRANCH  21  24
ATOM     24  N   UNL     1      -5.158  -0.450   1.695  0.00  0.00    -0.203 NA
ATOM     25  H   UNL     1      -6.155  -0.660   1.744  0.00  0.00    +0.144 HD
ATOM     26  H   UNL     1      -4.964   0.401   2.222  0.00  0.00    +0.144 HD
ENDBRANCH  21  24
ENDBRANCH  10  21
TORSDOF 3
