REMARK  Name = 6301
REMARK  1 active torsions:
REMARK  status: ('A' for Active; 'I' for Inactive)
REMARK    1  A    between atoms: C_6  and  O_14
REMARK                            x       y       z     vdW  Elec       q    Type
REMARK                         _______ _______ _______ _____ _____    ______ ____
ROOT
ATOM      1 CL   UNL     1       1.234   3.281   0.000  0.00  0.00    -0.086 Cl
ATOM      2 CL   UNL     1       3.660  -1.471   0.000  0.00  0.00    -0.079 Cl
ATOM      3  N   UNL     1      -1.425  -1.159   0.000  0.00  0.00    -0.407 NA
ATOM      4  C   UNL     1      -0.179   0.904   0.000  0.00  0.00    +0.110 C 
ATOM      5  C   UNL     1      -0.248  -0.504   0.000  0.00  0.00    +0.151 C 
ATOM      6  C   UNL     1       0.947  -1.218   0.000  0.00  0.00    +0.170 C 
ATOM      7  C   UNL     1      -1.383   1.623   0.000  0.00  0.00    -0.012 C 
ATOM      8  C   UNL     1       1.066   1.554   0.000  0.00  0.00    +0.047 C 
ATOM      9  C   UNL     1      -2.563  -0.428   0.000  0.00  0.00    +0.109 C 
ATOM     10  C   UNL     1      -2.597   0.952   0.000  0.00  0.00    +0.024 C 
ATOM     11  C   UNL     1       2.186  -0.572   0.000  0.00  0.00    +0.094 C 
ATOM     12  C   UNL     1       2.246   0.816   0.000  0.00  0.00    +0.022 C 
ATOM     13  C   UNL     1      -3.845  -1.192   0.000  0.00  0.00    +0.066 C 
ENDROOT
BRANCH   6  14
ATOM     14  O   UNL     1       0.899  -2.587   0.000  0.00  0.00    -0.503 OA
ATOM     15  H   UNL     1       0.071  -3.026   0.000  0.00  0.00    +0.292 HD
ENDBRANCH   6  14
TORSDOF 1
