REMARK  Name = 44137686
REMARK  6 active torsions:
REMARK  status: ('A' for Active; 'I' for Inactive)
REMARK    1  A    between atoms: N_1  and  C_6
REMARK    2  A    between atoms: C_2  and  C_18
REMARK    3  A    between atoms: C_9  and  C_15
REMARK    4  A    between atoms: C_11  and  C_17
REMARK    5  A    between atoms: C_18  and  C_22
REMARK    6  A    between atoms: C_18  and  O_23
REMARK                            x       y       z     vdW  Elec       q    Type
REMARK                         _______ _______ _______ _____ _____    ______ ____
ROOT
ATOM      1  N   UNL     1      -1.155   1.477  -0.261  0.00  0.00    -0.306 N 
ATOM      2  C   UNL     1      -2.180   0.448  -0.490  0.00  0.00    +0.108 C 
ATOM      3  C   UNL     1      -3.462   1.263  -0.742  0.00  0.00    +0.024 C 
ATOM      4  C   UNL     1      -2.946   2.571  -1.313  0.00  0.00    +0.023 C 
ATOM      5  C   UNL     1      -1.682   2.821  -0.499  0.00  0.00    +0.091 C 
ENDROOT
BRANCH   1   6
ATOM      6  C   UNL     1       0.187   1.247  -0.035  0.00  0.00    +0.048 C 
ATOM      7  C   UNL     1       0.762   0.036  -0.420  0.00  0.00    +0.019 C 
ATOM      8  C   UNL     1       0.969   2.227   0.578  0.00  0.00    +0.015 C 
ATOM      9  C   UNL     1       2.118  -0.196  -0.192  0.00  0.00    +0.082 C 
ATOM     10  C   UNL     1       2.325   1.994   0.807  0.00  0.00    +0.011 C 
ATOM     11  C   UNL     1       2.900   0.783   0.421  0.00  0.00    +0.072 C 
BRANCH   9  15
ATOM     12  F   UNL     1       1.775  -2.324  -1.196  0.00  0.00    -0.166 F 
ATOM     13  F   UNL     1       3.706  -1.383  -1.531  0.00  0.00    -0.166 F 
ATOM     14  F   UNL     1       3.235  -2.223   0.412  0.00  0.00    -0.166 F 
ATOM     15  C   UNL     1       2.700  -1.506  -0.618  0.00  0.00    +0.419 C 
ENDBRANCH   9  15
BRANCH  11  17
ATOM     16  N   UNL     1       5.424   0.395   0.866  0.00  0.00    -0.191 NA
ATOM     17  C   UNL     1       4.294   0.569   0.667  0.00  0.00    +0.100 C 
ENDBRANCH  11  17
ENDBRANCH   1   6
BRANCH   2  18
ATOM     18  C   UNL     1      -2.376  -0.469   0.713  0.00  0.00    +0.224 C 
BRANCH  18  22
ATOM     19  F   UNL     1      -3.382  -2.478   1.442  0.00  0.00    -0.167 F 
ATOM     20  F   UNL     1      -4.398  -1.351  -0.121  0.00  0.00    -0.167 F 
ATOM     21  F   UNL     1      -2.567  -2.446  -0.582  0.00  0.00    -0.167 F 
ATOM     22  C   UNL     1      -3.183  -1.698   0.358  0.00  0.00    +0.423 C 
ENDBRANCH  18  22
BRANCH  18  23
ATOM     23  O   UNL     1      -3.066   0.242   1.734  0.00  0.00    -0.376 OA
ATOM     24  H   UNL     1      -2.561   1.035   1.974  0.00  0.00    +0.211 HD
ENDBRANCH  18  23
ENDBRANCH   2  18
TORSDOF 6
