REMARK  Name = 6410758
REMARK  10 active torsions:
REMARK  status: ('A' for Active; 'I' for Inactive)
REMARK    1  A    between atoms: CA_5  and  N_11
REMARK    2  A    between atoms: CA_7  and  C_28
REMARK    3  A    between atoms: C_8  and  C_31
REMARK    4  A    between atoms: C_12  and  CA_14
REMARK    5  A    between atoms: CA_14  and  C_15
REMARK    6  A    between atoms: CA_14  and  N_23
REMARK    7  A    between atoms: C_20  and  O_21
REMARK    8  A    between atoms: C_28  and  O_29
REMARK    9  A    between atoms: C_31  and  S_32
REMARK   10  A    between atoms: S_32  and  C_36
REMARK                            x       y       z     vdW  Elec       q    Type
REMARK                         _______ _______ _______ _____ _____    ______ ____
ROOT
ATOM      1  S   UNL     1       0.544   0.187   1.248  0.00  0.00    -0.114 S 
ATOM      2  O   UNL     1       0.114  -3.780  -1.139  0.00  0.00    -0.273 OA
ATOM      3  N   UNL     1      -0.532  -2.067   0.348  0.00  0.00    -0.242 N 
ATOM      4  C   UNL     1       0.422  -1.614   1.343  0.00  0.00    +0.155 C 
ATOM      5  CA  UNL     1       1.480  -2.416   0.554  0.00  0.00    +0.178 C 
ATOM      6  C   UNL     1       0.274  -2.963  -0.262  0.00  0.00    +0.251 C 
ATOM      7  CA  UNL     1      -1.800  -1.592   0.246  0.00  0.00    +0.124 C 
ATOM      8  C   UNL     1      -2.181  -0.454   0.874  0.00  0.00    -0.002 C 
ATOM      9  C   UNL     1      -1.218   0.439   1.653  0.00  0.00    +0.083 C 
ENDROOT
BRANCH   5  11
ATOM     10  O   UNL     1       4.249  -1.926   1.187  0.00  0.00    -0.277 OA
ATOM     11  N   UNL     1       2.452  -1.685  -0.259  0.00  0.00    -0.298 N 
ATOM     12  C   UNL     1       3.779  -1.498   0.134  0.00  0.00    +0.206 C 
ATOM     13  H   UNL     1       2.158  -1.308  -1.119  0.00  0.00    +0.150 HD
BRANCH  12  14
ATOM     14  CA  UNL     1       4.587  -0.685  -0.872  0.00  0.00    +0.036 C 
BRANCH  14  15
ATOM     15  C   UNL     1       4.508   0.794  -0.558  0.00  0.00    -0.034 C 
ATOM     16  C   UNL     1       3.994   1.659  -1.507  0.00  0.00    -0.003 C 
ATOM     17  C   UNL     1       4.954   1.247   0.671  0.00  0.00    -0.003 C 
ATOM     18  C   UNL     1       3.922   3.021  -1.218  0.00  0.00    +0.036 C 
ATOM     19  C   UNL     1       4.883   2.610   0.960  0.00  0.00    +0.036 C 
ATOM     20  C   UNL     1       4.367   3.497   0.015  0.00  0.00    +0.134 C 
BRANCH  20  21
ATOM     21  O   UNL     1       4.296   4.827   0.297  0.00  0.00    -0.506 OA
ATOM     22  H   UNL     1       3.949   5.422  -0.338  0.00  0.00    +0.292 HD
ENDBRANCH  20  21
ENDBRANCH  14  15
BRANCH  14  23
ATOM     23  N   UNL     1       5.963  -1.188  -0.850  0.00  0.00    +0.390 N 
ATOM     24  H1  UNL     1       5.964  -2.185  -1.066  0.00  0.00    -0.088 HD
ATOM     25  H2  UNL     1       6.364  -1.041   0.076  0.00  0.00    -0.088 HD
ATOM     26  H3  UNL     1       6.519  -0.689  -1.544  0.00  0.00    -0.088 HD
ENDBRANCH  14  23
ENDBRANCH  12  14
ENDBRANCH   5  11
BRANCH   7  28
ATOM     27  OXT UNL     1      -2.839  -2.139  -1.821  0.00  0.00    -0.244 OA
ATOM     28  C   UNL     1      -2.722  -2.332  -0.627  0.00  0.00    +0.351 C 
BRANCH  28  29
ATOM     29  O   UNL     1      -3.400  -3.239   0.104  0.00  0.00    -0.476 OA
ATOM     30  H   UNL     1      -3.239  -3.314   1.024  0.00  0.00    +0.295 HD
ENDBRANCH  28  29
ENDBRANCH   7  28
BRANCH   8  31
ATOM     31  C   UNL     1      -3.588   0.094   0.876  0.00  0.00    +0.088 C 
BRANCH  31  32
ATOM     32  S   UNL     1      -3.803   1.193  -0.534  0.00  0.00    -0.087 S 
BRANCH  32  36
ATOM     33  N   UNL     1      -6.212   1.238   0.710  0.00  0.00    -0.157 NA
ATOM     34  N   UNL     1      -7.367   1.872   0.455  0.00  0.00    -0.156 N 
ATOM     35  N   UNL     1      -7.436   2.673  -0.621  0.00  0.00    -0.161 NA
ATOM     36  C   UNL     1      -5.490   1.682  -0.298  0.00  0.00    +0.146 C 
ATOM     37  C   UNL     1      -6.200   2.544  -1.111  0.00  0.00    +0.146 C 
ATOM     38  H   UNL     1      -8.147   1.752   1.044  0.00  0.00    +0.197 HD
ENDBRANCH  32  36
ENDBRANCH  31  32
ENDBRANCH   8  31
TORSDOF 10
