REMARK  Name = 71157
REMARK  3 active torsions:
REMARK  status: ('A' for Active; 'I' for Inactive)
REMARK    1  A    between atoms: N_2  and  C_5
REMARK    2  A    between atoms: C_3  and  C_13
REMARK    3  A    between atoms: C_13  and  N_15
REMARK                            x       y       z     vdW  Elec       q    Type
REMARK                         _______ _______ _______ _____ _____    ______ ____
ROOT
ATOM      1  O   UNL     1      -0.560   0.163   1.044  0.00  0.00    -0.273 OA
ATOM      2  N   UNL     1       0.790   0.060  -0.876  0.00  0.00    -0.283 N 
ATOM      3  C   UNL     1      -0.410   0.128  -0.173  0.00  0.00    +0.246 C 
ATOM      4  H   UNL     1       0.718   0.042  -1.857  0.00  0.00    +0.155 HD
ENDROOT
BRANCH   2   5
ATOM      5  C   UNL     1       2.100   0.013  -0.343  0.00  0.00    +0.042 C 
ATOM      6  C   UNL     1       2.784   1.198  -0.113  0.00  0.00    -0.009 C 
ATOM      7  C   UNL     1       2.678  -1.216  -0.062  0.00  0.00    -0.009 C 
ATOM      8  C   UNL     1       4.076   1.152   0.411  0.00  0.00    -0.003 C 
ATOM      9  C   UNL     1       3.970  -1.261   0.462  0.00  0.00    -0.003 C 
ATOM     10  C   UNL     1       2.176   2.530  -0.410  0.00  0.00    +0.032 C 
ATOM     11  C   UNL     1       1.954  -2.501  -0.304  0.00  0.00    +0.032 C 
ATOM     12  C   UNL     1       4.669  -0.078   0.699  0.00  0.00    -0.001 C 
ENDBRANCH   2   5
BRANCH   3  13
ATOM     13  C   UNL     1      -1.583   0.159  -1.135  0.00  0.00    +0.179 C 
BRANCH  13  15
ATOM     14  O   UNL     1      -3.368  -2.047  -0.172  0.00  0.00    -0.275 OA
ATOM     15  N   UNL     1      -2.831   0.233  -0.407  0.00  0.00    -0.271 N 
ATOM     16  C   UNL     1      -3.352   1.490   0.076  0.00  0.00    +0.094 C 
ATOM     17  C   UNL     1      -4.785   1.152   0.436  0.00  0.00    +0.031 C 
ATOM     18  C   UNL     1      -4.724  -0.315   0.845  0.00  0.00    +0.087 C 
ATOM     19  C   UNL     1      -3.583  -0.860   0.020  0.00  0.00    +0.226 C 
ENDBRANCH  13  15
ENDBRANCH   3  13
TORSDOF 3
