REMARK  Name = 604519
REMARK  1 active torsions:
REMARK  status: ('A' for Active; 'I' for Inactive)
REMARK    1  A    between atoms: C_12  and  N_14
REMARK                            x       y       z     vdW  Elec       q    Type
REMARK                         _______ _______ _______ _____ _____    ______ ____
ROOT
ATOM      1  N   UNL     1       0.244   1.598   0.008  0.00  0.00    -0.415 NA
ATOM      2  C   UNL     1       1.469  -0.490   0.051  0.00  0.00    +0.012 C 
ATOM      3  C   UNL     1      -0.918  -0.546  -0.003  0.00  0.00    +0.083 C 
ATOM      4  C   UNL     1       2.885  -0.953   0.126  0.00  0.00    +0.030 C 
ATOM      5  C   UNL     1       1.387   0.894   0.035  0.00  0.00    +0.105 C 
ATOM      6  C   UNL     1      -0.900   0.862  -0.006  0.00  0.00    +0.091 C 
ATOM      7  C   UNL     1      -2.205  -1.327   0.025  0.00  0.00    +0.012 C 
ATOM      8  C   UNL     1       3.631   0.318  -0.313  0.00  0.00    +0.012 C 
ATOM      9  C   UNL     1       2.755   1.509   0.102  0.00  0.00    +0.059 C 
ATOM     10  C   UNL     1      -3.423  -0.500  -0.382  0.00  0.00    +0.001 C 
ATOM     11  C   UNL     1      -2.181   1.652  -0.084  0.00  0.00    +0.055 C 
ATOM     12  C   UNL     1       0.305  -1.229   0.044  0.00  0.00    +0.023 C 
ATOM     13  C   UNL     1      -3.413   0.850   0.326  0.00  0.00    +0.007 C 
ENDROOT
BRANCH  12  14
ATOM     14  N   UNL     1       0.364  -2.637   0.072  0.00  0.00    -0.360 N 
ATOM     15  H   UNL     1       1.236  -3.092   0.104  0.00  0.00    +0.142 HD
ATOM     16  H   UNL     1      -0.467  -3.165   0.059  0.00  0.00    +0.142 HD
ENDBRANCH  12  14
TORSDOF 1
