64949
  -OEChem-10061700193D

 43 44  0     0  0  0  0  0  0999 V2000
   -1.5492   -2.5248   -0.8366 O   0  0  0  0  0  0  0  0  0  0  0  0
    1.4605   -2.5146    0.8449 O   0  0  0  0  0  0  0  0  0  0  0  0
   -3.6875    3.5486   -0.6714 N   0  0  0  0  0  0  0  0  0  0  0  0
    3.7799    3.4911    0.6464 N   0  0  0  0  0  0  0  0  0  0  0  0
   -4.7062    2.6110    1.2112 N   0  0  0  0  0  0  0  0  0  0  0  0
    4.8075    2.4994   -1.2034 N   0  0  0  0  0  0  0  0  0  0  0  0
   -0.0466   -4.1903   -0.0036 C   0  0  0  0  0  0  0  0  0  0  0  0
   -1.2726   -3.3423    0.2922 C   0  0  0  0  0  0  0  0  0  0  0  0
    1.1824   -3.3383   -0.2794 C   0  0  0  0  0  0  0  0  0  0  0  0
   -2.1273   -1.3064   -0.5914 C   0  0  0  0  0  0  0  0  0  0  0  0
    2.0789   -1.3170    0.5961 C   0  0  0  0  0  0  0  0  0  0  0  0
   -1.8746   -0.2407   -1.4474 C   0  0  0  0  0  0  0  0  0  0  0  0
    1.8410   -0.2331    1.4332 C   0  0  0  0  0  0  0  0  0  0  0  0
   -2.9611   -1.1500    0.5098 C   0  0  0  0  0  0  0  0  0  0  0  0
    2.9387   -1.1994   -0.4900 C   0  0  0  0  0  0  0  0  0  0  0  0
   -3.3016    1.1641   -0.0959 C   0  0  0  0  0  0  0  0  0  0  0  0
    3.3353    1.1115    0.0933 C   0  0  0  0  0  0  0  0  0  0  0  0
   -2.4638    0.9988   -1.1986 C   0  0  0  0  0  0  0  0  0  0  0  0
    2.4712    0.9854    1.1809 C   0  0  0  0  0  0  0  0  0  0  0  0
   -3.5503    0.0897    0.7584 C   0  0  0  0  0  0  0  0  0  0  0  0
    3.5691    0.0191   -0.7422 C   0  0  0  0  0  0  0  0  0  0  0  0
   -3.9163    2.4564    0.1635 C   0  0  0  0  0  0  0  0  0  0  0  0
    3.9927    2.3817   -0.1699 C   0  0  0  0  0  0  0  0  0  0  0  0
   -0.2359   -4.8267   -0.8757 H   0  0  0  0  0  0  0  0  0  0  0  0
    0.1429   -4.8422    0.8569 H   0  0  0  0  0  0  0  0  0  0  0  0
   -2.1321   -3.9978    0.4742 H   0  0  0  0  0  0  0  0  0  0  0  0
   -1.0781   -2.7556    1.1991 H   0  0  0  0  0  0  0  0  0  0  0  0
    0.9972   -2.7503   -1.1877 H   0  0  0  0  0  0  0  0  0  0  0  0
    2.0412   -3.9963   -0.4571 H   0  0  0  0  0  0  0  0  0  0  0  0
   -1.2213   -0.3662   -2.3062 H   0  0  0  0  0  0  0  0  0  0  0  0
    1.1675   -0.3281    2.2803 H   0  0  0  0  0  0  0  0  0  0  0  0
   -3.2051   -1.9681    1.1804 H   0  0  0  0  0  0  0  0  0  0  0  0
    3.1705   -2.0325   -1.1463 H   0  0  0  0  0  0  0  0  0  0  0  0
   -2.2363    1.7998   -1.8933 H   0  0  0  0  0  0  0  0  0  0  0  0
    2.2537    1.8018    1.8607 H   0  0  0  0  0  0  0  0  0  0  0  0
   -4.2033    0.1827    1.6220 H   0  0  0  0  0  0  0  0  0  0  0  0
    4.2412    0.0816   -1.5938 H   0  0  0  0  0  0  0  0  0  0  0  0
   -3.0974    3.5173   -1.4933 H   0  0  0  0  0  0  0  0  0  0  0  0
   -4.1244    4.4429   -0.4730 H   0  0  0  0  0  0  0  0  0  0  0  0
    3.1729    3.4879    1.4565 H   0  0  0  0  0  0  0  0  0  0  0  0
    4.2467    4.3695    0.4455 H   0  0  0  0  0  0  0  0  0  0  0  0
   -5.0377    3.5819    1.2241 H   0  0  0  0  0  0  0  0  0  0  0  0
    5.1676    3.4600   -1.2218 H   0  0  0  0  0  0  0  0  0  0  0  0
  1  8  1  0  0  0  0
  1 10  1  0  0  0  0
  2  9  1  0  0  0  0
  2 11  1  0  0  0  0
  3 22  1  0  0  0  0
  3 38  1  0  0  0  0
  3 39  1  0  0  0  0
  4 23  1  0  0  0  0
  4 40  1  0  0  0  0
  4 41  1  0  0  0  0
  5 22  2  0  0  0  0
  5 42  1  0  0  0  0
  6 23  2  0  0  0  0
  6 43  1  0  0  0  0
  7  8  1  0  0  0  0
  7  9  1  0  0  0  0
  7 24  1  0  0  0  0
  7 25  1  0  0  0  0
  8 26  1  0  0  0  0
  8 27  1  0  0  0  0
  9 28  1  0  0  0  0
  9 29  1  0  0  0  0
 10 12  2  0  0  0  0
 10 14  1  0  0  0  0
 11 13  2  0  0  0  0
 11 15  1  0  0  0  0
 12 18  1  0  0  0  0
 12 30  1  0  0  0  0
 13 19  1  0  0  0  0
 13 31  1  0  0  0  0
 14 20  2  0  0  0  0
 14 32  1  0  0  0  0
 15 21  2  0  0  0  0
 15 33  1  0  0  0  0
 16 18  2  0  0  0  0
 16 20  1  0  0  0  0
 16 22  1  0  0  0  0
 17 19  2  0  0  0  0
 17 21  1  0  0  0  0
 17 23  1  0  0  0  0
 18 34  1  0  0  0  0
 19 35  1  0  0  0  0
 20 36  1  0  0  0  0
 21 37  1  0  0  0  0
M  END
> <DATABASE_ID>
DB13296

> <DATABASE_NAME>
drugbank

> <ORIGINAL_SOURCE>
PUBCHEM

> <ORIGINAL_SOURCE_URL>
https://pubchem.ncbi.nlm.nih.gov/rest/pug/compound/inchikey/WTFXJFJYEJZMFO-UHFFFAOYSA-N/SDF?record_type=3d

> <SMILES>
NC(=N)C1=CC=C(OCCCOC2=CC=C(C=C2)C(N)=N)C=C1

> <INCHI_IDENTIFIER>
InChI=1S/C17H20N4O2/c18-16(19)12-2-6-14(7-3-12)22-10-1-11-23-15-8-4-13(5-9-15)17(20)21/h2-9H,1,10-11H2,(H3,18,19)(H3,20,21)

> <INCHI_KEY>
WTFXJFJYEJZMFO-UHFFFAOYSA-N

> <FORMULA>
C17H20N4O2

> <MOLECULAR_WEIGHT>
312.3663

> <EXACT_MASS>
312.158625904

> <JCHEM_ACCEPTOR_COUNT>
6

> <JCHEM_AVERAGE_POLARIZABILITY>
34.621273040327694

> <JCHEM_BIOAVAILABILITY>
1

> <JCHEM_DONOR_COUNT>
4

> <JCHEM_FORMAL_CHARGE>
0

> <JCHEM_GHOSE_FILTER>
1

> <JCHEM_IUPAC>
4-[3-(4-carbamimidoylphenoxy)propoxy]benzene-1-carboximidamide

> <ALOGPS_LOGP>
0.45

> <JCHEM_LOGP>
1.3605208449999995

> <ALOGPS_LOGS>
-3.73

> <JCHEM_MDDR_LIKE_RULE>
0

> <JCHEM_NUMBER_OF_RINGS>
2

> <JCHEM_PHYSIOLOGICAL_CHARGE>
2

> <JCHEM_PKA_STRONGEST_BASIC>
12.12730416268465

> <JCHEM_POLAR_SURFACE_AREA>
118.20000000000002

> <JCHEM_REFRACTIVITY>
111.28380000000001

> <JCHEM_ROTATABLE_BOND_COUNT>
8

> <JCHEM_RULE_OF_FIVE>
1

> <ALOGPS_SOLUBILITY>
5.86e-02 g/l

> <JCHEM_TRADITIONAL_IUPAC>
propamidine

> <JCHEM_VEBER_RULE>
0

> <DRUGBANK_ID>
DB13296

> <DRUG_GROUPS>
experimental; investigational

> <GENERIC_NAME>
Propamidine

> <SYNONYMS>
propamidina

$$$$
