REMARK  Name = 21751
REMARK  5 active torsions:
REMARK  status: ('A' for Active; 'I' for Inactive)
REMARK    1  A    between atoms: N_4  and  C_10
REMARK    2  A    between atoms: C_10  and  C_11
REMARK    3  A    between atoms: C_11  and  O_12
REMARK    4  A    between atoms: C_11  and  C_14
REMARK    5  A    between atoms: C_14  and  O_15
REMARK                            x       y       z     vdW  Elec       q    Type
REMARK                         _______ _______ _______ _____ _____    ______ ____
ROOT
ATOM      1  I   UNL     1      -2.545  -3.088  -0.143  0.00  0.00    -0.038 I 
ATOM      2  I   UNL     1      -2.721   3.047  -0.414  0.00  0.00    -0.038 I 
ATOM      3  O   UNL     1      -3.631  -0.062  -0.555  0.00  0.00    -0.286 OA
ATOM      4  N   UNL     1       0.233   0.105   0.707  0.00  0.00    -0.281 N 
ATOM      5  C   UNL     1      -0.406  -1.111   0.519  0.00  0.00    +0.075 C 
ATOM      6  C   UNL     1      -0.474   1.261   0.414  0.00  0.00    +0.075 C 
ATOM      7  C   UNL     1      -1.674  -1.258   0.104  0.00  0.00    +0.084 C 
ATOM      8  C   UNL     1      -1.747   1.298  -0.009  0.00  0.00    +0.084 C 
ATOM      9  C   UNL     1      -2.461  -0.012  -0.187  0.00  0.00    +0.209 C 
ENDROOT
BRANCH   4  10
ATOM     10  C   UNL     1       1.631   0.162   1.122  0.00  0.00    +0.127 C 
BRANCH  10  11
ATOM     11  C   UNL     1       2.568   0.181  -0.085  0.00  0.00    +0.160 C 
BRANCH  11  12
ATOM     12  O   UNL     1       2.354  -0.986  -0.879  0.00  0.00    -0.380 OA
ATOM     13  H   UNL     1       1.419  -1.038  -1.132  0.00  0.00    +0.211 HD
ENDBRANCH  11  12
BRANCH  11  14
ATOM     14  C   UNL     1       4.044   0.238   0.297  0.00  0.00    +0.168 C 
BRANCH  14  15
ATOM     15  O   UNL     1       4.828   0.225  -0.892  0.00  0.00    -0.379 OA
ATOM     16  H   UNL     1       5.769   0.261  -0.660  0.00  0.00    +0.211 HD
ENDBRANCH  14  15
ENDBRANCH  11  14
ENDBRANCH  10  11
ENDBRANCH   4  10
TORSDOF 5
