REMARK  Name = 8434
REMARK  4 active torsions:
REMARK  status: ('A' for Active; 'I' for Inactive)
REMARK    1  A    between atoms: C_1  and  C_10
REMARK    2  A    between atoms: C_6  and  O_7
REMARK    3  A    between atoms: C_10  and  O_11
REMARK    4  A    between atoms: O_11  and  C_12
REMARK                            x       y       z     vdW  Elec       q    Type
REMARK                         _______ _______ _______ _____ _____    ______ ____
ROOT
ATOM      1  C   UNL     1       0.113   0.361   0.001  0.00  0.00    +0.076 C 
ATOM      2  C   UNL     1       1.102   1.344   0.000  0.00  0.00    +0.010 C 
ATOM      3  C   UNL     1       0.469  -0.988   0.001  0.00  0.00    +0.010 C 
ATOM      4  C   UNL     1       2.448   0.979  -0.001  0.00  0.00    +0.037 C 
ATOM      5  C   UNL     1       1.816  -1.353   0.001  0.00  0.00    +0.037 C 
ATOM      6  C   UNL     1       2.805  -0.370   0.000  0.00  0.00    +0.134 C 
ENDROOT
BRANCH   6   7
ATOM      7  O   UNL     1       4.119  -0.726  -0.002  0.00  0.00    -0.506 OA
ATOM      8  H   UNL     1       4.783  -0.065  -0.002  0.00  0.00    +0.292 HD
ENDBRANCH   6   7
BRANCH   1  10
ATOM      9  O   UNL     1      -1.700   1.910   0.000  0.00  0.00    -0.245 OA
ATOM     10  C   UNL     1      -1.291   0.741   0.001  0.00  0.00    +0.341 C 
BRANCH  10  11
ATOM     11  O   UNL     1      -2.110  -0.355   0.000  0.00  0.00    -0.445 OA
BRANCH  11  12
ATOM     12  C   UNL     1      -3.520  -0.109  -0.001  0.00  0.00    +0.209 C 
ATOM     13  C   UNL     1      -4.251  -1.435  -0.001  0.00  0.00    +0.051 C 
ENDBRANCH  11  12
ENDBRANCH  10  11
ENDBRANCH   1  10
TORSDOF 4
