REMARK  Name = 90489020
REMARK  9 active torsions:
REMARK  status: ('A' for Active; 'I' for Inactive)
REMARK    1  A    between atoms: C_1  and  C_2
REMARK    2  A    between atoms: C_1  and  C_14
REMARK    3  A    between atoms: C_3  and  O_8
REMARK    4  A    between atoms: C_5  and  O_10
REMARK    5  A    between atoms: C_7  and  C_13
REMARK    6  A    between atoms: C_14  and  N_15
REMARK    7  A    between atoms: N_15  and  C_18
REMARK    8  A    between atoms: C_18  and  C_19
REMARK    9  A    between atoms: C_20  and  O_25
REMARK                            x       y       z     vdW  Elec       q    Type
REMARK                         _______ _______ _______ _____ _____    ______ ____
ROOT
ATOM      1  C   UNL     1      -0.289  -0.044   1.088  0.00  0.00    +0.006 C 
ENDROOT
BRANCH   1   2
ATOM      2  C   UNL     1      -1.725   0.028   0.684  0.00  0.00    +0.013 C 
ATOM      3  C   UNL     1      -2.274   1.221   0.214  0.00  0.00    +0.135 C 
ATOM      4  C   UNL     1      -2.519  -1.115   0.781  0.00  0.00    +0.036 C 
ATOM      5  C   UNL     1      -3.862  -1.065   0.408  0.00  0.00    +0.148 C 
ATOM      6  C   UNL     1      -3.617   1.271  -0.159  0.00  0.00    +0.050 C 
ATOM      7  C   UNL     1      -4.411   0.129  -0.062  0.00  0.00    +0.105 C 
BRANCH   3   8
ATOM      8  O   UNL     1      -1.512   2.346   0.114  0.00  0.00    -0.472 OA
ATOM      9  C   UNL     1      -2.155   3.521  -0.376  0.00  0.00    +0.252 C 
ENDBRANCH   3   8
BRANCH   5  10
ATOM     10  O   UNL     1      -4.616  -2.196   0.513  0.00  0.00    -0.471 OA
ATOM     11  C   UNL     1      -4.655  -3.054  -0.625  0.00  0.00    +0.252 C 
ENDBRANCH   5  10
BRANCH   7  13
ATOM     12  N   UNL     1      -6.902   0.259  -0.764  0.00  0.00    -0.191 NA
ATOM     13  C   UNL     1      -5.787   0.200  -0.450  0.00  0.00    +0.104 C 
ENDBRANCH   7  13
ENDBRANCH   1   2
BRANCH   1  14
ATOM     14  C   UNL     1       0.647  -0.122  -0.125  0.00  0.00    -0.076 C 
BRANCH  14  15
ATOM     15  N   UNL     1       2.045  -0.217   0.283  0.00  0.00    +0.387 N 
ATOM     16  H   UNL     1       2.172  -1.060   0.844  0.00  0.00    -0.084 HD
ATOM     17  H   UNL     1       2.283   0.612   0.828  0.00  0.00    -0.084 HD
BRANCH  15  18
ATOM     18  C   UNL     1       2.921  -0.280  -0.877  0.00  0.00    -0.051 C 
BRANCH  18  19
ATOM     19  C   UNL     1       4.370  -0.371  -0.481  0.00  0.00    -0.010 C 
ATOM     20  C   UNL     1       5.058   0.754  -0.027  0.00  0.00    +0.128 C 
ATOM     21  C   UNL     1       5.026  -1.599  -0.574  0.00  0.00    -0.003 C 
ATOM     22  C   UNL     1       6.401   0.652   0.335  0.00  0.00    +0.036 C 
ATOM     23  C   UNL     1       6.369  -1.701  -0.211  0.00  0.00    -0.000 C 
ATOM     24  C   UNL     1       7.057  -0.576   0.243  0.00  0.00    +0.003 C 
BRANCH  20  25
ATOM     25  O   UNL     1       4.433   1.961   0.067  0.00  0.00    -0.506 OA
ATOM     26  H   UNL     1       3.531   2.042  -0.173  0.00  0.00    +0.292 HD
ENDBRANCH  20  25
ENDBRANCH  18  19
ENDBRANCH  15  18
ENDBRANCH  14  15
ENDBRANCH   1  14
TORSDOF 9
