REMARK  Name = 100299
REMARK  3 active torsions:
REMARK  status: ('A' for Active; 'I' for Inactive)
REMARK    1  A    between atoms: P_1  and  O_26
REMARK    2  A    between atoms: C_8  and  O_24
REMARK    3  A    between atoms: C_9  and  N_12
REMARK                            x       y       z     vdW  Elec       q    Type
REMARK                         _______ _______ _______ _____ _____    ______ ____
ROOT
ATOM      1  P   UNL     1       4.059   0.781  -0.538  0.00  0.00    +0.476 P 
ATOM      2  O   UNL     1       0.566  -0.667   1.559  0.00  0.00    -0.333 OA
ATOM      3  O   UNL     1       3.068  -0.432  -0.981  0.00  0.00    -0.271 OA
ATOM      4  O   UNL     1       3.831   0.977   1.059  0.00  0.00    -0.271 OA
ATOM      5  O   UNL     1       5.494   0.578  -0.931  0.00  0.00    -0.227 OA
ATOM      6  C   UNL     1       1.783  -0.415  -0.402  0.00  0.00    +0.186 C 
ATOM      7  C   UNL     1       1.896  -0.420   1.108  0.00  0.00    +0.177 C 
ATOM      8  C   UNL     1       0.909  -1.627  -0.631  0.00  0.00    +0.188 C 
ATOM      9  C   UNL     1      -0.044  -1.548   0.577  0.00  0.00    +0.230 C 
ATOM     10  C   UNL     1       2.511   0.876   1.596  0.00  0.00    +0.186 C 
ENDROOT
BRANCH   9  12
ATOM     11 CL   UNL     1      -2.425  -3.490  -0.134  0.00  0.00    -0.032 Cl
ATOM     12  N   UNL     1      -1.378  -1.052   0.237  0.00  0.00    -0.211 N 
ATOM     13  N   UNL     1      -3.533  -1.038  -0.345  0.00  0.00    -0.370 NA
ATOM     14  N   UNL     1      -0.987   1.339   0.426  0.00  0.00    -0.227 NA
ATOM     15  N   UNL     1      -3.007   2.613  -0.075  0.00  0.00    -0.227 NA
ATOM     16  C   UNL     1      -1.751   0.263   0.182  0.00  0.00    +0.170 C 
ATOM     17  C   UNL     1      -2.485  -1.793  -0.088  0.00  0.00    +0.251 C 
ATOM     18  C   UNL     1      -3.088   0.249  -0.179  0.00  0.00    +0.196 C 
ATOM     19  C   UNL     1      -3.718   1.483  -0.306  0.00  0.00    +0.155 C 
ATOM     20  C   UNL     1      -1.704   2.472   0.271  0.00  0.00    +0.253 C 
ATOM     21  N   UNL     1      -5.074   1.563  -0.668  0.00  0.00    -0.341 N 
ATOM     22  H   UNL     1      -5.510   2.441  -0.754  0.00  0.00    +0.144 HD
ATOM     23  H   UNL     1      -5.588   0.740  -0.834  0.00  0.00    +0.144 HD
ENDBRANCH   9  12
BRANCH   8  24
ATOM     24  O   UNL     1       1.687  -2.817  -0.543  0.00  0.00    -0.378 OA
ATOM     25  H   UNL     1       2.287  -2.867  -1.303  0.00  0.00    +0.211 HD
ENDBRANCH   8  24
BRANCH   1  26
ATOM     26  O   UNL     1       3.392   2.104  -1.193  0.00  0.00    -0.302 OA
ATOM     27  H   UNL     1       2.470   2.179  -0.902  0.00  0.00    +0.222 HD
ENDBRANCH   1  26
TORSDOF 3
