REMARK  Name = 5341
REMARK  5 active torsions:
REMARK  status: ('A' for Active; 'I' for Inactive)
REMARK    1  A    between atoms: S_1  and  C_4
REMARK    2  A    between atoms: S_1  and  N_13
REMARK    3  A    between atoms: C_7  and  N_10
REMARK    4  A    between atoms: N_13  and  C_15
REMARK    5  A    between atoms: C_15  and  S_18
REMARK                            x       y       z     vdW  Elec       q    Type
REMARK                         _______ _______ _______ _____ _____    ______ ____
ROOT
ATOM      1  S   UNL     1       1.074   0.714   0.008  0.00  0.00    +0.095 S 
ATOM      2  O   UNL     1       1.329   1.420  -1.243  0.00  0.00    -0.148 OA
ATOM      3  O   UNL     1       1.375   1.371   1.276  0.00  0.00    -0.148 OA
ENDROOT
BRANCH   1   4
ATOM      4  C   UNL     1      -0.626   0.317   0.004  0.00  0.00    +0.127 C 
ATOM      5  C   UNL     1      -1.306   0.173  -1.205  0.00  0.00    +0.022 C 
ATOM      6  C   UNL     1      -1.304   0.142   1.210  0.00  0.00    +0.022 C 
ATOM      7  C   UNL     1      -3.342  -0.319  -0.002  0.00  0.00    +0.042 C 
ATOM      8  C   UNL     1      -2.664  -0.145  -1.208  0.00  0.00    +0.015 C 
ATOM      9  C   UNL     1      -2.662  -0.176   1.208  0.00  0.00    +0.015 C 
BRANCH   7  10
ATOM     10  N   UNL     1      -4.715  -0.641  -0.005  0.00  0.00    -0.357 N 
ATOM     11  H   UNL     1      -5.195  -0.743  -0.858  0.00  0.00    +0.142 HD
ATOM     12  H   UNL     1      -5.194  -0.764   0.847  0.00  0.00    +0.142 HD
ENDBRANCH   7  10
ENDBRANCH   1   4
BRANCH   1  13
ATOM     13  N   UNL     1       1.822  -0.742  -0.011  0.00  0.00    -0.073 NA
BRANCH  13  15
ATOM     14  N   UNL     1       3.906  -1.958  -0.027  0.00  0.00    -0.379 N 
ATOM     15  C   UNL     1       3.113  -0.842  -0.013  0.00  0.00    +0.166 C 
ATOM     16  H   UNL     1       4.886  -1.866  -0.027  0.00  0.00    +0.158 HD
ATOM     17  H   UNL     1       3.496  -2.853  -0.038  0.00  0.00    +0.158 HD
BRANCH  15  18
ATOM     18  S   UNL     1       4.001   0.686   0.007  0.00  0.00    -0.107 S 
ATOM     19  H   UNL     1       3.120   1.722   0.020  0.00  0.00    +0.110 HD
ENDBRANCH  15  18
ENDBRANCH  13  15
ENDBRANCH   1  13
TORSDOF 5
