REMARK  Name = 735998
REMARK  5 active torsions:
REMARK  status: ('A' for Active; 'I' for Inactive)
REMARK    1  A    between atoms: N_1  and  C_4
REMARK    2  A    between atoms: N_1  and  C_13
REMARK    3  A    between atoms: C_4  and  C_6
REMARK    4  A    between atoms: C_6  and  C_7
REMARK    5  A    between atoms: C_13  and  C_15
REMARK                            x       y       z     vdW  Elec       q    Type
REMARK                         _______ _______ _______ _____ _____    ______ ____
ROOT
ATOM      1  N   UNL     1       0.593  -0.130   0.264  0.00  0.00    +0.388 N 
ATOM      2  H   UNL     1       0.725  -0.953   0.852  0.00  0.00    -0.084 HD
ATOM      3  H   UNL     1       0.750   0.720   0.806  0.00  0.00    -0.084 HD
ENDROOT
BRANCH   1   4
ATOM      4  C   UNL     1      -0.781  -0.117  -0.246  0.00  0.00    -0.057 C 
ATOM      5  C   UNL     1      -0.997  -1.382  -1.076  0.00  0.00    -0.023 C 
BRANCH   4   6
ATOM      6  C   UNL     1      -1.765  -0.010   0.934  0.00  0.00    +0.005 C 
BRANCH   6   7
ATOM      7  C   UNL     1      -3.213   0.051   0.510  0.00  0.00    -0.024 C 
ATOM      8  C   UNL     1      -3.797   1.283   0.265  0.00  0.00    -0.004 C 
ATOM      9  C   UNL     1      -3.931  -1.126   0.373  0.00  0.00    -0.004 C 
ATOM     10  C   UNL     1      -5.135   1.340  -0.126  0.00  0.00    -0.000 C 
ATOM     11  C   UNL     1      -5.268  -1.070  -0.019  0.00  0.00    -0.000 C 
ATOM     12  C   UNL     1      -5.870   0.163  -0.268  0.00  0.00    -0.000 C 
ENDBRANCH   6   7
ENDBRANCH   4   6
ENDBRANCH   1   4
BRANCH   1  13
ATOM     13  C   UNL     1       1.546  -0.168  -0.833  0.00  0.00    -0.053 C 
BRANCH  13  15
ATOM     14 CL   UNL     1       2.951   2.545  -0.423  0.00  0.00    -0.083 Cl
ATOM     15  C   UNL     1       2.965  -0.179  -0.345  0.00  0.00    -0.033 C 
ATOM     16  C   UNL     1       3.669   1.002  -0.135  0.00  0.00    +0.052 C 
ATOM     17  C   UNL     1       3.567  -1.411  -0.105  0.00  0.00    -0.006 C 
ATOM     18  C   UNL     1       4.987   0.952   0.319  0.00  0.00    +0.011 C 
ATOM     19  C   UNL     1       4.884  -1.462   0.349  0.00  0.00    -0.000 C 
ATOM     20  C   UNL     1       5.595  -0.280   0.561  0.00  0.00    +0.001 C 
ENDBRANCH  13  15
ENDBRANCH   1  13
TORSDOF 5
