REMARK  Name = 442151
REMARK  6 active torsions:
REMARK  status: ('A' for Active; 'I' for Inactive)
REMARK    1  A    between atoms: C_5  and  O_18
REMARK    2  A    between atoms: C_6  and  O_25
REMARK    3  A    between atoms: O_18  and  C_20
REMARK    4  A    between atoms: C_20  and  C_21
REMARK    5  A    between atoms: C_21  and  C_23
REMARK    6  A    between atoms: O_25  and  C_27
REMARK                            x       y       z     vdW  Elec       q    Type
REMARK                         _______ _______ _______ _____ _____    ______ ____
ROOT
ATOM      1  O   UNL     1      -0.106  -3.050  -0.060  0.00  0.00    -0.479 OA
ATOM      2  O   UNL     1      -2.063   1.395  -0.381  0.00  0.00    -0.421 OA
ATOM      3  O   UNL     1      -3.045   3.459  -0.525  0.00  0.00    -0.244 OA
ATOM      4  C   UNL     1       1.182  -2.506   0.290  0.00  0.00    +0.174 C 
ATOM      5  C   UNL     1       1.429  -1.157  -0.421  0.00  0.00    +0.249 C 
ATOM      6  C   UNL     1       0.330  -0.137  -0.123  0.00  0.00    +0.240 C 
ATOM      7  C   UNL     1      -1.021  -0.784  -0.228  0.00  0.00    +0.090 C 
ATOM      8  C   UNL     1      -1.154  -2.176  -0.186  0.00  0.00    +0.141 C 
ATOM      9  C   UNL     1       2.206  -3.546  -0.203  0.00  0.00    +0.048 C 
ATOM     10  C   UNL     1       1.286  -2.445   1.823  0.00  0.00    +0.048 C 
ATOM     11  C   UNL     1      -2.189  -0.015  -0.356  0.00  0.00    +0.151 C 
ATOM     12  C   UNL     1      -2.417  -2.770  -0.297  0.00  0.00    +0.037 C 
ATOM     13  C   UNL     1      -3.453  -0.594  -0.458  0.00  0.00    +0.035 C 
ATOM     14  C   UNL     1      -3.563  -1.984  -0.431  0.00  0.00    +0.006 C 
ATOM     15  C   UNL     1      -4.618   0.265  -0.591  0.00  0.00    +0.010 C 
ATOM     16  C   UNL     1      -3.161   2.238  -0.505  0.00  0.00    +0.346 C 
ATOM     17  C   UNL     1      -4.480   1.592  -0.613  0.00  0.00    +0.082 C 
ENDROOT
BRANCH   5  18
ATOM     18  O   UNL     1       2.689  -0.591  -0.082  0.00  0.00    -0.444 OA
BRANCH  18  20
ATOM     19  O   UNL     1       2.612   0.939  -1.807  0.00  0.00    -0.250 OA
ATOM     20  C   UNL     1       2.996   0.595  -0.697  0.00  0.00    +0.317 C 
BRANCH  20  21
ATOM     21  C   UNL     1       3.914   1.417   0.192  0.00  0.00    +0.099 C 
ATOM     22  C   UNL     1       3.213   2.732   0.520  0.00  0.00    +0.012 C 
BRANCH  21  23
ATOM     23  C   UNL     1       5.269   1.672  -0.483  0.00  0.00    +0.011 C 
ATOM     24  C   UNL     1       6.016   0.382  -0.802  0.00  0.00    +0.001 C 
ENDBRANCH  21  23
ENDBRANCH  20  21
ENDBRANCH  18  20
ENDBRANCH   5  18
BRANCH   6  25
ATOM     25  O   UNL     1       0.464   0.406   1.187  0.00  0.00    -0.444 OA
BRANCH  25  27
ATOM     26  O   UNL     1      -0.646   2.420   0.967  0.00  0.00    -0.250 OA
ATOM     27  C   UNL     1      -0.459   1.352   1.534  0.00  0.00    +0.318 C 
ATOM     28  C   UNL     1      -1.232   0.892   2.733  0.00  0.00    +0.121 C 
ENDBRANCH  25  27
ENDBRANCH   6  25
TORSDOF 6
