REMARK  Name = 72014
REMARK  13 active torsions:
REMARK  status: ('A' for Active; 'I' for Inactive)
REMARK    1  A    between atoms: N_1  and  C_4
REMARK    2  A    between atoms: N_1  and  C_18
REMARK    3  A    between atoms: C_4  and  C_5
REMARK    4  A    between atoms: C_5  and  O_6
REMARK    5  A    between atoms: C_5  and  C_8
REMARK    6  A    between atoms: C_8  and  O_9
REMARK    7  A    between atoms: O_9  and  C_10
REMARK    8  A    between atoms: C_11  and  C_17
REMARK    9  A    between atoms: C_18  and  C_19
REMARK   10  A    between atoms: C_19  and  N_21
REMARK   11  A    between atoms: C_22  and  C_24
REMARK   12  A    between atoms: C_24  and  C_25
REMARK   13  A    between atoms: C_30  and  O_31
REMARK                            x       y       z     vdW  Elec       q    Type
REMARK                         _______ _______ _______ _____ _____    ______ ____
ROOT
ATOM      1  N   UNL     1       1.237   2.518  -0.351  0.00  0.00    +0.387 N 
ATOM      2  H   UNL     1       1.694   1.759  -0.855  0.00  0.00    -0.084 HD
ATOM      3  H   UNL     1       1.421   3.412  -0.807  0.00  0.00    -0.084 HD
ENDROOT
BRANCH   1   4
ATOM      4  C   UNL     1       1.762   2.573   1.007  0.00  0.00    -0.048 C 
BRANCH   4   5
ATOM      5  C   UNL     1       3.282   2.755   1.028  0.00  0.00    +0.133 C 
BRANCH   5   6
ATOM      6  O   UNL     1       3.712   2.759   2.392  0.00  0.00    -0.383 OA
ATOM      7  H   UNL     1       3.242   3.454   2.878  0.00  0.00    +0.210 HD
ENDBRANCH   5   6
BRANCH   5   8
ATOM      8  C   UNL     1       4.034   1.653   0.284  0.00  0.00    +0.232 C 
BRANCH   8   9
ATOM      9  O   UNL     1       3.761   0.405   0.913  0.00  0.00    -0.472 OA
BRANCH   9  10
ATOM     10  C   UNL     1       4.347  -0.703   0.362  0.00  0.00    +0.148 C 
ATOM     11  C   UNL     1       3.579  -1.760  -0.127  0.00  0.00    +0.102 C 
ATOM     12  C   UNL     1       5.739  -0.762   0.294  0.00  0.00    +0.038 C 
ATOM     13  C   UNL     1       4.204  -2.877  -0.683  0.00  0.00    +0.013 C 
ATOM     14  C   UNL     1       6.364  -1.879  -0.263  0.00  0.00    +0.003 C 
ATOM     15  C   UNL     1       5.596  -2.936  -0.751  0.00  0.00    +0.001 C 
BRANCH  11  17
ATOM     16  N   UNL     1       0.992  -1.685  -0.018  0.00  0.00    -0.191 NA
ATOM     17  C   UNL     1       2.150  -1.719  -0.067  0.00  0.00    +0.103 C 
ENDBRANCH  11  17
ENDBRANCH   9  10
ENDBRANCH   8   9
ENDBRANCH   5   8
ENDBRANCH   4   5
ENDBRANCH   1   4
BRANCH   1  18
ATOM     18  C   UNL     1      -0.202   2.288  -0.343  0.00  0.00    -0.060 C 
BRANCH  18  19
ATOM     19  C   UNL     1      -0.734   2.223  -1.767  0.00  0.00    +0.066 C 
BRANCH  19  21
ATOM     20  O   UNL     1      -2.021  -0.350  -1.835  0.00  0.00    -0.275 OA
ATOM     21  N   UNL     1      -2.149   1.968  -1.783  0.00  0.00    -0.306 N 
ATOM     22  C   UNL     1      -2.683   0.684  -1.816  0.00  0.00    +0.227 C 
ATOM     23  H   UNL     1      -2.766   2.735  -1.770  0.00  0.00    +0.149 HD
BRANCH  22  24
ATOM     24  C   UNL     1      -4.200   0.707  -1.820  0.00  0.00    +0.111 C 
BRANCH  24  25
ATOM     25  C   UNL     1      -4.811   0.001  -0.639  0.00  0.00    -0.013 C 
ATOM     26  C   UNL     1      -5.109  -1.360  -0.717  0.00  0.00    -0.001 C 
ATOM     27  C   UNL     1      -5.080   0.708   0.533  0.00  0.00    -0.001 C 
ATOM     28  C   UNL     1      -5.677  -2.013   0.376  0.00  0.00    +0.036 C 
ATOM     29  C   UNL     1      -5.648   0.054   1.627  0.00  0.00    +0.036 C 
ATOM     30  C   UNL     1      -5.946  -1.306   1.548  0.00  0.00    +0.134 C 
BRANCH  30  31
ATOM     31  O   UNL     1      -6.500  -1.944   2.616  0.00  0.00    -0.506 OA
ATOM     32  H   UNL     1      -6.700  -2.858   2.563  0.00  0.00    +0.292 HD
ENDBRANCH  30  31
ENDBRANCH  24  25
ENDBRANCH  22  24
ENDBRANCH  19  21
ENDBRANCH  18  19
ENDBRANCH   1  18
TORSDOF 13
