REMARK  Name = 6494
REMARK  3 active torsions:
REMARK  status: ('A' for Active; 'I' for Inactive)
REMARK    1  A    between atoms: C_1  and  O_3
REMARK    2  A    between atoms: C_1  and  C_5
REMARK    3  A    between atoms: C_1  and  C_7
REMARK                            x       y       z     vdW  Elec       q    Type
REMARK                         _______ _______ _______ _____ _____    ______ ____
ROOT
ATOM      1  C   UNL     1      -0.016  -0.500   0.005  0.00  0.00    +0.142 C 
ATOM      2  C   UNL     1       0.426  -1.818   0.641  0.00  0.00    +0.043 C 
ENDROOT
BRANCH   1   3
ATOM      3  O   UNL     1      -0.344  -0.796  -1.358  0.00  0.00    -0.375 OA
ATOM      4  H   UNL     1      -1.073  -1.434  -1.384  0.00  0.00    +0.211 HD
ENDBRANCH   1   3
BRANCH   1   5
ATOM      5  C   UNL     1      -1.281   0.078   0.670  0.00  0.00    +0.039 C 
ATOM      6  C   UNL     1      -1.878   1.302  -0.014  0.00  0.00    +0.004 C 
ENDBRANCH   1   5
BRANCH   1   7
ATOM      7  C   UNL     1       1.094   0.472   0.023  0.00  0.00    -0.053 C 
ATOM      8  C   UNL     1       1.998   1.262   0.034  0.00  0.00    -0.012 C 
ENDBRANCH   1   7
TORSDOF 3
