REMARK  Name = 2733779
REMARK  7 active torsions:
REMARK  status: ('A' for Active; 'I' for Inactive)
REMARK    1  A    between atoms: C_2  and  O_7
REMARK    2  A    between atoms: C_3  and  O_9
REMARK    3  A    between atoms: C_4  and  O_11
REMARK    4  A    between atoms: C_5  and  C_26
REMARK    5  A    between atoms: C_6  and  O_13
REMARK    6  A    between atoms: O_13  and  C_16
REMARK    7  A    between atoms: C_26  and  O_27
REMARK                            x       y       z     vdW  Elec       q    Type
REMARK                         _______ _______ _______ _____ _____    ______ ____
ROOT
ATOM      1  O   UNL     1       1.906   0.548  -0.497  0.00  0.00    -0.316 OA
ATOM      2  C   UNL     1       4.312  -0.615   0.556  0.00  0.00    +0.173 C 
ATOM      3  C   UNL     1       4.242   0.838   0.084  0.00  0.00    +0.169 C 
ATOM      4  C   UNL     1       3.210  -1.459  -0.084  0.00  0.00    +0.210 C 
ATOM      5  C   UNL     1       2.818   1.384   0.217  0.00  0.00    +0.177 C 
ATOM      6  C   UNL     1       1.848  -0.775   0.031  0.00  0.00    +0.318 C 
ENDROOT
BRANCH   2   7
ATOM      7  O   UNL     1       5.588  -1.138   0.185  0.00  0.00    -0.379 OA
ATOM      8  H   UNL     1       6.288  -0.603   0.591  0.00  0.00    +0.211 HD
ENDBRANCH   2   7
BRANCH   3   9
ATOM      9  O   UNL     1       5.127   1.632   0.869  0.00  0.00    -0.379 OA
ATOM     10  H   UNL     1       6.030   1.288   0.786  0.00  0.00    +0.211 HD
ENDBRANCH   3   9
BRANCH   4  11
ATOM     11  O   UNL     1       3.134  -2.721   0.579  0.00  0.00    -0.377 OA
ATOM     12  H   UNL     1       3.991  -3.171   0.516  0.00  0.00    +0.211 HD
ENDBRANCH   4  11
BRANCH   6  13
ATOM     13  O   UNL     1       0.904  -1.548  -0.709  0.00  0.00    -0.450 OA
BRANCH  13  16
ATOM     14  O   UNL     1      -3.065  -0.346   1.650  0.00  0.00    -0.421 OA
ATOM     15  O   UNL     1      -4.960   0.226   2.796  0.00  0.00    -0.244 OA
ATOM     16  C   UNL     1      -0.384  -1.087  -0.729  0.00  0.00    +0.144 C 
ATOM     17  C   UNL     1      -1.086  -0.945   0.459  0.00  0.00    +0.075 C 
ATOM     18  C   UNL     1      -0.983  -0.762  -1.941  0.00  0.00    +0.037 C 
ATOM     19  C   UNL     1      -3.031  -0.137  -0.783  0.00  0.00    +0.031 C 
ATOM     20  C   UNL     1      -2.399  -0.472   0.415  0.00  0.00    +0.151 C 
ATOM     21  C   UNL     1      -2.300  -0.290  -1.969  0.00  0.00    +0.006 C 
ATOM     22  C   UNL     1      -4.415   0.353  -0.736  0.00  0.00    -0.012 C 
ATOM     23  C   UNL     1      -5.025   0.462   0.454  0.00  0.00    +0.078 C 
ATOM     24  C   UNL     1      -5.123   0.721  -2.007  0.00  0.00    +0.031 C 
ATOM     25  C   UNL     1      -4.371   0.113   1.726  0.00  0.00    +0.346 C 
ENDBRANCH  13  16
ENDBRANCH   6  13
BRANCH   5  26
ATOM     26  C   UNL     1       2.697   2.792  -0.356  0.00  0.00    +0.169 C 
BRANCH  26  27
ATOM     27  O   UNL     1       1.358   3.226  -0.208  0.00  0.00    -0.379 OA
ATOM     28  H   UNL     1       1.266   4.122  -0.569  0.00  0.00    +0.211 HD
ENDBRANCH  26  27
ENDBRANCH   5  26
TORSDOF 7
