REMARK  Name = 6436055
REMARK  9 active torsions:
REMARK  status: ('A' for Active; 'I' for Inactive)
REMARK    1  A    between atoms: CA_5  and  N_11
REMARK    2  A    between atoms: CA_7  and  C_27
REMARK    3  A    between atoms: C_8  and  C_30
REMARK    4  A    between atoms: C_12  and  C_14
REMARK    5  A    between atoms: C_14  and  C_19
REMARK    6  A    between atoms: C_15  and  C_24
REMARK    7  A    between atoms: C_27  and  O_28
REMARK    8  A    between atoms: C_30  and  O_31
REMARK    9  A    between atoms: O_31  and  C_34
REMARK                            x       y       z     vdW  Elec       q    Type
REMARK                         _______ _______ _______ _____ _____    ______ ____
ROOT
ATOM      1  S   UNL     1       0.817  -1.883   0.191  0.00  0.00    -0.114 S 
ATOM      2  O   UNL     1       0.321   2.667   1.001  0.00  0.00    -0.273 OA
ATOM      3  N   UNL     1       1.461   0.610   0.836  0.00  0.00    -0.242 N 
ATOM      4  C   UNL     1       0.858  -0.569   1.430  0.00  0.00    +0.155 C 
ATOM      5  CA  UNL     1      -0.425   0.279   1.574  0.00  0.00    +0.179 C 
ATOM      6  C   UNL     1       0.465   1.474   1.128  0.00  0.00    +0.251 C 
ATOM      7  CA  UNL     1       2.673   0.610   0.223  0.00  0.00    +0.127 C 
ATOM      8  C   UNL     1       3.281  -0.544  -0.141  0.00  0.00    +0.030 C 
ATOM      9  C   UNL     1       2.632  -1.919   0.008  0.00  0.00    +0.086 C 
ENDROOT
BRANCH   5  11
ATOM     10  O   UNL     1      -2.709   1.952   1.145  0.00  0.00    -0.270 OA
ATOM     11  N   UNL     1      -1.545   0.015   0.671  0.00  0.00    -0.293 N 
ATOM     12  C   UNL     1      -2.620   0.892   0.527  0.00  0.00    +0.248 C 
ATOM     13  H   UNL     1      -1.540  -0.816   0.143  0.00  0.00    +0.150 HD
BRANCH  12  14
ATOM     14  C   UNL     1      -3.686   0.449  -0.448  0.00  0.00    +0.075 C 
ATOM     15  C   UNL     1      -3.498   0.831  -1.729  0.00  0.00    -0.019 C 
BRANCH  14  19
ATOM     16  S   UNL     1      -6.441  -1.672   1.406  0.00  0.00    -0.060 S 
ATOM     17  N   UNL     1      -5.749  -0.758  -0.911  0.00  0.00    -0.385 NA
ATOM     18  N   UNL     1      -7.746  -2.024  -0.885  0.00  0.00    -0.328 N 
ATOM     19  C   UNL     1      -4.798  -0.346   0.002  0.00  0.00    +0.127 C 
ATOM     20  C   UNL     1      -5.003  -0.744   1.306  0.00  0.00    +0.125 C 
ATOM     21  C   UNL     1      -6.663  -1.464  -0.283  0.00  0.00    +0.204 C 
ATOM     22  H   UNL     1      -8.392  -2.542  -0.353  0.00  0.00    +0.145 HD
ATOM     23  H   UNL     1      -7.883  -1.912  -1.854  0.00  0.00    +0.145 HD
ENDBRANCH  14  19
BRANCH  15  24
ATOM     24  C   UNL     1      -2.361   1.660  -2.265  0.00  0.00    +0.026 C 
ATOM     25  C   UNL     1      -1.198   0.785  -2.705  0.00  0.00    +0.005 C 
ENDBRANCH  15  24
ENDBRANCH  12  14
ENDBRANCH   5  11
BRANCH   7  27
ATOM     26  OXT UNL     1       3.500   2.316  -1.211  0.00  0.00    -0.244 OA
ATOM     27  C   UNL     1       3.264   1.920  -0.087  0.00  0.00    +0.352 C 
BRANCH  27  28
ATOM     28  O   UNL     1       3.493   2.590   1.060  0.00  0.00    -0.476 OA
ATOM     29  H   UNL     1       3.276   2.198   1.882  0.00  0.00    +0.295 HD
ENDBRANCH  27  28
ENDBRANCH   7  27
BRANCH   8  30
ATOM     30  C   UNL     1       4.660  -0.631  -0.751  0.00  0.00    +0.235 C 
BRANCH  30  31
ATOM     31  O   UNL     1       5.489  -1.417   0.079  0.00  0.00    -0.430 OA
BRANCH  31  34
ATOM     32  O   UNL     1       7.252  -1.118  -1.371  0.00  0.00    -0.227 OA
ATOM     33  N   UNL     1       7.492  -2.369   0.543  0.00  0.00    -0.295 N 
ATOM     34  C   UNL     1       6.785  -1.592  -0.342  0.00  0.00    +0.399 C 
ATOM     35  H   UNL     1       7.052  -2.718   1.352  0.00  0.00    +0.148 HD
ATOM     36  H   UNL     1       8.438  -2.578   0.367  0.00  0.00    +0.148 HD
ENDBRANCH  31  34
ENDBRANCH  30  31
ENDBRANCH   8  30
TORSDOF 9
