REMARK  Name = 8281
REMARK  4 active torsions:
REMARK  status: ('A' for Active; 'I' for Inactive)
REMARK    1  A    between atoms: S_1  and  C_4
REMARK    2  A    between atoms: S_1  and  N_14
REMARK    3  A    between atoms: C_7  and  N_10
REMARK    4  A    between atoms: C_15  and  C_18
REMARK                            x       y       z     vdW  Elec       q    Type
REMARK                         _______ _______ _______ _____ _____    ______ ____
ROOT
ATOM      1  S   UNL     1       0.426  -2.035   0.006  0.00  0.00    +0.076 S 
ATOM      2  O   UNL     1       0.236  -2.442  -1.373  0.00  0.00    -0.150 OA
ATOM      3  O   UNL     1       0.925  -2.977   0.989  0.00  0.00    -0.150 OA
ENDROOT
BRANCH   1   4
ATOM      4  C   UNL     1       1.522  -0.649   0.024  0.00  0.00    +0.125 C 
ATOM      5  C   UNL     1       2.265  -0.389   1.163  0.00  0.00    +0.021 C 
ATOM      6  C   UNL     1       1.617   0.154  -1.100  0.00  0.00    +0.021 C 
ATOM      7  C   UNL     1       3.237   1.525   0.054  0.00  0.00    +0.042 C 
ATOM      8  C   UNL     1       3.129   0.706   1.178  0.00  0.00    +0.015 C 
ATOM      9  C   UNL     1       2.481   1.248  -1.085  0.00  0.00    +0.015 C 
BRANCH   7  10
ATOM     10  N   UNL     1       4.112   2.631   0.067  0.00  0.00    -0.357 N 
ATOM     11  H   UNL     1       4.646   2.826   0.871  0.00  0.00    +0.142 HD
ATOM     12  H   UNL     1       4.188   3.208  -0.727  0.00  0.00    +0.142 HD
ENDBRANCH   7  10
ENDBRANCH   1   4
BRANCH   1  14
ATOM     13  O   UNL     1      -1.853  -0.470  -1.427  0.00  0.00    -0.269 OA
ATOM     14  N   UNL     1      -1.016  -1.320   0.590  0.00  0.00    -0.181 N 
ATOM     15  C   UNL     1      -1.950  -0.591  -0.214  0.00  0.00    +0.264 C 
ATOM     16  H   UNL     1      -1.217  -1.417   1.549  0.00  0.00    +0.177 HD
BRANCH  15  18
ATOM     17  C   UNL     1      -3.756   1.090   0.320  0.00  0.00    -0.039 C 
ATOM     18  C   UNL     1      -3.061  -0.028   0.600  0.00  0.00    +0.051 C 
ATOM     19  C   UNL     1      -4.880   1.670   1.133  0.00  0.00    +0.027 C 
ATOM     20  C   UNL     1      -3.434   1.877  -0.925  0.00  0.00    +0.027 C 
ENDBRANCH  15  18
ENDBRANCH   1  14
TORSDOF 4
