REMARK  Name = 36846
REMARK  3 active torsions:
REMARK  status: ('A' for Active; 'I' for Inactive)
REMARK    1  A    between atoms: C_10  and  C_20
REMARK    2  A    between atoms: C_20  and  C_21
REMARK    3  A    between atoms: C_21  and  N_22
REMARK                            x       y       z     vdW  Elec       q    Type
REMARK                         _______ _______ _______ _____ _____    ______ ____
ROOT
ATOM      1  O   UNL     1      -1.612   1.525  -0.435  0.00  0.00    -0.454 OA
ATOM      2  O   UNL     1      -0.610  -2.206   1.336  0.00  0.00    -0.471 OA
ATOM      3  C   UNL     1      -2.028  -0.588   0.191  0.00  0.00    +0.059 A 
ATOM      4  C   UNL     1      -1.018   0.312  -0.156  0.00  0.00    +0.145 A 
ATOM      5  C   UNL     1       0.397   0.068  -0.228  0.00  0.00    +0.033 C 
ATOM      6  C   UNL     1      -3.271   0.106   0.104  0.00  0.00    +0.037 A 
ATOM      7  C   UNL     1      -1.818  -2.011   0.580  0.00  0.00    +0.235 C 
ATOM      8  C   UNL     1       1.002  -1.296  -0.254  0.00  0.00    +0.037 C 
ATOM      9  C   UNL     1      -2.954   1.397  -0.282  0.00  0.00    +0.145 A 
ATOM     10  C   UNL     1       1.208   1.143  -0.221  0.00  0.00    -0.025 C 
ATOM     11  C   UNL     1       0.478  -2.358   0.509  0.00  0.00    +0.139 C 
ATOM     12  C   UNL     1      -4.625  -0.217   0.312  0.00  0.00    +0.003 C 
ATOM     13  C   UNL     1       2.112  -1.573  -1.073  0.00  0.00    +0.003 C 
ATOM     14  C   UNL     1      -3.891   2.410  -0.481  0.00  0.00    +0.037 C 
ATOM     15  C   UNL     1       1.082  -3.620   0.511  0.00  0.00    +0.037 C 
ATOM     16  C   UNL     1      -5.593   0.779   0.120  0.00  0.00    +0.000 C 
ATOM     17  C   UNL     1      -5.229   2.069  -0.270  0.00  0.00    +0.003 C 
ATOM     18  C   UNL     1       2.701  -2.841  -1.091  0.00  0.00    +0.000 C 
ATOM     19  C   UNL     1       2.192  -3.861  -0.292  0.00  0.00    +0.003 C 
ENDROOT
BRANCH  10  20
ATOM     20  C   UNL     1       2.701   1.057  -0.238  0.00  0.00    +0.003 C 
BRANCH  20  21
ATOM     21  C   UNL     1       3.326   2.238   0.504  0.00  0.00    -0.073 C 
BRANCH  21  22
ATOM     22  N   UNL     1       4.780   2.129   0.495  0.00  0.00    +0.384 N 
ATOM     23  C   UNL     1       5.385   3.237   1.236  0.00  0.00    -0.101 C 
ATOM     24  C   UNL     1       5.286   2.100  -0.878  0.00  0.00    -0.101 C 
ATOM     25  H   UNL     1       5.037   1.254   0.953  0.00  0.00    -0.080 HD
ENDBRANCH  21  22
ENDBRANCH  20  21
ENDBRANCH  10  20
TORSDOF 3
