REMARK  Name = 122553
REMARK  9 active torsions:
REMARK  status: ('A' for Active; 'I' for Inactive)
REMARK    1  A    between atoms: N_1  and  C_9
REMARK    2  A    between atoms: N_2  and  C_20
REMARK    3  A    between atoms: C_9  and  C_10
REMARK    4  A    between atoms: C_10  and  C_11
REMARK    5  A    between atoms: C_11  and  C_12
REMARK    6  A    between atoms: C_11  and  O_18
REMARK    7  A    between atoms: C_20  and  C_21
REMARK    8  A    between atoms: C_21  and  C_22
REMARK    9  A    between atoms: C_21  and  O_28
REMARK                            x       y       z     vdW  Elec       q    Type
REMARK                         _______ _______ _______ _____ _____    ______ ____
ROOT
ATOM      1  N   UNL     1       1.346  -1.830  -0.150  0.00  0.00    +0.384 N 
ATOM      2  N   UNL     1      -1.510  -1.384  -0.106  0.00  0.00    +0.386 N 
ATOM      3  C   UNL     1       0.405  -2.867  -0.593  0.00  0.00    -0.101 C 
ATOM      4  C   UNL     1       0.723  -0.974   0.867  0.00  0.00    -0.101 C 
ATOM      5  C   UNL     1      -0.888  -2.240  -1.124  0.00  0.00    -0.101 C 
ATOM      6  C   UNL     1      -0.570  -0.347   0.335  0.00  0.00    -0.101 C 
ATOM      7  H   UNL     1       1.587  -1.251  -0.954  0.00  0.00    -0.080 HD
ATOM      8  H   UNL     1      -1.750  -1.964   0.698  0.00  0.00    -0.080 HD
ENDROOT
BRANCH   1   9
ATOM      9  C   UNL     1       2.578  -2.430   0.360  0.00  0.00    -0.075 C 
BRANCH   9  10
ATOM     10  C   UNL     1       3.591  -1.339   0.708  0.00  0.00    +0.011 C 
BRANCH  10  11
ATOM     11  C   UNL     1       3.962  -0.458  -0.495  0.00  0.00    +0.131 C 
BRANCH  11  12
ATOM     12  C   UNL     1       4.989   0.606  -0.183  0.00  0.00    +0.004 C 
ATOM     13  C   UNL     1       4.564   1.853   0.248  0.00  0.00    -0.002 C 
ATOM     14  C   UNL     1       6.335   0.314  -0.334  0.00  0.00    -0.002 C 
ATOM     15  C   UNL     1       5.512   2.834   0.536  0.00  0.00    -0.000 C 
ATOM     16  C   UNL     1       7.282   1.296  -0.045  0.00  0.00    -0.000 C 
ATOM     17  C   UNL     1       6.871   2.557   0.389  0.00  0.00    -0.000 C 
ENDBRANCH  11  12
BRANCH  11  18
ATOM     18  O   UNL     1       4.488  -1.288  -1.532  0.00  0.00    -0.380 OA
ATOM     19  H   UNL     1       3.845  -1.980  -1.750  0.00  0.00    +0.211 HD
ENDBRANCH  11  18
ENDBRANCH  10  11
ENDBRANCH   9  10
ENDBRANCH   1   9
BRANCH   2  20
ATOM     20  C   UNL     1      -2.743  -0.785  -0.614  0.00  0.00    -0.043 C 
BRANCH  20  21
ATOM     21  C   UNL     1      -3.447   0.026   0.481  0.00  0.00    +0.117 C 
BRANCH  21  22
ATOM     22  C   UNL     1      -4.725   0.653  -0.030  0.00  0.00    +0.002 C 
ATOM     23  C   UNL     1      -4.681   1.917  -0.592  0.00  0.00    -0.002 C 
ATOM     24  C   UNL     1      -5.913  -0.051   0.076  0.00  0.00    -0.002 C 
ATOM     25  C   UNL     1      -5.859   2.495  -1.063  0.00  0.00    -0.000 C 
ATOM     26  C   UNL     1      -7.091   0.527  -0.396  0.00  0.00    -0.000 C 
ATOM     27  C   UNL     1      -7.065   1.801  -0.965  0.00  0.00    -0.000 C 
ENDBRANCH  21  22
BRANCH  21  28
ATOM     28  O   UNL     1      -3.773  -0.814   1.587  0.00  0.00    -0.351 OA
ATOM     29  C   UNL     1      -4.381  -0.075   2.635  0.00  0.00    +0.174 C 
ENDBRANCH  21  28
ENDBRANCH  20  21
ENDBRANCH   2  20
TORSDOF 9
