REMARK  Name = 10715
REMARK  4 active torsions:
REMARK  status: ('A' for Active; 'I' for Inactive)
REMARK    1  A    between atoms: C_5  and  C_10
REMARK    2  A    between atoms: C_10  and  C_11
REMARK    3  A    between atoms: C_10  and  C_14
REMARK    4  A    between atoms: C_14  and  C_15
REMARK                            x       y       z     vdW  Elec       q    Type
REMARK                         _______ _______ _______ _____ _____    ______ ____
ROOT
ATOM      1  O   UNL     1      -0.374  -0.743  -1.245  0.00  0.00    -0.275 OA
ATOM      2  O   UNL     1      -3.152  -0.539  -0.872  0.00  0.00    -0.253 OA
ATOM      3  N   UNL     1      -1.476   0.301   0.521  0.00  0.00    -0.240 N 
ATOM      4  N   UNL     1      -3.697   0.601   1.047  0.00  0.00    -0.313 N 
ATOM      5  C   UNL     1      -0.347  -0.114  -0.189  0.00  0.00    +0.229 C 
ATOM      6  C   UNL     1      -2.800   0.066   0.139  0.00  0.00    +0.303 C 
ATOM      7  H   UNL     1      -1.327   0.800   1.357  0.00  0.00    +0.159 HD
ATOM      8  H   UNL     1      -4.665   0.505   0.897  0.00  0.00    +0.146 HD
ATOM      9  H   UNL     1      -3.367   1.077   1.843  0.00  0.00    +0.146 HD
ENDROOT
BRANCH   5  10
ATOM     10  C   UNL     1       0.961   0.329   0.485  0.00  0.00    +0.081 C 
BRANCH  10  11
ATOM     11  C   UNL     1       1.304   1.779   0.036  0.00  0.00    +0.009 C 
ATOM     12  C   UNL     1       1.455   1.928  -1.481  0.00  0.00    +0.001 C 
ATOM     13  C   UNL     1       2.562   2.302   0.738  0.00  0.00    +0.001 C 
ENDBRANCH  10  11
BRANCH  10  14
ATOM     14  C   UNL     1       2.095  -0.686   0.229  0.00  0.00    +0.035 C 
BRANCH  14  15
ATOM     15  C   UNL     1       1.728  -2.071   0.690  0.00  0.00    -0.026 C 
ATOM     16  C   UNL     1       1.740  -3.152  -0.098  0.00  0.00    -0.005 C 
ENDBRANCH  14  15
ENDBRANCH  10  14
ENDBRANCH   5  10
TORSDOF 4
