REMARK  Name = 6016
REMARK  3 active torsions:
REMARK  status: ('A' for Active; 'I' for Inactive)
REMARK    1  A    between atoms: N_2  and  C_15
REMARK    2  A    between atoms: C_15  and  C_16
REMARK    3  A    between atoms: C_16  and  N_18
REMARK                            x       y       z     vdW  Elec       q    Type
REMARK                         _______ _______ _______ _____ _____    ______ ____
ROOT
ATOM      1  S   UNL     1       2.759   0.935  -1.103  0.00  0.00    -0.084 S 
ATOM      2  N   UNL     1       0.214  -0.068   0.374  0.00  0.00    -0.288 N 
ATOM      3  C   UNL     1       1.276  -1.003   0.274  0.00  0.00    +0.058 C 
ATOM      4  C   UNL     1       0.355   1.339   0.280  0.00  0.00    +0.058 C 
ATOM      5  C   UNL     1       2.490  -0.658  -0.352  0.00  0.00    +0.043 C 
ATOM      6  C   UNL     1       1.479   1.916  -0.346  0.00  0.00    +0.043 C 
ATOM      7  C   UNL     1       1.184  -2.300   0.824  0.00  0.00    +0.015 C 
ATOM      8  C   UNL     1      -0.594   2.225   0.834  0.00  0.00    +0.015 C 
ATOM      9  C   UNL     1       3.542  -1.586  -0.442  0.00  0.00    +0.008 C 
ATOM     10  C   UNL     1       1.618   3.313  -0.430  0.00  0.00    +0.008 C 
ATOM     11  C   UNL     1       2.235  -3.217   0.736  0.00  0.00    +0.001 C 
ATOM     12  C   UNL     1      -0.449   3.613   0.752  0.00  0.00    +0.001 C 
ATOM     13  C   UNL     1       3.414  -2.861   0.100  0.00  0.00    +0.001 C 
ATOM     14  C   UNL     1       0.657   4.157   0.117  0.00  0.00    +0.001 C 
ENDROOT
BRANCH   2  15
ATOM     15  C   UNL     1      -1.125  -0.595   0.666  0.00  0.00    +0.075 C 
BRANCH  15  16
ATOM     16  C   UNL     1      -2.113  -0.303  -0.463  0.00  0.00    -0.034 C 
ATOM     17  C   UNL     1      -1.699  -0.878  -1.810  0.00  0.00    -0.021 C 
BRANCH  16  18
ATOM     18  N   UNL     1      -3.448  -0.857  -0.100  0.00  0.00    +0.388 N 
ATOM     19  C   UNL     1      -3.912  -0.306   1.253  0.00  0.00    -0.096 C 
ATOM     20  C   UNL     1      -4.493  -0.480  -1.157  0.00  0.00    -0.096 C 
ATOM     21  C   UNL     1      -3.390  -2.386  -0.004  0.00  0.00    -0.096 C 
ENDBRANCH  16  18
ENDBRANCH  15  16
ENDBRANCH   2  15
TORSDOF 3
