REMARK  Name = 13916
REMARK  2 active torsions:
REMARK  status: ('A' for Active; 'I' for Inactive)
REMARK    1  A    between atoms: C_2  and  C_10
REMARK    2  A    between atoms: C_3  and  N_17
REMARK                            x       y       z     vdW  Elec       q    Type
REMARK                         _______ _______ _______ _____ _____    ______ ____
ROOT
ATOM      1 CL   UNL     1      -3.692   1.082   0.140  0.00  0.00    -0.081 Cl
ATOM      2  C   UNL     1      -0.097  -0.703  -0.168  0.00  0.00    +0.025 C 
ATOM      3  C   UNL     1      -1.084   0.277  -0.065  0.00  0.00    +0.153 C 
ATOM      4  C   UNL     1      -0.454  -2.051  -0.197  0.00  0.00    +0.002 C 
ATOM      5  C   UNL     1      -2.427  -0.091   0.010  0.00  0.00    +0.080 C 
ATOM      6  C   UNL     1      -1.797  -2.419  -0.121  0.00  0.00    +0.001 C 
ATOM      7  C   UNL     1      -2.784  -1.439  -0.018  0.00  0.00    +0.013 C 
ENDROOT
BRANCH   2  10
ATOM      8 CL   UNL     1       1.987  -0.350   2.446  0.00  0.00    -0.081 Cl
ATOM      9  N   UNL     1       3.241   0.148  -1.187  0.00  0.00    -0.310 N 
ATOM     10  C   UNL     1       1.301  -0.365  -0.248  0.00  0.00    +0.028 C 
ATOM     11  C   UNL     1       2.260  -0.193   0.776  0.00  0.00    +0.074 C 
ATOM     12  C   UNL     1       1.930  -0.150  -1.451  0.00  0.00    +0.063 C 
ATOM     13  C   UNL     1       3.454   0.125   0.166  0.00  0.00    +0.073 C 
ATOM     14  H   UNL     1       3.925   0.349  -1.866  0.00  0.00    +0.152 HD
ENDBRANCH   2  10
BRANCH   3  17
ATOM     15  O   UNL     1       0.497   1.956  -0.105  0.00  0.00    -0.126 OA
ATOM     16  O   UNL     1      -1.619   2.517   0.057  0.00  0.00    -0.126 OA
ATOM     17  N   UNL     1      -0.716   1.657  -0.036  0.00  0.00    +0.059 N 
ENDBRANCH   3  17
TORSDOF 2
