REMARK  Name = 71821
REMARK  2 active torsions:
REMARK  status: ('A' for Active; 'I' for Inactive)
REMARK    1  A    between atoms: N_1  and  C_11
REMARK    2  A    between atoms: C_11  and  C_13
REMARK                            x       y       z     vdW  Elec       q    Type
REMARK                         _______ _______ _______ _____ _____    ______ ____
ROOT
ATOM      1  N   UNL     1      -0.852  -0.794  -0.616  0.00  0.00    -0.260 N 
ATOM      2  N   UNL     1      -2.286  -1.643   0.855  0.00  0.00    -0.394 NA
ATOM      3  C   UNL     1      -1.742   0.214  -0.348  0.00  0.00    +0.079 C 
ATOM      4  C   UNL     1      -1.218  -1.882   0.126  0.00  0.00    +0.164 C 
ATOM      5  C   UNL     1      -2.627  -0.341   0.572  0.00  0.00    +0.128 C 
ATOM      6  C   UNL     1      -1.845   1.524  -0.817  0.00  0.00    +0.017 C 
ATOM      7  C   UNL     1      -0.470  -3.155   0.077  0.00  0.00    +0.084 C 
ATOM      8  C   UNL     1      -3.684   0.443   1.064  0.00  0.00    +0.086 C 
ATOM      9  C   UNL     1      -2.904   2.290  -0.317  0.00  0.00    -0.003 C 
ATOM     10  C   UNL     1      -3.808   1.761   0.607  0.00  0.00    -0.019 C 
ENDROOT
BRANCH   1  11
ATOM     11  C   UNL     1       0.272  -0.715  -1.521  0.00  0.00    +0.124 C 
BRANCH  11  13
ATOM     12 CL   UNL     1       5.225   1.163   1.302  0.00  0.00    -0.082 Cl
ATOM     13  C   UNL     1       1.515  -0.244  -0.815  0.00  0.00    -0.002 C 
ATOM     14  C   UNL     1       2.367  -1.175  -0.236  0.00  0.00    -0.002 C 
ATOM     15  C   UNL     1       1.791   1.115  -0.750  0.00  0.00    -0.002 C 
ATOM     16  C   UNL     1       3.518  -0.738   0.419  0.00  0.00    +0.011 C 
ATOM     17  C   UNL     1       2.942   1.551  -0.093  0.00  0.00    +0.011 C 
ATOM     18  C   UNL     1       3.806   0.625   0.491  0.00  0.00    +0.058 C 
ENDBRANCH  11  13
ENDBRANCH   1  11
TORSDOF 2
