REMARK  Name = 35803
REMARK  4 active torsions:
REMARK  status: ('A' for Active; 'I' for Inactive)
REMARK    1  A    between atoms: N_4  and  C_11
REMARK    2  A    between atoms: C_5  and  C_17
REMARK    3  A    between atoms: C_12  and  O_21
REMARK    4  A    between atoms: C_17  and  C_18
REMARK                            x       y       z     vdW  Elec       q    Type
REMARK                         _______ _______ _______ _____ _____    ______ ____
ROOT
ATOM      1  N   UNL     1       1.177   1.311  -0.066  0.00  0.00    -0.302 N 
ATOM      2  N   UNL     1       1.670  -0.849   0.110  0.00  0.00    -0.302 N 
ATOM      3  C   UNL     1      -2.353   0.173   0.170  0.00  0.00    +0.036 C 
ATOM      4  C   UNL     1      -1.345   1.134   0.045  0.00  0.00    +0.018 C 
ATOM      5  C   UNL     1      -2.049  -1.186   0.281  0.00  0.00    +0.004 C 
ATOM      6  C   UNL     1      -0.030   0.668   0.038  0.00  0.00    +0.060 C 
ATOM      7  C   UNL     1       0.304  -0.679   0.146  0.00  0.00    +0.060 C 
ATOM      8  C   UNL     1      -0.721  -1.631   0.271  0.00  0.00    +0.016 C 
ATOM      9  C   UNL     1       2.161   0.363  -0.018  0.00  0.00    +0.229 C 
ATOM     10  H   UNL     1       1.311   2.282  -0.158  0.00  0.00    +0.150 HD
ATOM     11  H   UNL     1       2.170  -1.695   0.167  0.00  0.00    +0.150 HD
ENDROOT
BRANCH   9  13
ATOM     12  O   UNL     1       4.604  -1.330   0.044  0.00  0.00    -0.226 OA
ATOM     13  N   UNL     1       3.479   0.729  -0.098  0.00  0.00    -0.240 N 
ATOM     14  C   UNL     1       4.594  -0.111  -0.064  0.00  0.00    +0.404 C 
ATOM     15  H   UNL     1       3.661   1.692  -0.190  0.00  0.00    +0.156 HD
BRANCH  14  16
ATOM     16  O   UNL     1       5.732   0.644  -0.173  0.00  0.00    -0.431 OA
ATOM     17  C   UNL     1       6.970  -0.077  -0.154  0.00  0.00    +0.257 C 
ENDBRANCH  14  16
ENDBRANCH   9  13
BRANCH   3  19
ATOM     18  O   UNL     1      -4.069   1.792   0.109  0.00  0.00    -0.291 OA
ATOM     19  C   UNL     1      -3.744   0.598   0.184  0.00  0.00    +0.173 C 
BRANCH  19  20
ATOM     20  C   UNL     1      -4.854  -0.413   0.317  0.00  0.00    +0.062 C 
ATOM     21  C   UNL     1      -5.338  -1.079  -0.918  0.00  0.00    +0.008 C 
ATOM     22  C   UNL     1      -6.189  -0.056  -0.224  0.00  0.00    +0.008 C 
ENDBRANCH  19  20
ENDBRANCH   3  19
TORSDOF 4
